# Name:		*****
# Pharmacophore name:		UNK
# Created and modified by PharmDock on Tue Oct 21 09:30:47 2014

# 
# Fit value:		0
# Energy:		102.732kJ/mol

@<TRIPOS>MOLECULE
*****
   10     9     0
SMALL
USER_CHARGE


@<TRIPOS>ATOM
      1 N           0.9776   -0.0636   -0.0738 N.3       1 <1>        -0.1208
      2 CA          2.4476   -0.0636   -0.0738 C.3       1 <1>         0.1949
      3 C           2.9416   -0.5243    1.2453 C.2       1 <1>         0.3819
      4 CB          2.9543   -0.9991   -1.1595 C.3       1 <1>         0.0424
      5 O           3.7758    0.1391    1.8542 O.co2     1 <1>        -0.2441
      6 OXT         2.4743   -1.6727    1.7769 O.co2     1 <1>        -0.2441
      7 CG          2.7033   -0.3760   -2.5230 C.3       1 <1>         0.1161
      8 CD          3.4584   -1.1249   -3.5550 C.2       1 <1>         0.3649
      9 OE1         2.8752   -2.1540   -4.2035 O.co2     1 <1>        -0.2457
     10 OE2         4.6146   -0.8086   -3.8199 O.co2     1 <1>        -0.2457
@<TRIPOS>BOND
     1    1    2 1
     2    2    3 1
     3    2    4 1
     4    3    5 ar
     5    3    6 ar
     6    4    7 1
     7    7    8 1
     8    8    9 ar
     9    8   10 ar
@<TRIPOS>Energy
102.7325

@<TRIPOS>FitValue
0.0000

