@<TRIPOS>MOLECULE
AH-262/01728005
   31    32     0
SMALL
USER_CHARGE


@<TRIPOS>ATOM
      1 C1          3.1314    1.5479    0.8985 C.1       1 <1>         0.0360
      2 C2          6.7051   -3.9190    0.8268 C.ar      1 <1>        -0.0854
      3 C3          7.9719   -3.3867    1.0577 C.ar      1 <1>        -0.0847
      4 C4          5.5572   -3.1368    0.9980 C.ar      1 <1>        -0.0705
      5 C5          8.1327   -2.0595    1.4659 C.ar      1 <1>        -0.0705
      6 C6          5.6943   -1.7959    1.4089 C.ar      1 <1>        -0.0346
      7 C7          4.7762   -0.7416    1.6747 C.2       1 <1>         0.0099
      8 C8          6.9763   -1.2893    1.6328 C.ar      1 <1>        -0.0358
      9 C9          5.5051    0.3639    2.0483 C.2       1 <1>         0.0093
     10 C10         3.3664   -0.7840    1.5842 C.2       1 <1>         0.0512
     11 C11         2.5879    0.2698    1.2319 C.2       1 <1>         0.1436
     12 C12         1.1122    0.0326    1.1749 C.2       1 <1>         0.1504
     13 C13         6.1729    2.5389    2.7406 C.3       1 <1>         0.0240
     14 C14        -0.9768    1.1140    1.4254 C.3       1 <1>         0.0401
     15 N1          3.5698    2.5873    0.6252 N.1       1 <1>        -0.3967
     16 N2          6.8310    0.0240    2.0198 N.pl3     1 <1>        -0.3262
     17 O1          0.5891   -1.0439    0.9239 O.2       1 <1>        -0.4784
     18 O2          5.1410    1.5904    2.3973 O.3       1 <1>        -0.4522
     19 O3          0.4525    1.1936    1.4449 O.3       1 <1>        -0.4009
     20 H1          6.6053   -4.9540    0.5100 H         1 <1>         0.1245
     21 H2          8.8500   -4.0122    0.9180 H         1 <1>         0.1274
     22 H3          4.5776   -3.5688    0.8138 H         1 <1>         0.1404
     23 H4          9.1194   -1.6458    1.6450 H         1 <1>         0.1387
     24 H5          2.8949   -1.7530    1.7801 H         1 <1>         0.2667
     25 H6          5.7160    3.4962    3.0034 H         1 <1>         0.1347
     26 H7          6.8487    2.6665    1.8912 H         1 <1>         0.1348
     27 H8          6.7346    2.1588    3.5970 H         1 <1>         0.1559
     28 H9         -1.4002    2.0952    1.6536 H         1 <1>         0.1401
     29 H10        -1.3118    0.3803    2.1626 H         1 <1>         0.1403
     30 H11        -1.3019    0.8021    0.4300 H         1 <1>         0.1551
     31 H12         7.5925    0.6471    2.2492 H         1 <1>         0.3128
@<TRIPOS>BOND
     1    1   11 1
     2    1   15 3
     3    2    3 ar
     4    2    4 ar
     5    3    5 ar
     6    4    6 ar
     7    5    8 ar
     8    6    7 1
     9    6    8 ar
    10    7    9 2
    11    7   10 1
    12    8   16 1
    13    9   16 1
    14    9   18 1
    15   10   11 2
    16   11   12 1
    17   12   17 2
    18   12   19 1
    19   13   18 1
    20   14   19 1
    21    2   20 1
    22    3   21 1
    23    4   22 1
    24    5   23 1
    25   10   24 1
    26   13   25 1
    27   13   26 1
    28   13   27 1
    29   14   28 1
    30   14   29 1
    31   14   30 1
    32   16   31 1
