@<TRIPOS>MOLECULE
AE-842/33001023
   25    26     0
SMALL
USER_CHARGE


@<TRIPOS>ATOM
      1 C1          7.9504   -3.5591    1.2682 C.ar      1 <1>        -0.0916
      2 C2          6.7684   -4.1875    0.8875 C.ar      1 <1>        -0.0910
      3 C3          7.9564   -2.1918    1.5461 C.ar      1 <1>        -0.0856
      4 C4          5.5880   -3.4512    0.7833 C.ar      1 <1>        -0.0835
      5 C5          6.7652   -0.0582    1.7223 C.ar      1 <1>        -0.0681
      6 C6          5.5847    0.6781    1.6180 C.ar      1 <1>        -0.0501
      7 C7          4.3966   -1.3175    0.9593 C.ar      1 <1>        -0.0476
      8 C8          6.7774   -1.4352    1.4463 C.ar      1 <1>        -0.0747
      9 C9          5.5756   -2.0742    1.0592 C.ar      1 <1>        -0.0690
     10 C10         4.4028    0.0497    1.2373 C.ar      1 <1>        -0.0075
     11 C11         3.0109    1.9605    1.9879 C.3       1 <1>         0.0488
     12 N1          3.2099    0.7951    1.1329 N.pl3     1 <1>        -0.2630
     13 N2          2.4439    0.6607   -0.0258 N.pl3     1 <1>        -0.0642
     14 O1          1.5798   -0.2254   -0.0157 O.3       1 <1>        -0.1637
     15 O2          2.6524    1.4333   -0.9705 O.2       1 <1>        -0.3302
     16 H1          8.8691   -4.1327    1.3488 H         1 <1>         0.1215
     17 H2          6.7646   -5.2520    0.6716 H         1 <1>         0.1220
     18 H3          8.8918   -1.7206    1.8407 H         1 <1>         0.1311
     19 H4          4.6763   -3.9636    0.4829 H         1 <1>         0.1314
     20 H5          7.6776    0.4533    2.0216 H         1 <1>         0.1496
     21 H6          5.5998    1.7428    1.8371 H         1 <1>         0.1584
     22 H7          3.4661   -1.7988    0.6626 H         1 <1>         0.1676
     23 H8          3.3952    2.8577    1.4955 H         1 <1>         0.1471
     24 H9          3.5371    1.8273    2.9370 H         1 <1>         0.1558
     25 H10         1.9464    2.1008    2.1939 H         1 <1>         0.1568
@<TRIPOS>BOND
     1    1    2 ar
     2    1    3 ar
     3    2    4 ar
     4    3    8 ar
     5    4    9 ar
     6    5    6 ar
     7    5    8 ar
     8    6   10 ar
     9    7    9 ar
    10    7   10 ar
    11    8    9 ar
    12   10   12 1
    13   11   12 1
    14   12   13 1
    15   13   14 1
    16   13   15 2
    17    1   16 1
    18    2   17 1
    19    3   18 1
    20    4   19 1
    21    5   20 1
    22    6   21 1
    23    7   22 1
    24   11   23 1
    25   11   24 1
    26   11   25 1
