@<TRIPOS>MOLECULE
AG-690/11081038
   22    24     0
SMALL
USER_CHARGE


@<TRIPOS>ATOM
      1 C1          6.9419   -3.9892    1.2566 C.ar      1 <1>        -0.0845
      2 C2          8.0429   -3.1950    1.5855 C.ar      1 <1>        -0.0866
      3 C3          5.7055   -3.4126    0.9398 C.ar      1 <1>        -0.0661
      4 C4          7.9500   -1.7995    1.6100 C.ar      1 <1>        -0.0722
      5 C5          5.5940   -2.0121    0.9597 C.ar      1 <1>        -0.0370
      6 C6          6.7089   -1.2473    1.2912 C.ar      1 <1>        -0.0372
      7 C7          2.8233    1.0802    0.0114 C.2       1 <1>         0.0413
      8 C8          4.9490    0.0210    0.8564 C.2       1 <1>        -0.0096
      9 C9          4.1741    1.2645    0.6887 C.3       1 <1>         0.0691
     10 N1          2.4557    1.7559   -1.0938 N.2       1 <1>        -0.3131
     11 N2          4.5104   -1.2071    0.6928 N.2       1 <1>        -0.3911
     12 N3          1.8847    0.2262    0.4619 N.2       1 <1>        -0.3137
     13 N4          1.2061    1.2958   -1.3525 N.2       1 <1>        -0.2888
     14 N5          0.8628    0.3768   -0.4180 N.2       1 <1>        -0.2892
     15 N6          6.2675    0.0489    1.2172 N.pl3     1 <1>        -0.3331
     16 H1          7.0457   -5.0712    1.2456 H         1 <1>         0.1215
     17 H2          8.9904   -3.6700    1.8283 H         1 <1>         0.1206
     18 H3          4.8566   -4.0387    0.6847 H         1 <1>         0.1500
     19 H4          8.8037   -1.1816    1.8638 H         1 <1>         0.1337
     20 H5          4.7467    2.0221    0.1136 H         1 <1>         0.1846
     21 H6          4.0050    1.7689    1.6631 H         1 <1>         0.1925
     22 H7          6.8213    0.8760    1.3968 H         1 <1>         0.3089
@<TRIPOS>BOND
     1    1    2 ar
     2    1    3 ar
     3    2    4 ar
     4    3    5 ar
     5    4    6 ar
     6    5    6 ar
     7    5   11 1
     8    6   15 1
     9    7    9 1
    10    7   10 1
    11    7   12 2
    12    8    9 1
    13    8   11 2
    14    8   15 1
    15   10   13 1
    16   12   14 1
    17   13   14 2
    18    1   16 1
    19    2   17 1
    20    3   18 1
    21    4   19 1
    22    9   20 1
    23    9   21 1
    24   15   22 1
