@<TRIPOS>MOLECULE
AI-204/31683014
   27    28     0
SMALL
USER_CHARGE


@<TRIPOS>ATOM
      1 C1          5.7136   -3.5094    1.3597 C.ar      1 <1>        -0.0444
      2 C2          6.9428   -4.1616    1.2562 C.ar      1 <1>        -0.0404
      3 C3          8.0805   -2.0380    1.3954 C.ar      1 <1>        -0.0241
      4 C4          6.8490   -1.3764    1.4761 C.ar      1 <1>        -0.0048
      5 C5          5.6597   -2.1143    1.4676 C.ar      1 <1>        -0.0184
      6 C6          8.1255   -3.4267    1.2769 C.ar      1 <1>        -0.0051
      7 C7          5.7611    0.8578    1.5519 C.2       1 <1>         0.0687
      8 C8          2.2096    0.8909    0.0995 C.2       1 <1>         0.0717
      9 C9          4.4969    0.2750    0.9387 C.3       1 <1>         0.1015
     10 C10         1.4560    1.4100   -2.0825 C.3       1 <1>         0.0318
     11 C11         3.3061    1.2164    1.0829 C.3       1 <1>         0.0882
     12 N1          6.8596    0.0240    1.6253 N.am      1 <1>        -0.2970
     13 O1          5.8417    2.0489    1.8614 O.2       1 <1>        -0.5309
     14 O2          1.2881    0.1109    0.2975 O.2       1 <1>        -0.5205
     15 O3          2.4192    1.6101   -1.0429 O.3       1 <1>        -0.4265
     16 S1          4.0843   -1.3193    1.6903 S.3       1 <1>        -0.1510
     17 Cl1         9.6419   -4.2331    1.1648 Cl        1 <1>        -0.1967
     18 H1          4.8036   -4.1050    1.3613 H         1 <1>         0.1684
     19 H2          6.9617   -5.2451    1.1710 H         1 <1>         0.1658
     20 H3          9.0058   -1.4652    1.4191 H         1 <1>         0.1806
     21 H4          4.6912    0.1176   -0.1293 H         1 <1>         0.2338
     22 H5          1.7161    2.0283   -2.9452 H         1 <1>         0.1373
     23 H6          0.4617    1.6772   -1.7155 H         1 <1>         0.1520
     24 H7          1.4631    0.3576   -2.3759 H         1 <1>         0.1377
     25 H8          3.6401    2.2426    0.9089 H         1 <1>         0.1994
     26 H9          2.9056    1.1310    2.0964 H         1 <1>         0.1946
     27 H10         7.7551    0.4548    1.8396 H         1 <1>         0.3282
@<TRIPOS>BOND
     1    1    2 ar
     2    1    5 ar
     3    2    6 ar
     4    3    4 ar
     5    3    6 ar
     6    4    5 ar
     7    4   12 1
     8    5   16 1
     9    6   17 1
    10    7    9 1
    11    7   12 am
    12    7   13 2
    13    8   11 1
    14    8   14 2
    15    8   15 1
    16    9   11 1
    17    9   16 1
    18   10   15 1
    19    1   18 1
    20    2   19 1
    21    3   20 1
    22    9   21 1
    23   10   22 1
    24   10   23 1
    25   10   24 1
    26   11   25 1
    27   11   26 1
    28   12   27 1
