@<TRIPOS>MOLECULE
AE-848/36651006
   19    20     0
SMALL
USER_CHARGE


@<TRIPOS>ATOM
      1 C1          4.9181    2.4098    2.9319 C.1       1 <1>         0.0467
      2 C2          6.5707   -3.9477    1.1374 C.ar      1 <1>        -0.0871
      3 C3          7.8040   -3.3164    0.9601 C.ar      1 <1>        -0.0882
      4 C4          5.4091   -3.2052    1.3846 C.ar      1 <1>        -0.0669
      5 C5          7.9224   -1.9240    1.0227 C.ar      1 <1>        -0.0698
      6 C6          5.5097   -1.8052    1.4510 C.ar      1 <1>        -0.0269
      7 C7          6.7526   -1.2050    1.2700 C.ar      1 <1>        -0.0251
      8 C8          5.1674    0.2943    1.6364 C.2       1 <1>         0.0739
      9 C9          4.5055    1.5422    1.8270 C.2       1 <1>         0.1391
     10 N1          5.2677    3.0743    3.8168 N.1       1 <1>        -0.3850
     11 N2          4.5374   -0.8583    1.6773 N.2       1 <1>        -0.3610
     12 N3          3.5186    2.1492    1.1848 N.2       1 <1>        -0.2941
     13 N4          6.5039    0.1379    1.3938 N.pl3     1 <1>        -0.3026
     14 O1          3.0186    1.4562    0.1131 O.3       1 <1>        -0.4045
     15 H1          6.5104   -5.0319    1.0833 H         1 <1>         0.1169
     16 H2          8.6894   -3.9179    0.7690 H         1 <1>         0.1165
     17 H3          4.4554   -3.7045    1.5207 H         1 <1>         0.1449
     18 H4          8.8780   -1.4314    0.8852 H         1 <1>         0.1347
     19 H5          7.1885    0.8786    1.3185 H         1 <1>         0.3389
@<TRIPOS>BOND
     1    1    9 1
     2    1   10 3
     3    2    3 ar
     4    2    4 ar
     5    3    5 ar
     6    4    6 ar
     7    5    7 ar
     8    6    7 ar
     9    6   11 1
    10    7   13 1
    11    8    9 1
    12    8   11 2
    13    8   13 1
    14    9   12 2
    15   12   14 1
    16    2   15 1
    17    3   16 1
    18    4   17 1
    19    5   18 1
    20   13   19 1
