@<TRIPOS>MOLECULE
AK-928/13228049
   20    21     0
SMALL
USER_CHARGE


@<TRIPOS>ATOM
      1 C1          7.7390   -2.6959    1.0408 C.ar      1 <1>        -0.1546
      2 C2          6.8978   -3.7072    1.5010 C.ar      1 <1>        -0.0955
      3 C3          7.2065   -1.4650    0.6537 C.ar      1 <1>        -0.0777
      4 C4          5.5223   -3.4906    1.5731 C.ar      1 <1>        -0.1492
      5 C5          5.8258   -1.2423    0.7200 C.ar      1 <1>        -0.1180
      6 C6          4.9857   -2.2627    1.1775 C.ar      1 <1>         0.1290
      7 C7          5.2615    0.0447    0.3373 C.2       1 <1>        -0.0894
      8 C8          3.9310    0.1514    0.3305 C.2       1 <1>        -0.1704
      9 C9          3.3489    1.4363   -0.0621 C.2       1 <1>         0.4849
     10 C10         3.0159   -0.9727    0.6982 C.3       1 <1>         0.1125
     11 O1          3.6795    2.4181    0.6608 O.co2     1 <1>        -0.5000
     12 O2          2.5921    1.3956   -1.0728 O.co2     1 <1>        -0.5000
     13 O3          3.6295   -2.1259    1.2960 O.3       1 <1>        -0.3182
     14 H1          8.8108   -2.8639    0.9878 H         1 <1>         0.1216
     15 H2          7.3133   -4.6631    1.8061 H         1 <1>         0.1243
     16 H3          7.8796   -0.6859    0.3039 H         1 <1>         0.1273
     17 H4          4.8743   -4.2838    1.9363 H         1 <1>         0.1291
     18 H5          5.9227    0.8588    0.0640 H         1 <1>         0.1396
     19 H6          2.2694   -0.6137    1.4155 H         1 <1>         0.1300
     20 H7          2.4752   -1.3129   -0.1924 H         1 <1>         0.0641
@<TRIPOS>BOND
     1    1    2 ar
     2    1    3 ar
     3    2    4 ar
     4    3    5 ar
     5    4    6 ar
     6    5    6 ar
     7    5    7 1
     8    6   13 1
     9    7    8 2
    10    8    9 1
    11    8   10 1
    12    9   11 1
    13    9   12 2
    14   10   13 1
    15    1   14 1
    16    2   15 1
    17    3   16 1
    18    4   17 1
    19    7   18 1
    20   10   19 1
    21   10   20 1
