@<TRIPOS>MOLECULE
AS-662/43412967
   28    29     0
SMALL
USER_CHARGE


@<TRIPOS>ATOM
      1 C1          7.0102   -4.0982    1.3298 C.ar      1 <1>        -0.1483
      2 C2          8.0952   -3.3639    0.8550 C.ar      1 <1>        -0.1002
      3 C3          5.8308   -3.4579    1.7273 C.ar      1 <1>        -0.0630
      4 C4          8.0373   -1.9704    0.7623 C.ar      1 <1>        -0.1334
      5 C5          5.2397    0.1485    1.6562 C.2       1 <1>         0.0704
      6 C6          5.7491   -2.0537    1.6427 C.ar      1 <1>        -0.0925
      7 C7          4.7394   -1.0991    1.9496 C.2       1 <1>        -0.1501
      8 C8          6.8520   -1.3438    1.1632 C.ar      1 <1>         0.0939
      9 C9          1.6973    1.9082   -0.1125 C.2       1 <1>         0.4671
     10 C10         3.3938   -1.3841    2.4882 C.3       1 <1>        -0.0069
     11 C11         1.7462    0.6421    0.7517 C.3       1 <1>        -0.1421
     12 C12         2.2899   -0.6209    0.0976 C.3       1 <1>        -0.0513
     13 N1          6.5143   -0.0093    1.1822 N.pl3     1 <1>        -0.5943
     14 O1          1.1424    2.9172    0.4033 O.co2     1 <1>        -0.5000
     15 O2          2.2421    1.7843   -1.2472 O.co2     1 <1>        -0.5000
     16 S1          2.2449   -2.0298    1.2266 S.3       1 <1>        -0.2868
     17 H1          7.0790   -5.1809    1.3922 H         1 <1>         0.1216
     18 H2          9.0016   -3.8817    0.5518 H         1 <1>         0.1228
     19 H3          4.9934   -4.0445    2.0943 H         1 <1>         0.1233
     20 H4          8.8828   -1.3996    0.3936 H         1 <1>         0.1175
     21 H5          4.8034    1.1344    1.7402 H         1 <1>         0.1730
     22 H6          3.4338   -2.1181    3.3134 H         1 <1>         0.0846
     23 H7          2.9348   -0.4793    2.9261 H         1 <1>         0.0846
     24 H8          2.3010    0.8569    1.6743 H         1 <1>         0.0731
     25 H9          0.7089    0.4485    1.0552 H         1 <1>         0.0726
     26 H10         3.3211   -0.4802   -0.2410 H         1 <1>         0.0788
     27 H11         1.6839   -0.8730   -0.7785 H         1 <1>         0.0790
     28 H12         7.1204    0.7443    0.8887 H         1 <1>         0.4156
@<TRIPOS>BOND
     1    1    2 ar
     2    1    3 ar
     3    2    4 ar
     4    3    6 ar
     5    4    8 ar
     6    5    7 2
     7    5   13 1
     8    6    7 1
     9    6    8 ar
    10    7   10 1
    11    8   13 1
    12    9   11 1
    13    9   14 1
    14    9   15 2
    15   10   16 1
    16   11   12 1
    17   12   16 1
    18    1   17 1
    19    2   18 1
    20    3   19 1
    21    4   20 1
    22    5   21 1
    23   10   22 1
    24   10   23 1
    25   11   24 1
    26   11   25 1
    27   12   26 1
    28   12   27 1
    29   13   28 1
