@<TRIPOS>MOLECULE
AB-337/13036099
   38    40     0
SMALL
USER_CHARGE


@<TRIPOS>ATOM
      1 C1          6.7690   -3.9973    1.0978 C.ar      1 <1>        -0.0993
      2 C2          7.9790   -3.3295    0.9296 C.ar      1 <1>        -0.0956
      3 C3          5.5893   -3.2862    1.3458 C.ar      1 <1>        -0.0926
      4 C4          8.0455   -1.9361    1.0030 C.ar      1 <1>        -0.0868
      5 C5          5.6303   -1.8768    1.4259 C.ar      1 <1>        -0.0857
      6 C6          4.6399   -0.8581    1.6591 C.2       1 <1>        -0.1005
      7 C7          6.8555   -1.2420    1.2507 C.ar      1 <1>        -0.0717
      8 C8          5.2957    0.3711    1.6100 C.2       1 <1>        -0.0898
      9 C9          3.1833   -1.1439    1.8863 C.3       1 <1>        -0.0397
     10 C10         4.8973    1.8142    1.7718 C.3       1 <1>        -0.0313
     11 C11         2.4191   -1.3336    0.5698 C.3       1 <1>        -0.0576
     12 C12         3.4219    2.1615    1.5903 C.3       1 <1>        -0.0514
     13 C13         0.9786   -0.8205    0.5743 C.3       1 <1>        -0.0650
     14 C14         2.9023    1.9029    0.1740 C.3       1 <1>        -0.0631
     15 C15         0.7306    0.6452    0.9529 C.3       1 <1>        -0.0672
     16 C16         1.3836    1.7234    0.0767 C.3       1 <1>        -0.0667
     17 N1          6.6272    0.1039    1.3702 N.pl3     1 <1>        -0.3730
     18 H1          6.7379   -5.0816    1.0357 H         1 <1>         0.1091
     19 H2          8.8848   -3.8987    0.7398 H         1 <1>         0.1182
     20 H3          4.6531   -3.8228    1.4738 H         1 <1>         0.1239
     21 H4          8.9878   -1.4146    0.8723 H         1 <1>         0.1233
     22 H5          3.0913   -2.0548    2.4753 H         1 <1>         0.0699
     23 H6          2.7293   -0.3545    2.4762 H         1 <1>         0.0637
     24 H7          5.2605    2.2028    2.7407 H         1 <1>         0.0752
     25 H8          5.4814    2.4031    1.0333 H         1 <1>         0.0842
     26 H9          2.9594   -0.8157   -0.2319 H         1 <1>         0.0404
     27 H10         2.4265   -2.3983    0.3091 H         1 <1>         0.0456
     28 H11         2.8369    1.6001    2.2981 H         1 <1>         0.0611
     29 H12         3.2920    3.2128    1.7963 H         1 <1>         0.0426
     30 H13         0.5230   -1.0652   -0.4129 H         1 <1>         0.0381
     31 H14         0.3858   -1.4569    1.2760 H         1 <1>         0.0346
     32 H15         3.1434    2.7912   -0.4098 H         1 <1>         0.0377
     33 H16         3.4364    1.0847   -0.2899 H         1 <1>         0.0353
     34 H17        -0.3689    0.8151    0.9342 H         1 <1>         0.0332
     35 H18         0.9861    0.8430    2.0101 H         1 <1>         0.0366
     36 H19         0.8963    2.6858    0.2926 H         1 <1>         0.0336
     37 H20         1.1375    1.4954   -0.9718 H         1 <1>         0.0372
     38 H21         7.3442    0.8170    1.2864 H         1 <1>         0.2934
@<TRIPOS>BOND
     1    1    2 ar
     2    1    3 ar
     3    2    4 ar
     4    3    5 ar
     5    4    7 ar
     6    5    6 1
     7    5    7 ar
     8    6    8 2
     9    6    9 1
    10    7   17 1
    11    8   10 1
    12    8   17 1
    13    9   11 1
    14   10   12 1
    15   11   13 1
    16   12   14 1
    17   13   15 1
    18   14   16 1
    19   15   16 1
    20    1   18 1
    21    2   19 1
    22    3   20 1
    23    4   21 1
    24    9   22 1
    25    9   23 1
    26   10   24 1
    27   10   25 1
    28   11   26 1
    29   11   27 1
    30   12   28 1
    31   12   29 1
    32   13   30 1
    33   13   31 1
    34   14   32 1
    35   14   33 1
    36   15   34 1
    37   15   35 1
    38   16   36 1
    39   16   37 1
    40   17   38 1
