@<TRIPOS>MOLECULE
*****
 15 16 0 0 0
SMALL
GASTEIGER

@<TRIPOS>ATOM
      1 N           1.0679   -0.0034   -0.0733 N.3     1  TRP1       -0.1205
      2 CA          2.5379   -0.0034   -0.0733 C.3     1  TRP1        0.1987
      3 C           3.0320   -1.1796    0.6809 C.2     1  TRP1        0.3822
      4 CB          3.0446   -0.0702   -1.5048 C.3     1  TRP1        0.0586
      5 O           3.7377   -2.0146    0.1226 O.co2   1  TRP1       -0.2440
      6 OXT         2.7061   -1.3327    1.9810 O.co2   1  TRP1       -0.2440
      7 CG          4.5266   -0.0702   -1.5048 C.ar    1  TRP1        0.0004
      8 CD2         5.3870   -1.2522   -1.5054 C.ar    1  TRP1        0.0152
      9 CE2         6.7109   -0.7786   -1.5058 C.ar    1  TRP1        0.0810
     10 CD1         5.2922    0.9816   -1.5045 C.ar    1  TRP1        0.0946
     11 NE1         6.6371    0.5994   -1.5049 N.ar    1  TRP1       -0.2442
     12 CZ2         7.7670   -1.6827   -1.5064 C.ar    1  TRP1        0.0191
     13 CH2         7.5140   -3.0360   -1.5015 C.ar    1  TRP1        0.0015
     14 CZ3         6.2025   -3.5116   -1.5071 C.ar    1  TRP1        0.0001
     15 CE3         5.1411   -2.6285   -1.5055 C.ar    1  TRP1        0.0012
@<TRIPOS>BOND
     1     1     2    1
     2     2     3    1
     3     2     4    1
     4     3     5   ar
     5     3     6   ar
     6     4     7    1
     7     7     8   ar
     8     7    10   ar
     9     8     9   ar
    10    15     8   ar
    11     9    11   ar
    12     9    12   ar
    13    11    10   ar
    14    12    13   ar
    15    13    14   ar
    16    14    15   ar
