@<TRIPOS>MOLECULE
AE-641/00851021
   27    28     0
SMALL
USER_CHARGE


@<TRIPOS>ATOM
      1 C1          5.8629   -3.6784    0.6399 C.ar      1 <1>        -0.1549
      2 C2          7.2172   -3.3786    0.5075 C.ar      1 <1>        -0.1039
      3 C3          4.9565   -2.7129    1.0928 C.ar      1 <1>        -0.0628
      4 C4          7.7085   -2.1084    0.8221 C.ar      1 <1>        -0.1370
      5 C5          5.4284   -1.4252    1.4161 C.ar      1 <1>        -0.0994
      6 C6          4.8122   -0.2337    1.8911 C.2       1 <1>        -0.1457
      7 C7          6.7908   -1.1532    1.2737 C.ar      1 <1>         0.0956
      8 C8          5.7941    0.7206    2.0257 C.2       1 <1>         0.0634
      9 C9          2.8905    1.3105    0.0249 C.2       1 <1>         0.4587
     10 C10         5.7262    2.1243    2.4764 C.3       1 <1>        -0.0909
     11 C11         3.3761   -0.0522    2.1891 C.3       1 <1>        -0.0279
     12 C12         2.5169    0.1312    0.9291 C.3       1 <1>        -0.1474
     13 N1          6.9840    0.1568    1.6506 N.pl3     1 <1>        -0.5965
     14 O1          2.7695    2.4420    0.5781 O.co2     1 <1>        -0.5000
     15 O2          3.2704    1.0297   -1.1445 O.co2     1 <1>        -0.5000
     16 H1          5.5049   -4.6730    0.3881 H         1 <1>         0.1189
     17 H2          7.9036   -4.1438    0.1541 H         1 <1>         0.1199
     18 H3          3.9038   -2.9624    1.1903 H         1 <1>         0.1233
     19 H4          8.7629   -1.8752    0.7181 H         1 <1>         0.1142
     20 H5          5.8700    2.1990    3.5668 H         1 <1>         0.0760
     21 H6          6.4946    2.7520    1.9935 H         1 <1>         0.0617
     22 H7          4.7558    2.5905    2.2338 H         1 <1>         0.0880
     23 H8          2.9844   -0.9125    2.7627 H         1 <1>         0.0682
     24 H9          3.2217    0.8186    2.8529 H         1 <1>         0.0679
     25 H10         1.4669    0.2599    1.2223 H         1 <1>         0.0619
     26 H11         2.5666   -0.7809    0.3204 H         1 <1>         0.0604
     27 H12         7.8770    0.6303    1.6490 H         1 <1>         0.4093
@<TRIPOS>BOND
     1    1    2 ar
     2    1    3 ar
     3    2    4 ar
     4    3    5 ar
     5    4    7 ar
     6    5    6 1
     7    5    7 ar
     8    6    8 2
     9    6   11 1
    10    7   13 1
    11    8   10 1
    12    8   13 1
    13    9   12 1
    14    9   14 1
    15    9   15 2
    16   11   12 1
    17    1   16 1
    18    2   17 1
    19    3   18 1
    20    4   19 1
    21   10   20 1
    22   10   21 1
    23   10   22 1
    24   11   23 1
    25   11   24 1
    26   12   25 1
    27   12   26 1
    28   13   27 1
