@<TRIPOS>MOLECULE
AE-473/30364030
   39    40     0
SMALL
USER_CHARGE


@<TRIPOS>ATOM
      1 C1          5.0980   -3.1031    1.1899 C.ar      1 <1>        -0.0896
      2 C2          6.0873   -4.0930    1.1652 C.ar      1 <1>        -0.0982
      3 C3          7.8335   -2.4309    1.4688 C.ar      1 <1>        -0.0893
      4 C4          5.6844    0.4812    1.6008 C.2       1 <1>        -0.0592
      5 C5          5.4776   -1.7564    1.3565 C.ar      1 <1>        -0.0799
      6 C6          7.4332   -3.7598    1.3026 C.ar      1 <1>        -0.1057
      7 C7          4.7645   -0.5270    1.4269 C.2       1 <1>        -0.0730
      8 C8          6.8338   -1.4520    1.4918 C.ar      1 <1>        -0.0709
      9 C9          8.4663   -4.8373    1.2706 C.3       1 <1>        -0.0396
     10 C10         1.2051   -3.0527   -0.2669 C.3       1 <1>        -0.0632
     11 C11        -0.9034   -1.8532    0.3441 C.3       1 <1>        -0.0624
     12 C12         3.2687   -0.3494    1.3307 C.3       1 <1>         0.0205
     13 C13         1.2183   -0.5389   -0.2027 C.3       1 <1>        -0.0038
     14 C14         0.6235   -1.8178    0.4284 C.3       1 <1>        -0.0488
     15 C15         2.7449   -0.4080   -0.1100 C.3       1 <1>         0.0910
     16 N1          6.9297   -0.0864    1.6384 N.pl3     1 <1>        -0.3670
     17 N2          3.1284    0.8773   -0.7436 N.pl3     1 <1>        -0.1461
     18 O1          4.3333    1.1628   -0.7656 O.3       1 <1>        -0.2227
     19 O2          2.2156    1.5648   -1.2217 O.2       1 <1>        -0.3878
     20 H1          4.0527   -3.3775    1.0802 H         1 <1>         0.1307
     21 H2          5.7901   -5.1312    1.0355 H         1 <1>         0.1156
     22 H3          8.8803   -2.1644    1.5751 H         1 <1>         0.1265
     23 H4          5.5669    1.5513    1.7018 H         1 <1>         0.1790
     24 H5          8.8076   -5.0066    0.2426 H         1 <1>         0.0637
     25 H6          9.3342   -4.5735    1.8879 H         1 <1>         0.0615
     26 H7          8.0684   -5.7803    1.6664 H         1 <1>         0.0632
     27 H8          0.9543   -3.0643   -1.3332 H         1 <1>         0.0316
     28 H9          2.2961   -3.0738   -0.1741 H         1 <1>         0.0334
     29 H10         0.8156   -3.9722    0.1828 H         1 <1>         0.0342
     30 H11        -1.2449   -1.8027   -0.6954 H         1 <1>         0.0344
     31 H12        -1.3532   -1.0204    0.8926 H         1 <1>         0.0351
     32 H13        -1.2954   -2.7771    0.7835 H         1 <1>         0.0344
     33 H14         2.7620   -1.1012    1.9513 H         1 <1>         0.1216
     34 H15         3.0169    0.6179    1.7886 H         1 <1>         0.1178
     35 H16         0.7542    0.3280    0.2848 H         1 <1>         0.0941
     36 H17         0.9147   -0.4954   -1.2579 H         1 <1>         0.0903
     37 H18         0.9112   -1.8709    1.4852 H         1 <1>         0.0442
     38 H19         3.2596   -1.1849   -0.6820 H         1 <1>         0.2078
     39 H20         7.7946    0.4230    1.7561 H         1 <1>         0.2766
@<TRIPOS>BOND
     1    1    2 ar
     2    1    5 ar
     3    2    6 ar
     4    3    6 ar
     5    3    8 ar
     6    4    7 2
     7    4   16 1
     8    5    7 1
     9    5    8 ar
    10    6    9 1
    11    7   12 1
    12    8   16 1
    13   10   14 1
    14   11   14 1
    15   12   15 1
    16   13   14 1
    17   13   15 1
    18   15   17 1
    19   17   18 1
    20   17   19 2
    21    1   20 1
    22    2   21 1
    23    3   22 1
    24    4   23 1
    25    9   24 1
    26    9   25 1
    27    9   26 1
    28   10   27 1
    29   10   28 1
    30   10   29 1
    31   11   30 1
    32   11   31 1
    33   11   32 1
    34   12   33 1
    35   12   34 1
    36   13   35 1
    37   13   36 1
    38   14   37 1
    39   15   38 1
    40   16   39 1
