@<TRIPOS>MOLECULE
AQ-086/11638134
   23    24     0
SMALL
USER_CHARGE


@<TRIPOS>ATOM
      1 C1          7.6947   -3.4106    0.9822 C.ar      1 <1>        -0.1329
      2 C2          6.4146   -3.8758    0.6724 C.ar      1 <1>        -0.1110
      3 C3          7.8947   -2.1051    1.4483 C.ar      1 <1>        -0.0699
      4 C4          5.2899   -3.0566    0.8165 C.ar      1 <1>        -0.1027
      5 C5          5.4201    0.3365    1.9816 C.2       1 <1>         0.2608
      6 C6          6.7759   -1.2682    1.5989 C.ar      1 <1>         0.0410
      7 C7          5.5129   -1.7604    1.2822 C.ar      1 <1>         0.0472
      8 C8          3.3238    0.7285   -0.7712 C.2       1 <1>         0.4663
      9 C9          2.8244   -0.5504   -0.0924 C.3       1 <1>        -0.1729
     10 C10         3.2312   -0.7048    1.3683 C.3       1 <1>         0.1253
     11 N1          6.6985    0.0357    2.0316 N.2       1 <1>        -0.5087
     12 N2          4.6652   -0.7128    1.5364 N.pl3     1 <1>        -0.4820
     13 O1          4.5842    0.8187   -0.8367 O.co2     1 <1>        -0.5000
     14 O2          2.4430    1.5323   -1.1822 O.co2     1 <1>        -0.5000
     15 H1          8.5496   -4.0710    0.8600 H         1 <1>         0.1244
     16 H2          6.2888   -4.8939    0.3123 H         1 <1>         0.1264
     17 H3          8.8933   -1.7534    1.6868 H         1 <1>         0.1239
     18 H4          4.2966   -3.4185    0.5759 H         1 <1>         0.1230
     19 H5          4.9858    1.2891    2.2528 H         1 <1>         0.2113
     20 H6          3.1983   -1.4037   -0.6727 H         1 <1>         0.0722
     21 H7          1.7301   -0.5664   -0.1755 H         1 <1>         0.0710
     22 H8          2.8415   -1.6390    1.7909 H         1 <1>         0.0913
     23 H9          2.8291    0.1129    1.9790 H         1 <1>         0.0987
@<TRIPOS>BOND
     1    1    2 ar
     2    1    3 ar
     3    2    4 ar
     4    3    6 ar
     5    4    7 ar
     6    5   11 2
     7    5   12 1
     8    6    7 ar
     9    6   11 1
    10    7   12 1
    11    8    9 1
    12    8   13 1
    13    8   14 2
    14    9   10 1
    15   10   12 1
    16    1   15 1
    17    2   16 1
    18    3   17 1
    19    4   18 1
    20    5   19 1
    21    9   20 1
    22    9   21 1
    23   10   22 1
    24   10   23 1
