@<TRIPOS>MOLECULE
AJ-292/13893310
   31    33     0
SMALL
USER_CHARGE


@<TRIPOS>ATOM
      1 C1          6.3511   -1.2051    1.6230 C.2       1 <1>        -0.2407
      2 C2          5.0938   -1.4574    1.1675 C.2       1 <1>         0.0747
      3 C3          6.4173    0.1481    1.8792 C.2       1 <1>         0.0782
      4 C4          3.0108    1.3894    0.1672 C.2       1 <1>         0.4526
      5 C5          4.7930   -2.8612    0.8183 C.3       1 <1>        -0.0205
      6 C6          7.1520   -2.5025    1.6610 C.3       1 <1>        -0.0565
      7 C7          6.1287   -3.5601    1.1675 C.3       1 <1>        -0.1580
      8 C8          7.3976   -3.2885    0.4026 C.3       1 <1>        -0.1000
      9 C9          7.5469    0.9397    2.3863 C.3       1 <1>        -0.0631
     10 C10         7.3288   -2.5951   -0.9168 C.3       1 <1>        -0.1136
     11 C11         8.4568   -4.3372    0.4577 C.3       1 <1>        -0.1082
     12 C12         3.0891   -0.0107    0.7538 C.3       1 <1>         0.0823
     13 N1          5.2414    0.7430    1.5961 N.2       1 <1>        -0.2807
     14 N2          4.4470   -0.2734    1.1589 N.pl3     1 <1>        -0.3137
     15 O1          3.3481    2.3206    0.9514 O.co2     1 <1>        -0.5000
     16 O2          2.6026    1.4499   -1.0269 O.co2     1 <1>        -0.5000
     17 H1          3.9866   -3.2621    1.4393 H         1 <1>         0.0888
     18 H2          4.5474   -2.9885   -0.2393 H         1 <1>         0.0806
     19 H3          7.7081   -2.7280    2.5612 H         1 <1>         0.1061
     20 H4          6.0181   -4.4791    1.7256 H         1 <1>         0.1214
     21 H5          8.1728    1.3242    1.5615 H         1 <1>         0.0683
     22 H6          7.2159    1.8102    2.9825 H         1 <1>         0.0671
     23 H7          8.2049    0.3528    3.0539 H         1 <1>         0.0706
     24 H8          7.5284   -3.2885   -1.7488 H         1 <1>         0.0575
     25 H9          8.0667   -1.7806   -0.9846 H         1 <1>         0.0532
     26 H10         6.3352   -2.1530   -1.0897 H         1 <1>         0.0584
     27 H11         8.5628   -4.8568   -0.5077 H         1 <1>         0.0569
     28 H12         8.2304   -5.1016    1.2178 H         1 <1>         0.0592
     29 H13         9.4396   -3.9074    0.7079 H         1 <1>         0.0603
     30 H14         2.4370   -0.1161    1.6277 H         1 <1>         0.0987
     31 H15         2.7895   -0.7697    0.0226 H         1 <1>         0.0951
@<TRIPOS>BOND
     1    1    2 2
     2    1    3 1
     3    1    6 1
     4    2    5 1
     5    2   14 1
     6    3    9 1
     7    3   13 2
     8    4   12 1
     9    4   15 1
    10    4   16 2
    11    5    7 1
    12    6    7 1
    13    6    8 1
    14    7    8 1
    15    8   10 1
    16    8   11 1
    17   12   14 1
    18   13   14 1
    19    5   17 1
    20    5   18 1
    21    6   19 1
    22    7   20 1
    23    9   21 1
    24    9   22 1
    25    9   23 1
    26   10   24 1
    27   10   25 1
    28   10   26 1
    29   11   27 1
    30   11   28 1
    31   11   29 1
    32   12   30 1
    33   12   31 1
