@<TRIPOS>MOLECULE
AI-942/13331527
   23    24     0
SMALL
USER_CHARGE


@<TRIPOS>ATOM
      1 C1          8.1386   -2.8120    1.2731 C.ar      1 <1>        -0.1286
      2 C2          7.3266   -3.9343    1.1900 C.ar      1 <1>        -0.1167
      3 C3          7.5734   -1.5360    1.3437 C.ar      1 <1>        -0.0869
      4 C4          5.9363   -3.8070    1.1760 C.ar      1 <1>        -0.0733
      5 C5          5.3638   -0.1855    1.3930 C.2       1 <1>        -0.1932
      6 C6          6.1669   -1.3735    1.3315 C.ar      1 <1>        -0.0699
      7 C7          5.3698   -2.5193    1.2474 C.ar      1 <1>        -0.1363
      8 C8          4.0152   -0.4488    1.3551 C.2       1 <1>        -0.0381
      9 C9          3.0530    1.5600    0.2656 C.2       1 <1>         0.4683
     10 C10         1.5121   -0.1777    1.3867 C.3       1 <1>        -0.1218
     11 C11         2.8904    0.5108    1.3981 C.3       1 <1>        -0.0721
     12 O1          1.9613    2.0409   -0.1577 O.co2     1 <1>        -0.5000
     13 O2          4.2328    1.8259   -0.0979 O.co2     1 <1>        -0.5000
     14 S1          3.6926   -2.1189    1.2459 S.3       1 <1>         0.0642
     15 H1          9.2192   -2.9235    1.2843 H         1 <1>         0.1194
     16 H2          7.7753   -4.9223    1.1350 H         1 <1>         0.1264
     17 H3          8.2226   -0.6664    1.4075 H         1 <1>         0.1186
     18 H4          5.3086   -4.6913    1.1114 H         1 <1>         0.1255
     19 H5          5.7697    0.8167    1.4624 H         1 <1>         0.1302
     20 H6          1.4032   -0.7928    0.4864 H         1 <1>         0.0509
     21 H7          1.3749   -0.8285    2.2574 H         1 <1>         0.0476
     22 H8          0.6937    0.5507    1.3909 H         1 <1>         0.0718
     23 H9          2.9102    1.1060    2.3368 H         1 <1>         0.0942
@<TRIPOS>BOND
     1    1    2 ar
     2    1    3 ar
     3    2    4 ar
     4    3    6 ar
     5    4    7 ar
     6    5    6 1
     7    5    8 2
     8    6    7 ar
     9    7   14 1
    10    8   11 1
    11    8   14 1
    12    9   11 1
    13    9   12 1
    14    9   13 2
    15   10   11 1
    16    1   15 1
    17    2   16 1
    18    3   17 1
    19    4   18 1
    20    5   19 1
    21   10   20 1
    22   10   21 1
    23   10   22 1
    24   11   23 1
