@<TRIPOS>MOLECULE
AG-205/34696016
   29    31     0
SMALL
USER_CHARGE


@<TRIPOS>ATOM
      1 C1          6.8147   -4.0105    1.0919 C.ar      1 <1>        -0.1006
      2 C2          7.9964   -3.2928    0.9267 C.ar      1 <1>        -0.0968
      3 C3          5.6062   -3.3507    1.3433 C.ar      1 <1>        -0.0941
      4 C4          8.0070   -1.8980    1.0076 C.ar      1 <1>        -0.0883
      5 C5          5.5887   -1.9421    1.4295 C.ar      1 <1>        -0.0874
      6 C6          4.5677   -0.9658    1.6661 C.2       1 <1>        -0.1013
      7 C7          6.7907   -1.2528    1.2596 C.ar      1 <1>        -0.0729
      8 C8          5.1765    0.2755    1.6335 C.2       1 <1>        -0.0889
      9 C9          3.1153   -1.2074    1.9095 C.3       1 <1>        -0.0406
     10 C10         4.5900    1.6313    1.8162 C.3       1 <1>        -0.0300
     11 C11         2.2037   -0.4185    0.9674 C.3       1 <1>        -0.0561
     12 C12         3.3975    1.8755    0.8909 C.3       1 <1>        -0.0506
     13 C13         2.1377    1.0846    1.2601 C.3       1 <1>        -0.0593
     14 N1          6.5116    0.0868    1.3894 N.pl3     1 <1>        -0.3711
     15 H1          6.8295   -5.0951    1.0254 H         1 <1>         0.1076
     16 H2          8.9247   -3.8234    0.7317 H         1 <1>         0.1168
     17 H3          4.6947   -3.9282    1.4696 H         1 <1>         0.1223
     18 H4          8.9282   -1.3393    0.8798 H         1 <1>         0.1220
     19 H5          2.8960   -2.2740    1.7804 H         1 <1>         0.0636
     20 H6          2.8774   -0.9679    2.9533 H         1 <1>         0.0643
     21 H7          4.2898    1.7622    2.8626 H         1 <1>         0.0773
     22 H8          5.3514    2.3942    1.6100 H         1 <1>         0.0876
     23 H9          2.4973   -0.5823   -0.0770 H         1 <1>         0.0435
     24 H10         1.1876   -0.8195    1.0732 H         1 <1>         0.0454
     25 H11         3.1461    2.9422    0.9454 H         1 <1>         0.0498
     26 H12         3.6722    1.6728   -0.1518 H         1 <1>         0.0507
     27 H13         1.3059    1.4985    0.6758 H         1 <1>         0.0404
     28 H14         1.8850    1.2515    2.3143 H         1 <1>         0.0390
     29 H15         7.1966    0.8262    1.3138 H         1 <1>         0.3072
@<TRIPOS>BOND
     1    1    2 ar
     2    1    3 ar
     3    2    4 ar
     4    3    5 ar
     5    4    7 ar
     6    5    6 1
     7    5    7 ar
     8    6    8 2
     9    6    9 1
    10    7   14 1
    11    8   10 1
    12    8   14 1
    13    9   11 1
    14   10   12 1
    15   11   13 1
    16   12   13 1
    17    1   15 1
    18    2   16 1
    19    3   17 1
    20    4   18 1
    21    9   19 1
    22    9   20 1
    23   10   21 1
    24   10   22 1
    25   11   23 1
    26   11   24 1
    27   12   25 1
    28   12   26 1
    29   13   27 1
    30   13   28 1
    31   14   29 1
