@<TRIPOS>MOLECULE
AH-262/10804012
   35    36     0
SMALL
USER_CHARGE


@<TRIPOS>ATOM
      1 C1          6.5638   -4.1163    0.9045 C.ar      1 <1>        -0.0985
      2 C2          7.8207   -3.5222    0.8096 C.ar      1 <1>        -0.0949
      3 C3          5.4289   -3.3497    1.1930 C.ar      1 <1>        -0.0917
      4 C4          7.9840   -2.1470    0.9993 C.ar      1 <1>        -0.0867
      5 C5          5.3882    0.2609    1.7614 C.2       1 <1>        -0.0661
      6 C6          5.5689   -1.9612    1.3882 C.ar      1 <1>        -0.0831
      7 C7          4.6627   -0.9058    1.6876 C.2       1 <1>        -0.0883
      8 C8          6.8407   -1.3931    1.2870 C.ar      1 <1>        -0.0709
      9 C9          2.5179    0.5112   -1.4433 C.2       1 <1>         0.0220
     10 C10         2.7300    0.9166   -3.9269 C.3       1 <1>        -0.0380
     11 C11         0.8464   -0.3122    1.2066 C.3       1 <1>        -0.0471
     12 C12         3.2043   -1.0285    1.8872 C.3       1 <1>        -0.0199
     13 C13         2.8600   -0.0868   -2.7954 C.3       1 <1>         0.0140
     14 C14         2.3437   -0.1308    0.9570 C.3       1 <1>        -0.0070
     15 N1          6.7008   -0.0432    1.5181 N.pl3     1 <1>        -0.3678
     16 N2          2.6169   -0.4364   -0.4505 N.am      1 <1>        -0.3516
     17 O1          2.2011    1.6878   -1.2898 O.2       1 <1>        -0.5438
     18 H1          6.4620   -5.1876    0.7524 H         1 <1>         0.1105
     19 H2          8.6886   -4.1366    0.5847 H         1 <1>         0.1193
     20 H3          4.4559   -3.8277    1.2627 H         1 <1>         0.1249
     21 H4          8.9629   -1.6855    0.9263 H         1 <1>         0.1236
     22 H5          5.0892    1.2803    1.9634 H         1 <1>         0.1764
     23 H6          1.7103    1.3114   -3.9874 H         1 <1>         0.0492
     24 H7          3.4134    1.7568   -3.7718 H         1 <1>         0.0487
     25 H8          2.9692    0.4554   -4.8909 H         1 <1>         0.0486
     26 H9          0.5470   -1.3546    1.0477 H         1 <1>         0.0473
     27 H10         0.2470    0.3161    0.5379 H         1 <1>         0.0452
     28 H11         0.5836   -0.0552    2.2378 H         1 <1>         0.0501
     29 H12         2.8679   -2.0801    1.7731 H         1 <1>         0.0829
     30 H13         2.9597   -0.7806    2.9404 H         1 <1>         0.0889
     31 H14         3.8878   -0.4657   -2.7570 H         1 <1>         0.1110
     32 H15         2.1922   -0.9359   -2.9792 H         1 <1>         0.1121
     33 H16         2.5990    0.9217    1.1264 H         1 <1>         0.1096
     34 H17         7.4582    0.6260    1.5093 H         1 <1>         0.2946
     35 H18         2.8869   -1.3733   -0.6997 H         1 <1>         0.2760
@<TRIPOS>BOND
     1    1    2 ar
     2    1    3 ar
     3    2    4 ar
     4    3    6 ar
     5    4    8 ar
     6    5    7 2
     7    5   15 1
     8    6    7 1
     9    6    8 ar
    10    7   12 1
    11    8   15 1
    12    9   13 1
    13    9   16 am
    14    9   17 2
    15   10   13 1
    16   11   14 1
    17   12   14 1
    18   14   16 1
    19    1   18 1
    20    2   19 1
    21    3   20 1
    22    4   21 1
    23    5   22 1
    24   10   23 1
    25   10   24 1
    26   10   25 1
    27   11   26 1
    28   11   27 1
    29   11   28 1
    30   12   29 1
    31   12   30 1
    32   13   31 1
    33   13   32 1
    34   14   33 1
    35   15   34 1
    36   16   35 1
