@<TRIPOS>MOLECULE
AN-652/40071745
   28    29     0
SMALL
USER_CHARGE


@<TRIPOS>ATOM
      1 C1          8.1154   -3.4443    1.2379 C.ar      1 <1>        -0.0918
      2 C2          6.9805   -4.1820    1.5611 C.ar      1 <1>        -0.0908
      3 C3          8.0120   -2.0744    0.9943 C.ar      1 <1>        -0.0857
      4 C4          5.7380   -3.5530    1.6420 C.ar      1 <1>        -0.0812
      5 C5          6.6468   -0.0467    0.8292 C.ar      1 <1>        -0.0676
      6 C6          5.4042    0.5825    0.9101 C.ar      1 <1>        -0.0310
      7 C7          4.3725   -1.5253    1.4769 C.ar      1 <1>        -0.0203
      8 C8          6.7693   -1.4246    1.0712 C.ar      1 <1>        -0.0739
      9 C9          5.6152   -2.1750    1.3998 C.ar      1 <1>        -0.0620
     10 C10         4.2692   -0.1554    1.2333 C.ar      1 <1>         0.0753
     11 C11         0.0898    0.5982    1.9248 C.3       1 <1>         0.0148
     12 C12         0.7521    1.4765    0.8869 C.3       1 <1>         0.1249
     13 O1          2.6209    1.5236   -0.9362 O.2       1 <1>        -0.4630
     14 O2          1.5346   -0.6913   -0.3404 O.2       1 <1>        -0.4630
     15 O3          3.0578    0.4600    1.3119 O.3       1 <1>        -0.2629
     16 S1          2.0455    0.6125    0.0329 S.o2      1 <1>        -0.1243
     17 H1          9.0822   -3.9348    1.1745 H         1 <1>         0.1236
     18 H2          7.0614   -5.2485    1.7510 H         1 <1>         0.1238
     19 H3          8.9118   -1.5168    0.7427 H         1 <1>         0.1309
     20 H4          4.8641   -4.1497    1.8956 H         1 <1>         0.1349
     21 H5          7.5205    0.5497    0.5742 H         1 <1>         0.1467
     22 H6          5.3294    1.6494    0.7188 H         1 <1>         0.1487
     23 H7          3.4752   -2.0878    1.7287 H         1 <1>         0.1742
     24 H8         -0.3599   -0.2799    1.4522 H         1 <1>         0.0860
     25 H9          0.8160    0.2538    2.6685 H         1 <1>         0.0809
     26 H10        -0.6971    1.1433    2.4560 H         1 <1>         0.0808
     27 H11         1.2046    2.3572    1.3508 H         1 <1>         0.2444
     28 H12         0.0309    1.8038    0.1333 H         1 <1>         0.2462
@<TRIPOS>BOND
     1    1    2 ar
     2    1    3 ar
     3    2    4 ar
     4    3    8 ar
     5    4    9 ar
     6    5    6 ar
     7    5    8 ar
     8    6   10 ar
     9    7    9 ar
    10    7   10 ar
    11    8    9 ar
    12   10   15 1
    13   11   12 1
    14   12   16 1
    15   13   16 2
    16   14   16 2
    17   15   16 1
    18    1   17 1
    19    2   18 1
    20    3   19 1
    21    4   20 1
    22    5   21 1
    23    6   22 1
    24    7   23 1
    25   11   24 1
    26   11   25 1
    27   11   26 1
    28   12   27 1
    29   12   28 1
