@<TRIPOS>MOLECULE
AG-690/36467004
   26    27     0
SMALL
USER_CHARGE


@<TRIPOS>ATOM
      1 C1          6.6573   -3.9685    1.1211 C.ar      1 <1>        -0.0925
      2 C2          7.8835   -3.3302    0.9453 C.ar      1 <1>        -0.0911
      3 C3          5.4944   -3.2299    1.3683 C.ar      1 <1>        -0.0762
      4 C4          7.9872   -1.9378    1.0105 C.ar      1 <1>        -0.0800
      5 C5          5.2992    0.4114    1.6207 C.2       1 <1>        -0.0107
      6 C6          5.5743   -1.8249    1.4385 C.ar      1 <1>        -0.0383
      7 C7          4.6266   -0.7881    1.6660 C.2       1 <1>         0.0264
      8 C8          6.8164   -1.2125    1.2583 C.ar      1 <1>        -0.0509
      9 C9          3.2165   -0.9132    1.9037 C.2       1 <1>         0.1258
     10 C10         2.2085   -0.2575    0.9562 C.2       1 <1>         0.1781
     11 C11         0.9161   -0.7054   -0.9457 C.3       1 <1>         0.0433
     12 N1          2.7159   -1.5912    2.9272 N.2       1 <1>        -0.2638
     13 N2          6.6194    0.1451    1.3741 N.pl3     1 <1>        -0.3451
     14 O1          1.8089    0.8761    1.1352 O.2       1 <1>        -0.4497
     15 O2          1.3192   -1.5918    2.9697 O.3       1 <1>        -0.3548
     16 O3          1.8845   -1.1553    0.0056 O.3       1 <1>        -0.3756
     17 H1          6.6021   -5.0526    1.0652 H         1 <1>         0.1158
     18 H2          8.7744   -3.9233    0.7546 H         1 <1>         0.1225
     19 H3          4.5461   -3.7422    1.5027 H         1 <1>         0.1370
     20 H4          8.9425   -1.4425    0.8737 H         1 <1>         0.1289
     21 H5          4.9601    1.4311    1.7412 H         1 <1>         0.2312
     22 H6          0.7207   -1.4991   -1.6710 H         1 <1>         0.1237
     23 H7          1.2919    0.1849   -1.4563 H         1 <1>         0.1466
     24 H8         -0.0098   -0.4586   -0.4209 H         1 <1>         0.1237
     25 H9          7.3447    0.8438    1.2895 H         1 <1>         0.3121
     26 H10         1.1000   -1.0604    2.1857 H         1 <1>         0.4138
@<TRIPOS>BOND
     1    1    2 ar
     2    1    3 ar
     3    2    4 ar
     4    3    6 ar
     5    4    8 ar
     6    5    7 2
     7    5   13 1
     8    6    7 1
     9    6    8 ar
    10    7    9 1
    11    8   13 1
    12    9   10 1
    13    9   12 2
    14   10   14 2
    15   10   16 1
    16   11   16 1
    17   12   15 1
    18    1   17 1
    19    2   18 1
    20    3   19 1
    21    4   20 1
    22    5   21 1
    23   11   22 1
    24   11   23 1
    25   11   24 1
    26   13   25 1
    27   15   26 1
