@<TRIPOS>MOLECULE
AI-204/31682043
   30    31     0
SMALL
USER_CHARGE


@<TRIPOS>ATOM
      1 C1          8.0762   -3.2153    0.7024 C.ar      1 <1>        -0.0824
      2 C2          7.0290   -4.0622    1.0565 C.ar      1 <1>        -0.0843
      3 C3          7.9208   -1.8336    0.8089 C.ar      1 <1>        -0.0679
      4 C4          5.8268   -3.5291    1.5230 C.ar      1 <1>        -0.0684
      5 C5          6.7085   -1.2924    1.2542 C.ar      1 <1>        -0.0270
      6 C6          5.6592   -2.1423    1.6220 C.ar      1 <1>        -0.0352
      7 C7          5.4621    0.8260    1.6282 C.2       1 <1>         0.0902
      8 C8          1.6820    0.4302    1.2678 C.2       1 <1>         0.1031
      9 C9          4.1416    0.0946    1.4412 C.3       1 <1>         0.1006
     10 C10         2.8392    0.8551    3.4505 C.3       1 <1>        -0.0127
     11 C11         0.3125   -1.4835    1.0172 C.3       1 <1>         0.0317
     12 C12         2.9570    0.9209    1.9304 C.3       1 <1>         0.0795
     13 N1          6.6137    0.1077    1.3728 N.am      1 <1>        -0.3007
     14 O1          5.5047    2.0324    1.8808 O.2       1 <1>        -0.4974
     15 O2          0.9587    1.1119    0.5532 O.2       1 <1>        -0.4845
     16 O3          1.4807   -0.8832    1.5860 O.3       1 <1>        -0.4055
     17 S1          4.1501   -1.4956    2.3062 S.3       1 <1>        -0.1564
     18 H1          9.0151   -3.6308    0.3488 H         1 <1>         0.1334
     19 H2          7.1518   -5.1386    0.9802 H         1 <1>         0.1273
     20 H3          8.7506   -1.1863    0.5354 H         1 <1>         0.1389
     21 H4          5.0296   -4.2101    1.8121 H         1 <1>         0.1460
     22 H5          4.0179   -0.0927    0.3676 H         1 <1>         0.2064
     23 H6          2.6952   -0.1774    3.7853 H         1 <1>         0.0620
     24 H7          1.9858    1.4466    3.8001 H         1 <1>         0.0740
     25 H8          3.7369    1.2486    3.9405 H         1 <1>         0.0689
     26 H9          0.2477   -2.5274    1.3334 H         1 <1>         0.1173
     27 H10         0.3653   -1.4243   -0.0727 H         1 <1>         0.1183
     28 H11        -0.5706   -0.9437    1.3671 H         1 <1>         0.1402
     29 H12         3.0989    1.9725    1.6526 H         1 <1>         0.1612
     30 H13         7.4805    0.6332    1.2954 H         1 <1>         0.3234
@<TRIPOS>BOND
     1    1    2 ar
     2    1    3 ar
     3    2    4 ar
     4    3    5 ar
     5    4    6 ar
     6    5    6 ar
     7    5   13 1
     8    6   17 1
     9    7    9 1
    10    7   13 am
    11    7   14 2
    12    8   12 1
    13    8   15 2
    14    8   16 1
    15    9   12 1
    16    9   17 1
    17   10   12 1
    18   11   16 1
    19    1   18 1
    20    2   19 1
    21    3   20 1
    22    4   21 1
    23    9   22 1
    24   10   23 1
    25   10   24 1
    26   10   25 1
    27   11   26 1
    28   11   27 1
    29   11   28 1
    30   12   29 1
    31   13   30 1
