@<TRIPOS>MOLECULE
AE-848/00990055
   21    21     0
SMALL
USER_CHARGE


@<TRIPOS>ATOM
      1 C1          7.5393   -3.2949    0.6959 C.ar      1 <1>        -0.1354
      2 C2          6.3450   -3.7227    1.2753 C.ar      1 <1>        -0.1002
      3 C3          7.8018   -1.9313    0.5646 C.ar      1 <1>        -0.1059
      4 C4          5.4127   -2.7869    1.7236 C.ar      1 <1>        -0.1336
      5 C5          6.8696   -0.9954    1.0128 C.ar      1 <1>        -0.1071
      6 C6          5.6751   -1.4232    1.5923 C.ar      1 <1>        -0.0717
      7 C7          2.8141    1.6691    0.0583 C.2       1 <1>         0.4686
      8 C8          2.1813    0.5060    0.8324 C.3       1 <1>        -0.1451
      9 C9          3.0740   -0.6901    1.1345 C.3       1 <1>        -0.0705
     10 O1          3.7327    2.3006    0.6494 O.co2     1 <1>        -0.5000
     11 O2          2.3378    1.8425   -1.1004 O.co2     1 <1>        -0.5000
     12 S1          4.4837   -0.2276    2.1644 S.3       1 <1>        -0.1469
     13 H1          8.2648   -4.0241    0.3470 H         1 <1>         0.1205
     14 H2          6.1402   -4.7845    1.3773 H         1 <1>         0.1235
     15 H3          8.7321   -1.5990    0.1133 H         1 <1>         0.1232
     16 H4          4.4874   -3.1396    2.1723 H         1 <1>         0.1297
     17 H5          7.0918    0.0632    0.9016 H         1 <1>         0.1250
     18 H6          1.7389    0.8895    1.7609 H         1 <1>         0.0762
     19 H7          1.3435    0.1575    0.2141 H         1 <1>         0.0762
     20 H8          3.4513   -1.1464    0.2141 H         1 <1>         0.0887
     21 H9          2.5006   -1.4520    1.6723 H         1 <1>         0.0888
@<TRIPOS>BOND
     1    1    2 ar
     2    1    3 ar
     3    2    4 ar
     4    3    5 ar
     5    4    6 ar
     6    5    6 ar
     7    6   12 1
     8    7    8 1
     9    7   10 1
    10    7   11 2
    11    8    9 1
    12    9   12 1
    13    1   13 1
    14    2   14 1
    15    3   15 1
    16    4   16 1
    17    5   17 1
    18    8   18 1
    19    8   19 1
    20    9   20 1
    21    9   21 1
