@<TRIPOS>MOLECULE
AN-648/41701062
   29    31     0
SMALL
USER_CHARGE


@<TRIPOS>ATOM
      1 C1          8.0623   -3.5633    0.7084 C.ar      1 <1>        -0.0965
      2 C2          6.8633   -4.2545    0.8550 C.ar      1 <1>        -0.0964
      3 C3          8.1061   -2.1863    0.9278 C.ar      1 <1>        -0.0913
      4 C4          5.7034   -3.5711    1.2215 C.ar      1 <1>        -0.0903
      5 C5          6.9743   -0.0963    1.5222 C.ar      1 <1>        -0.0874
      6 C6          5.8145    0.5871    1.8888 C.ar      1 <1>        -0.0860
      7 C7          4.5715   -1.4811    1.8158 C.ar      1 <1>        -0.0804
      8 C8          6.9486   -1.4824    1.2973 C.ar      1 <1>        -0.0855
      9 C9          5.7292   -2.1851    1.4463 C.ar      1 <1>        -0.0835
     10 C10         4.6155   -0.1040    2.0353 C.ar      1 <1>        -0.0714
     11 C11         1.4606   -0.0976    1.0446 C.2       1 <1>         0.1205
     12 C12         2.5901    1.9148    0.4796 C.2       1 <1>         0.1685
     13 C13         0.6427    0.3070   -0.1500 C.3       1 <1>         0.1239
     14 C14         3.3766    0.6283    2.4273 C.3       1 <1>         0.0548
     15 N1          2.4777    0.8174    1.3172 N.am      1 <1>        -0.2512
     16 O1          1.2284   -1.1230    1.6787 O.2       1 <1>        -0.4804
     17 O2          3.4077    2.8219    0.5347 O.2       1 <1>        -0.4401
     18 S1          1.3463    1.8521   -0.7540 S.3       1 <1>        -0.0360
     19 H1          8.9645   -4.0961    0.4228 H         1 <1>         0.1178
     20 H2          6.8298   -5.3264    0.6834 H         1 <1>         0.1170
     21 H3          9.0548   -1.6670    0.8077 H         1 <1>         0.1253
     22 H4          4.7771   -4.1317    1.3300 H         1 <1>         0.1267
     23 H5          7.9006    0.4643    1.4133 H         1 <1>         0.1287
     24 H6          5.8574    1.6599    2.0575 H         1 <1>         0.1273
     25 H7          3.6270   -2.0099    1.9341 H         1 <1>         0.1378
     26 H8          0.7092   -0.4660   -0.9196 H         1 <1>         0.2074
     27 H9         -0.3972    0.4561    0.1506 H         1 <1>         0.2080
     28 H10         2.8264    0.0855    3.2088 H         1 <1>         0.1575
     29 H11         3.6078    1.6221    2.8345 H         1 <1>         0.1553
@<TRIPOS>BOND
     1    1    2 ar
     2    1    3 ar
     3    2    4 ar
     4    3    8 ar
     5    4    9 ar
     6    5    6 ar
     7    5    8 ar
     8    6   10 ar
     9    7    9 ar
    10    7   10 ar
    11    8    9 ar
    12   10   14 1
    13   11   13 1
    14   11   15 am
    15   11   16 2
    16   12   15 am
    17   12   17 2
    18   12   18 1
    19   13   18 1
    20   14   15 1
    21    1   19 1
    22    2   20 1
    23    3   21 1
    24    4   22 1
    25    5   23 1
    26    6   24 1
    27    7   25 1
    28   13   26 1
    29   13   27 1
    30   14   28 1
    31   14   29 1
