@<TRIPOS>MOLECULE
AN-858/37395001
   38    40     0
SMALL
USER_CHARGE


@<TRIPOS>ATOM
      1 C1          6.7756   -3.9592    1.0657 C.ar      1 <1>        -0.0990
      2 C2          7.9663   -3.2372    1.1005 C.ar      1 <1>        -0.0956
      3 C3          5.5399   -3.3049    1.1209 C.ar      1 <1>        -0.0890
      4 C4          7.9604   -1.8427    1.1905 C.ar      1 <1>        -0.0848
      5 C5          5.5058   -1.8982    1.2136 C.ar      1 <1>        -0.0802
      6 C6          4.4629   -0.9279    1.2898 C.2       1 <1>        -0.0871
      7 C7          6.7180   -1.2005    1.2452 C.ar      1 <1>        -0.0687
      8 C8          5.0638    0.3124    1.3495 C.2       1 <1>        -0.0824
      9 C9          2.1647    0.4851   -0.4694 C.2       1 <1>         0.0868
     10 C10         4.3833    1.6310    1.3797 C.3       1 <1>        -0.0167
     11 C11         2.8903    1.4501    1.7080 C.3       1 <1>        -0.0099
     12 C12         2.9709   -1.1113    1.3024 C.3       1 <1>        -0.0053
     13 C13         2.2417    0.2331    1.0111 C.3       1 <1>         0.0476
     14 C14         2.5061   -1.6862    2.6461 C.3       1 <1>        -0.0471
     15 C15         3.0487   -1.8221   -2.4084 C.3       1 <1>        -0.0313
     16 C16         1.9129   -0.8214   -2.4222 C.3       1 <1>         0.0229
     17 N1          6.4183    0.1415    1.3307 N.pl3     1 <1>        -0.3702
     18 O1          2.6233    1.4767   -1.0204 O.2       1 <1>        -0.4956
     19 O2          1.5147   -0.5495   -1.0748 O.3       1 <1>        -0.4111
     20 H1          6.8047   -5.0433    0.9949 H         1 <1>         0.1067
     21 H2          8.9152   -3.7654    1.0564 H         1 <1>         0.1158
     22 H3          4.6202   -3.8826    1.0918 H         1 <1>         0.1320
     23 H4          8.8886   -1.2817    1.2159 H         1 <1>         0.1285
     24 H5          4.8459    2.2942    2.1191 H         1 <1>         0.0895
     25 H6          4.4879    2.1098    0.3987 H         1 <1>         0.0908
     26 H7          2.7808    1.3278    2.7936 H         1 <1>         0.0824
     27 H8          2.3555    2.3708    1.4443 H         1 <1>         0.0761
     28 H9          2.7074   -1.8355    0.5196 H         1 <1>         0.0962
     29 H10         1.1979    0.1613    1.3433 H         1 <1>         0.1490
     30 H11         2.7532   -0.9904    3.4433 H         1 <1>         0.0473
     31 H12         3.0045   -2.6348    2.8265 H         1 <1>         0.0460
     32 H13         1.4309   -1.8414    2.6218 H         1 <1>         0.0411
     33 H14         3.9102   -1.4269   -1.8630 H         1 <1>         0.0575
     34 H15         2.7320   -2.7590   -1.9384 H         1 <1>         0.0575
     35 H16         3.3592   -2.0674   -3.4295 H         1 <1>         0.0645
     36 H17         1.0545   -1.2227   -2.9691 H         1 <1>         0.1193
     37 H18         2.2311    0.1144   -2.8914 H         1 <1>         0.1193
     38 H19         7.1019    0.8858    1.3592 H         1 <1>         0.2968
@<TRIPOS>BOND
     1    1    2 ar
     2    1    3 ar
     3    2    4 ar
     4    3    5 ar
     5    4    7 ar
     6    5    6 1
     7    5    7 ar
     8    6    8 2
     9    6   12 1
    10    7   17 1
    11    8   10 1
    12    8   17 1
    13    9   13 1
    14    9   18 2
    15    9   19 1
    16   10   11 1
    17   11   13 1
    18   12   13 1
    19   12   14 1
    20   15   16 1
    21   16   19 1
    22    1   20 1
    23    2   21 1
    24    3   22 1
    25    4   23 1
    26   10   24 1
    27   10   25 1
    28   11   26 1
    29   11   27 1
    30   12   28 1
    31   13   29 1
    32   14   30 1
    33   14   31 1
    34   14   32 1
    35   15   33 1
    36   15   34 1
    37   15   35 1
    38   16   36 1
    39   16   37 1
    40   17   38 1
