@<TRIPOS>MOLECULE
AF-399/09976012
 34 36 0 0 0
SMALL
USER_CHARGES

@<TRIPOS>ATOM
      1 C           6.7911   -4.0398    1.0936 C.ar    1  LIG1       -0.1314
      2 C           7.9796   -3.3312    0.9285 C.ar    1  LIG1       -0.0897
      3 C           5.5873   -3.3711    1.3436 C.ar    1  LIG1       -0.0729
      4 C           8.0038   -1.9358    1.0077 C.ar    1  LIG1       -0.1297
      5 C           5.1846    0.2504    1.6310 C.ar    1  LIG1        0.1010
      6 C           5.5870   -1.9646    1.4279 C.ar    1  LIG1       -0.0962
      7 C           4.5812   -0.9856    1.6620 C.ar    1  LIG1       -0.2376
      8 C           6.7928   -1.2808    1.2583 C.ar    1  LIG1        0.0934
      9 C           2.7595    1.7661    0.1106 C.2     1  LIG1        0.4607
     10 C           0.0392   -0.1308    0.1662 C.3     1  LIG1       -0.1408
     11 C           0.5151    1.0963    0.9239 C.3     1  LIG1       -0.1166
     12 C           0.8789   -1.2390    0.7597 C.3     1  LIG1       -0.0056
     13 C           2.0176    0.8945    1.1020 C.3     1  LIG1       -0.0232
     14 C           3.1228   -1.2427    1.9025 C.3     1  LIG1        0.0926
     15 N           6.5185    0.0621    1.3867 N.ar    1  LIG1       -0.5847
     16 N           2.2385   -0.5961    0.8854 N.4     1  LIG1       -0.3797
     17 O           2.4828    1.5577   -1.1031 O.co2   1  LIG1       -0.5000
     18 O           3.5624    2.5921    0.6286 O.co2   1  LIG1       -0.5000
     19 H           6.7975   -5.1245    1.0270 H       1  LIG1        0.1293
     20 H           8.9031   -3.8709    0.7351 H       1  LIG1        0.1300
     21 H           4.6691   -3.9379    1.4690 H       1  LIG1        0.1373
     22 H           8.9296   -1.3852    0.8803 H       1  LIG1        0.1233
     23 H           4.7854    1.2472    1.7592 H       1  LIG1        0.1768
     24 H          -1.0325   -0.3087    0.2903 H       1  LIG1        0.1034
     25 H           0.2475   -0.0222   -0.9049 H       1  LIG1        0.0928
     26 H           0.2521    2.0206    0.3990 H       1  LIG1        0.0912
     27 H           0.0319    1.1288    1.9085 H       1  LIG1        0.1127
     28 H           0.5386   -1.5165    1.7632 H       1  LIG1        0.1170
     29 H           0.9665   -2.1201    0.1187 H       1  LIG1        0.1195
     30 H           2.3285    1.1541    2.1199 H       1  LIG1        0.1380
     31 H           2.9001   -2.3148    1.8766 H       1  LIG1        0.1232
     32 H           2.8096   -0.8605    2.8801 H       1  LIG1        0.1295
     33 H           7.2034    0.8016    1.3114 H       1  LIG1        0.4225
     34 H           2.7011   -0.7074   -0.0275 H       1  LIG1        0.4318
@<TRIPOS>BOND
     1     1     2   ar
     2     1     3   ar
     3     2     4   ar
     4     3     6   ar
     5     4     8   ar
     6     5     7   ar
     7     5    15   ar
     8     6     7   ar
     9     6     8   ar
    10     7    14    1
    11     8    15   ar
    12     9    13    1
    13     9    17   ar
    14     9    18   ar
    15    10    11    1
    16    10    12    1
    17    11    13    1
    18    12    16    1
    19    13    16    1
    20    14    16    1
    21     1    19    1
    22     2    20    1
    23     3    21    1
    24     4    22    1
    25     5    23    1
    26    10    24    1
    27    10    25    1
    28    11    26    1
    29    11    27    1
    30    12    28    1
    31    12    29    1
    32    13    30    1
    33    14    31    1
    34    14    32    1
    35    15    33    1
    36    16    34    1
