@<TRIPOS>MOLECULE
AR-360/42760356
 42 44 0 0 0
SMALL
USER_CHARGES

@<TRIPOS>ATOM
      1 C           1.5716    4.6277    6.5964 C.ar    1  LIG1       -0.1116
      2 C           1.9940    7.5008   -2.8263 C.ar    1  LIG1       -0.1093
      3 C           0.2675    0.7887   -1.4821 C.ar    1  LIG1       -0.1090
      4 C           2.5363    3.6696    6.2842 C.ar    1  LIG1       -0.1100
      5 C           0.8329    5.2310    5.5785 C.ar    1  LIG1       -0.1102
      6 C           0.8661    6.9461   -2.2214 C.ar    1  LIG1       -0.1066
      7 C           3.2621    7.0031   -2.5264 C.ar    1  LIG1       -0.1038
      8 C           1.6051    0.9728   -1.8321 C.ar    1  LIG1       -0.1075
      9 C          -0.3723    1.7163   -0.6600 C.ar    1  LIG1       -0.1061
     10 C           2.7623    3.3150    4.9543 C.ar    1  LIG1       -0.1073
     11 C           1.0589    4.8763    4.2486 C.ar    1  LIG1       -0.1076
     12 C           1.0064    5.8939   -1.3164 C.ar    1  LIG1       -0.0915
     13 C           3.4024    5.9509   -1.6215 C.ar    1  LIG1       -0.0870
     14 C           2.3030    2.0844   -1.3598 C.ar    1  LIG1       -0.0984
     15 C           0.3254    2.8279   -0.1877 C.ar    1  LIG1       -0.0960
     16 C           2.0236    3.9184    3.9364 C.ar    1  LIG1       -0.1165
     17 C           2.2746    5.3962   -1.0165 C.ar    1  LIG1       -0.0661
     18 C           1.6631    3.0120   -0.5376 C.ar    1  LIG1       -0.0767
     19 C           2.2649    3.5399    2.5141 C.3     1  LIG1       -0.0365
     20 C           2.0182    4.6125    1.4417 C.3     1  LIG1       -0.0208
     21 C           2.4302    4.2348   -0.0175 C.3     1  LIG1        0.0124
     22 O           3.8367    3.9335    0.0610 O.3     1  LIG1       -0.4665
     23 H           1.3949    4.9027    7.6321 H       1  LIG1        0.1107
     24 H           1.8845    8.3191   -3.5318 H       1  LIG1        0.1133
     25 H          -0.2761   -0.0762   -1.8510 H       1  LIG1        0.1141
     26 H           3.1108    3.1990    7.0768 H       1  LIG1        0.1128
     27 H           0.0811    5.9760    5.8212 H       1  LIG1        0.1128
     28 H          -0.1214    7.3327   -2.4555 H       1  LIG1        0.1141
     29 H           4.1403    7.4340   -2.9980 H       1  LIG1        0.1141
     30 H           2.1033    0.2513   -2.4731 H       1  LIG1        0.1143
     31 H          -1.4141    1.5739   -0.3882 H       1  LIG1        0.1147
     32 H           3.5161    2.5678    4.7204 H       1  LIG1        0.1137
     33 H           0.4787    5.3517    3.4621 H       1  LIG1        0.1131
     34 H           0.1221    5.4680   -0.8497 H       1  LIG1        0.1190
     35 H           4.3944    5.5697   -1.3939 H       1  LIG1        0.1272
     36 H           3.3451    2.2196   -1.6375 H       1  LIG1        0.1179
     37 H          -0.1812    3.5452    0.4524 H       1  LIG1        0.1234
     38 H           1.6883    2.6308    2.3056 H       1  LIG1        0.0685
     39 H           3.3232    3.2476    2.4865 H       1  LIG1        0.0675
     40 H           0.9694    4.9261    1.4921 H       1  LIG1        0.0658
     41 H           2.6158    5.4829    1.7489 H       1  LIG1        0.0620
     42 H           4.2603    4.7444    0.3697 H       1  LIG1        0.3333
@<TRIPOS>BOND
     1     1     4   ar
     2     1     5   ar
     3     2     6   ar
     4     2     7   ar
     5     3     8   ar
     6     3     9   ar
     7     4    10   ar
     8     5    11   ar
     9     6    12   ar
    10     7    13   ar
    11     8    14   ar
    12     9    15   ar
    13    10    16   ar
    14    11    16   ar
    15    12    17   ar
    16    13    17   ar
    17    14    18   ar
    18    15    18   ar
    19    16    19    1
    20    17    21    1
    21    18    21    1
    22    19    20    1
    23    20    21    1
    24    21    22    1
    25     1    23    1
    26     2    24    1
    27     3    25    1
    28     4    26    1
    29     5    27    1
    30     6    28    1
    31     7    29    1
    32     8    30    1
    33     9    31    1
    34    10    32    1
    35    11    33    1
    36    12    34    1
    37    13    35    1
    38    14    36    1
    39    15    37    1
    40    19    38    1
    41    19    39    1
    42    20    40    1
    43    20    41    1
    44    22    42    1
