@<TRIPOS>MOLECULE
AQ-344/43100025
 41 43 0 0 0
SMALL
USER_CHARGES

@<TRIPOS>ATOM
      1 C           0.6180    0.9065   -2.0503 C.ar    1  LIG1       -0.1090
      2 C           1.8296    7.2442   -2.6915 C.ar    1  LIG1       -0.1069
      3 C           1.7704    4.8741    5.9968 C.ar    1  LIG1       -0.1143
      4 C          -0.3632    1.3487   -1.1633 C.ar    1  LIG1       -0.1079
      5 C           1.9250    1.3810   -1.9380 C.ar    1  LIG1       -0.1039
      6 C           3.1508    6.8629   -2.4580 C.ar    1  LIG1       -0.1056
      7 C           0.8150    6.7986   -1.8443 C.ar    1  LIG1       -0.1057
      8 C           2.6841    3.8453    5.7684 C.ar    1  LIG1       -0.1076
      9 C           0.9151    5.2869    4.9751 C.ar    1  LIG1       -0.1079
     10 C          -0.0377    2.2654   -0.1636 C.ar    1  LIG1       -0.0985
     11 C           2.2504    2.2977   -0.9384 C.ar    1  LIG1       -0.0934
     12 C           3.4576    6.0360   -1.3775 C.ar    1  LIG1       -0.1005
     13 C           1.1217    5.9717   -0.7637 C.ar    1  LIG1       -0.0994
     14 C           2.7429    3.2294    4.5184 C.ar    1  LIG1       -0.0784
     15 C           0.9738    4.6710    3.7250 C.ar    1  LIG1       -0.0791
     16 C           1.2692    2.7400   -0.0512 C.ar    1  LIG1       -0.0788
     17 C           2.4429    5.5904   -0.5302 C.ar    1  LIG1       -0.0790
     18 C           1.8876    3.6423    3.4966 C.ar    1  LIG1       -0.0845
     19 C           1.6179    3.7204    1.0173 C.3     1  LIG1        0.0031
     20 C           2.7750    4.6925    0.6426 C.3     1  LIG1        0.0258
     21 N           1.9453    3.0340    2.2618 N.pl3   1  LIG1       -0.4017
     22 O           3.0832    5.5427    1.7521 O.3     1  LIG1       -0.4655
     23 H           0.3647    0.1916   -2.8278 H       1  LIG1        0.1128
     24 H           1.5912    7.8892   -3.5322 H       1  LIG1        0.1154
     25 H           1.7249    5.3539    6.9703 H       1  LIG1        0.0981
     26 H          -1.3806    0.9785   -1.2499 H       1  LIG1        0.1134
     27 H           2.6895    1.0360   -2.6278 H       1  LIG1        0.1131
     28 H           3.9412    7.2107   -3.1170 H       1  LIG1        0.1165
     29 H          -0.2136    7.0962   -2.0251 H       1  LIG1        0.1169
     30 H           3.3498    3.5241    6.5638 H       1  LIG1        0.1182
     31 H           0.2036    6.0882    5.1532 H       1  LIG1        0.1187
     32 H          -0.8089    2.6046    0.5231 H       1  LIG1        0.1148
     33 H           3.2713    2.6620   -0.8584 H       1  LIG1        0.1185
     34 H           4.4898    5.7437   -1.2033 H       1  LIG1        0.1109
     35 H           0.3247    5.6292   -0.1090 H       1  LIG1        0.1180
     36 H           3.4585    2.4287    4.3505 H       1  LIG1        0.1080
     37 H           0.3022    5.0009    2.9364 H       1  LIG1        0.1064
     38 H           0.7382    4.3326    1.2912 H       1  LIG1        0.1381
     39 H           3.6889    4.1249    0.4263 H       1  LIG1        0.1616
     40 H           2.2239    2.0684    2.1981 H       1  LIG1        0.2766
     41 H           3.8408    6.0798    1.4785 H       1  LIG1        0.3226
@<TRIPOS>BOND
     1     1     4   ar
     2     1     5   ar
     3     2     6   ar
     4     2     7   ar
     5     3     8   ar
     6     3     9   ar
     7     4    10   ar
     8     5    11   ar
     9     6    12   ar
    10     7    13   ar
    11     8    14   ar
    12     9    15   ar
    13    10    16   ar
    14    11    16   ar
    15    12    17   ar
    16    13    17   ar
    17    14    18   ar
    18    15    18   ar
    19    16    19    1
    20    17    20    1
    21    18    21    1
    22    19    20    1
    23    19    21    1
    24    20    22    1
    25     1    23    1
    26     2    24    1
    27     3    25    1
    28     4    26    1
    29     5    27    1
    30     6    28    1
    31     7    29    1
    32     8    30    1
    33     9    31    1
    34    10    32    1
    35    11    33    1
    36    12    34    1
    37    13    35    1
    38    14    36    1
    39    15    37    1
    40    19    38    1
    41    20    39    1
    42    21    40    1
    43    22    41    1
