@<TRIPOS>MOLECULE
AK-968/11369036
 44 45 0 0 0
SMALL
USER_CHARGES

@<TRIPOS>ATOM
      1 C           2.2473    7.6597   -2.2302 C.ar    1  LIG1       -0.1089
      2 C           3.1495    6.6521   -2.5718 C.ar    1  LIG1       -0.1036
      3 C           1.2263    7.4010   -1.3157 C.ar    1  LIG1       -0.1075
      4 C           1.6228    4.4302    6.0274 C.ar    1  LIG1       -0.1055
      5 C           0.6626    4.8746    5.1185 C.ar    1  LIG1       -0.0977
      6 C           3.0306    5.3859   -1.9988 C.ar    1  LIG1       -0.0950
      7 C           1.1075    6.1348   -0.7427 C.ar    1  LIG1       -0.0998
      8 C           2.8028    3.8469    5.5661 C.ar    1  LIG1       -0.0967
      9 C           0.8824    4.7355    3.7480 C.ar    1  LIG1       -0.0668
     10 C           2.0096    5.1272   -1.0843 C.ar    1  LIG1       -0.0797
     11 C           3.0227    3.7078    4.1956 C.ar    1  LIG1       -0.0824
     12 C           2.0625    4.1521    3.2867 C.ar    1  LIG1       -0.0526
     13 C           1.2717    3.8547    0.9480 C.2     1  LIG1        0.0965
     14 C           0.9180    1.3907   -0.7049 C.3     1  LIG1       -0.0657
     15 C           4.4364    1.6209    4.2028 C.3     1  LIG1       -0.0625
     16 C           5.5365    3.8884    4.1488 C.3     1  LIG1       -0.0626
     17 C           1.0567    2.7739   -1.3286 C.3     1  LIG1       -0.0373
     18 C           1.8793    3.7479   -0.4599 C.3     1  LIG1        0.0613
     19 C           4.2958    3.0790    3.7301 C.3     1  LIG1       -0.0511
     20 N           2.2641    4.0216    1.9104 N.am    1  LIG1       -0.3138
     21 O           0.0596    3.7792    1.1273 O.2     1  LIG1       -0.4726
     22 H           2.3409    8.6459   -2.6754 H       1  LIG1        0.1133
     23 H           3.9451    6.8535   -3.2830 H       1  LIG1        0.1143
     24 H           0.5245    8.1855   -1.0487 H       1  LIG1        0.1134
     25 H           1.4517    4.5378    7.0944 H       1  LIG1        0.1126
     26 H          -0.2566    5.3281    5.4779 H       1  LIG1        0.1189
     27 H           3.7378    4.6069   -2.2710 H       1  LIG1        0.1201
     28 H           0.3088    5.9424   -0.0312 H       1  LIG1        0.1161
     29 H           3.5445    3.5036    6.2824 H       1  LIG1        0.1217
     30 H           0.1268    5.0861    3.0499 H       1  LIG1        0.1377
     31 H           0.4291    1.4672    0.2716 H       1  LIG1        0.0332
     32 H           1.8935    0.9193   -0.5523 H       1  LIG1        0.0352
     33 H           0.3107    0.7342   -1.3361 H       1  LIG1        0.0359
     34 H           4.4310    1.5483    5.2958 H       1  LIG1        0.0380
     35 H           5.3700    1.1737    3.8446 H       1  LIG1        0.0380
     36 H           3.6067    1.0135    3.8239 H       1  LIG1        0.0352
     37 H           5.5921    3.9677    5.2402 H       1  LIG1        0.0348
     38 H           5.5064    4.9044    3.7401 H       1  LIG1        0.0381
     39 H           6.4623    3.4177    3.8004 H       1  LIG1        0.0379
     40 H           1.5491    2.6605   -2.3031 H       1  LIG1        0.0509
     41 H           0.0572    3.1750   -1.5363 H       1  LIG1        0.0537
     42 H           2.8800    3.3084   -0.3400 H       1  LIG1        0.1233
     43 H           4.3119    3.0451    2.6250 H       1  LIG1        0.0619
     44 H           3.2261    4.0512    1.5805 H       1  LIG1        0.3196
@<TRIPOS>BOND
     1     1     2   ar
     2     1     3   ar
     3     2     6   ar
     4     3     7   ar
     5     4     5   ar
     6     4     8   ar
     7     5     9   ar
     8     6    10   ar
     9     7    10   ar
    10     8    11   ar
    11     9    12   ar
    12    10    18    1
    13    11    12   ar
    14    11    19    1
    15    12    20    1
    16    13    18    1
    17    13    20   am
    18    13    21    2
    19    14    17    1
    20    15    19    1
    21    16    19    1
    22    17    18    1
    23     1    22    1
    24     2    23    1
    25     3    24    1
    26     4    25    1
    27     5    26    1
    28     6    27    1
    29     7    28    1
    30     8    29    1
    31     9    30    1
    32    14    31    1
    33    14    32    1
    34    14    33    1
    35    15    34    1
    36    15    35    1
    37    15    36    1
    38    16    37    1
    39    16    38    1
    40    16    39    1
    41    17    40    1
    42    17    41    1
    43    18    42    1
    44    19    43    1
    45    20    44    1
