@<TRIPOS>MOLECULE
AN-329/09392046
 43 45 0 0 0
SMALL
USER_CHARGES

@<TRIPOS>ATOM
      1 C           0.3842    0.6119   -1.8792 C.ar    1  LIG1       -0.1057
      2 C           2.1978    7.5572   -2.4031 C.ar    1  LIG1       -0.1074
      3 C           1.7168    0.9615   -2.0976 C.ar    1  LIG1       -0.1036
      4 C          -0.4048    1.3747   -1.0181 C.ar    1  LIG1       -0.1046
      5 C           3.1882    6.5813   -2.5149 C.ar    1  LIG1       -0.1023
      6 C           1.1647    7.3998   -1.4792 C.ar    1  LIG1       -0.1058
      7 C           0.5758    4.8103    5.7220 C.ar    1  LIG1       -0.0549
      8 C           2.8907    4.2896    6.1774 C.ar    1  LIG1       -0.0662
      9 C           2.2604    2.0738   -1.4549 C.ar    1  LIG1       -0.0973
     10 C           0.1388    2.4869   -0.3754 C.ar    1  LIG1       -0.0995
     11 C           3.1454    5.4480   -1.7028 C.ar    1  LIG1       -0.0925
     12 C           1.1219    6.2664   -0.6671 C.ar    1  LIG1       -0.0968
     13 C           0.8096    4.6549    4.3557 C.ar    1  LIG1       -0.0513
     14 C           3.1245    4.1342    4.8110 C.ar    1  LIG1       -0.0630
     15 C           1.6164    4.6276    6.6328 C.ar    1  LIG1        0.0181
     16 C           1.4714    2.8365   -0.5937 C.ar    1  LIG1       -0.0741
     17 C           2.1123    5.2906   -0.7789 C.ar    1  LIG1       -0.0683
     18 C           2.0839    4.3169    3.9002 C.ar    1  LIG1       -0.0470
     19 C           1.3727    4.7898    8.0574 C.2     1  LIG1        0.0799
     20 C           1.4061    4.3131    1.4722 C.2     1  LIG1        0.1124
     21 C           2.0648    4.0518    0.1090 C.3     1  LIG1        0.0882
     22 N           0.0838    5.1276    8.4597 N.am    1  LIG1       -0.3480
     23 N           2.3166    4.1615    2.5334 N.am    1  LIG1       -0.3070
     24 O           2.2846    4.6494    8.8912 O.2     1  LIG1       -0.4900
     25 O           0.2211    4.6178    1.5742 O.2     1  LIG1       -0.4642
     26 H          -0.0393   -0.2534   -2.3807 H       1  LIG1        0.1171
     27 H           2.2320    8.4402   -3.0346 H       1  LIG1        0.1151
     28 H           2.3310    0.3684   -2.7689 H       1  LIG1        0.1185
     29 H          -1.4425    1.1034   -0.8487 H       1  LIG1        0.1174
     30 H           3.9933    6.7042   -3.2334 H       1  LIG1        0.1153
     31 H           0.3941    8.1599   -1.3912 H       1  LIG1        0.1151
     32 H          -0.4208    5.0742    6.0661 H       1  LIG1        0.1502
     33 H           3.7088    4.1449    6.8784 H       1  LIG1        0.1345
     34 H           3.2997    2.3385   -1.6310 H       1  LIG1        0.1219
     35 H          -0.4834    3.0752    0.2939 H       1  LIG1        0.1151
     36 H           3.9213    4.6927   -1.7969 H       1  LIG1        0.1213
     37 H           0.3132    6.1522    0.0498 H       1  LIG1        0.1182
     38 H          -0.0084    4.7991    3.6542 H       1  LIG1        0.1453
     39 H           4.1217    3.8706    4.4674 H       1  LIG1        0.1284
     40 H           3.1129    3.8049    0.3409 H       1  LIG1        0.1456
     41 H          -0.6387    5.2492    7.7583 H       1  LIG1        0.2709
     42 H          -0.1491    5.2547    9.4392 H       1  LIG1        0.2754
     43 H           3.2752    3.9125    2.2636 H       1  LIG1        0.3258
@<TRIPOS>BOND
     1     1     3   ar
     2     1     4   ar
     3     2     5   ar
     4     2     6   ar
     5     3     9   ar
     6     4    10   ar
     7     5    11   ar
     8     6    12   ar
     9     7    13   ar
    10     7    15   ar
    11     8    14   ar
    12     8    15   ar
    13     9    16   ar
    14    10    16   ar
    15    11    17   ar
    16    12    17   ar
    17    13    18   ar
    18    14    18   ar
    19    15    19    1
    20    16    21    1
    21    17    21    1
    22    18    23    1
    23    19    22   am
    24    19    24    2
    25    20    21    1
    26    20    23   am
    27    20    25    2
    28     1    26    1
    29     2    27    1
    30     3    28    1
    31     4    29    1
    32     5    30    1
    33     6    31    1
    34     7    32    1
    35     8    33    1
    36     9    34    1
    37    10    35    1
    38    11    36    1
    39    12    37    1
    40    13    38    1
    41    14    39    1
    42    21    40    1
    43    22    41    1
    44    22    42    1
    45    23    43    1
