@<TRIPOS>MOLECULE
AG-690/09409059
 34 36 0 0 0
SMALL
USER_CHARGES

@<TRIPOS>ATOM
      1 C           1.9810    7.5802   -2.2888 C.ar    1  LIG1       -0.1069
      2 C           0.1851    0.7108   -1.7893 C.ar    1  LIG1       -0.1071
      3 C           1.0985    7.2909   -1.2481 C.ar    1  LIG1       -0.1021
      4 C           3.0123    6.6926   -2.5959 C.ar    1  LIG1       -0.1027
      5 C           1.5062    0.9330   -2.1779 C.ar    1  LIG1       -0.1031
      6 C          -0.4066    1.5311   -0.8288 C.ar    1  LIG1       -0.1037
      7 C           1.2473    6.1139   -0.5144 C.ar    1  LIG1       -0.0828
      8 C           3.1611    5.5157   -1.8621 C.ar    1  LIG1       -0.0837
      9 C           2.2356    1.9752   -1.6058 C.ar    1  LIG1       -0.0862
     10 C           0.3228    2.5734   -0.2566 C.ar    1  LIG1       -0.0871
     11 C           2.2786    5.2263   -0.8214 C.ar    1  LIG1       -0.0302
     12 C           1.6440    2.7954   -0.6452 C.ar    1  LIG1       -0.0347
     13 C           4.1138    3.2877    1.4105 C.3     1  LIG1        0.0481
     14 C           3.1771    4.2119    2.1376 C.3     1  LIG1        0.0551
     15 C           2.4424    3.9371   -0.0179 C.3     1  LIG1        0.1110
     16 C           2.8817    3.7952    3.5621 C.3     1  LIG1        0.0350
     17 O           3.8434    3.5764    0.0401 O.3     1  LIG1       -0.4049
     18 O           1.9931    4.1510    1.3415 O.3     1  LIG1       -0.4020
     19 CL          1.7779    4.9540    4.3343 Cl      1  LIG1       -0.2268
     20 H           1.8641    8.4960   -2.8609 H       1  LIG1        0.1167
     21 H          -0.3831   -0.0999   -2.2359 H       1  LIG1        0.1166
     22 H           0.2948    7.9813   -1.0096 H       1  LIG1        0.1166
     23 H           3.6988    6.9170   -3.4068 H       1  LIG1        0.1161
     24 H           1.9668    0.2950   -2.9267 H       1  LIG1        0.1161
     25 H          -1.4355    1.3591   -0.5267 H       1  LIG1        0.1160
     26 H           0.5552    5.8969    0.2949 H       1  LIG1        0.1286
     27 H           3.9676    4.8300   -2.1084 H       1  LIG1        0.1266
     28 H           3.2644    2.1406   -1.9146 H       1  LIG1        0.1272
     29 H          -0.1465    3.2073    0.4912 H       1  LIG1        0.1255
     30 H           5.1672    3.4695    1.6395 H       1  LIG1        0.1110
     31 H           3.8845    2.2308    1.5870 H       1  LIG1        0.1372
     32 H           3.5452    5.2444    2.1094 H       1  LIG1        0.1295
     33 H           3.8002    3.7581    4.1549 H       1  LIG1        0.1127
     34 H           2.4081    2.8095    3.5887 H       1  LIG1        0.1185
@<TRIPOS>BOND
     1     1     3   ar
     2     1     4   ar
     3     2     5   ar
     4     2     6   ar
     5     3     7   ar
     6     4     8   ar
     7     5     9   ar
     8     6    10   ar
     9     7    11   ar
    10     8    11   ar
    11     9    12   ar
    12    10    12   ar
    13    11    15    1
    14    12    15    1
    15    13    14    1
    16    13    17    1
    17    14    16    1
    18    14    18    1
    19    15    17    1
    20    15    18    1
    21    16    19    1
    22     1    20    1
    23     2    21    1
    24     3    22    1
    25     4    23    1
    26     5    24    1
    27     6    25    1
    28     7    26    1
    29     8    27    1
    30     9    28    1
    31    10    29    1
    32    13    30    1
    33    13    31    1
    34    14    32    1
    35    16    33    1
    36    16    34    1
