@<TRIPOS>MOLECULE
AG-205/33133041
 45 48 0 0 0
SMALL
USER_CHARGES

@<TRIPOS>ATOM
      1 C          -0.4967    1.7094   -1.7218 C.ar    1  LIG1       -0.0859
      2 C           0.2820    0.8276   -2.4710 C.ar    1  LIG1       -0.0904
      3 C           3.0781    4.0327    4.7633 C.ar    1  LIG1       -0.0647
      4 C           0.9033    4.9443    4.2380 C.ar    1  LIG1       -0.0764
      5 C           1.2376    5.5882   -0.6175 C.ar    1  LIG1       -0.0833
      6 C           3.4965    6.0818   -1.3184 C.ar    1  LIG1       -0.0877
      7 C           0.0962    2.4989   -0.7363 C.ar    1  LIG1       -0.0429
      8 C           2.8788    4.3334    6.1106 C.ar    1  LIG1       -0.0517
      9 C           0.7038    5.2450    5.5853 C.ar    1  LIG1       -0.0654
     10 C           1.6536    0.7349   -2.2348 C.ar    1  LIG1       -0.0368
     11 C           0.7661    6.6503   -1.3889 C.ar    1  LIG1       -0.0728
     12 C           3.0249    7.1440   -2.0899 C.ar    1  LIG1       -0.0745
     13 C           2.0904    4.3381    3.8269 C.ar    1  LIG1       -0.0359
     14 C           2.6029    5.3040   -0.5822 C.ar    1  LIG1       -0.0763
     15 C           1.4678    2.4062   -0.5000 C.ar    1  LIG1        0.0293
     16 C           1.6916    4.9396    6.5217 C.ar    1  LIG1       -0.0136
     17 C           2.2466    1.5242   -1.2493 C.ar    1  LIG1        0.1138
     18 C           1.6597    7.4282   -2.1251 C.ar    1  LIG1       -0.0185
     19 C           2.2979    4.0244    2.4222 C.2     1  LIG1        0.0050
     20 C           3.4502    4.6229    1.6631 C.3     1  LIG1        0.0275
     21 C           3.1082    4.1654    0.2426 C.3     1  LIG1        0.0168
     22 C           0.2603    5.8527    8.1870 C.3     1  LIG1        0.0237
     23 N           1.5534    3.2142    1.7382 N.2     1  LIG1       -0.3296
     24 N           2.0477    3.1824    0.4684 N.pl3   1  LIG1       -0.3259
     25 O           1.4969    5.2334    7.8363 O.3     1  LIG1       -0.4178
     26 F           3.5656    1.4270   -1.0304 F       1  LIG1       -0.2486
     27 CL          1.0776    8.7384   -3.0768 Cl      1  LIG1       -0.1457
     28 H          -1.5646    1.7813   -1.9058 H       1  LIG1        0.1263
     29 H          -0.1801    0.2133   -3.2384 H       1  LIG1        0.1335
     30 H           4.0071    3.5600    4.4548 H       1  LIG1        0.1469
     31 H           0.1273    5.1861    3.5161 H       1  LIG1        0.1368
     32 H           0.5351    4.9869   -0.0464 H       1  LIG1        0.1428
     33 H           4.5615    5.8669   -1.2966 H       1  LIG1        0.1297
     34 H          -0.5200    3.1834   -0.1587 H       1  LIG1        0.1448
     35 H           3.6520    4.0932    6.8353 H       1  LIG1        0.1306
     36 H          -0.2228    5.7175    5.8995 H       1  LIG1        0.1143
     37 H           2.2600    0.0484   -2.8180 H       1  LIG1        0.1333
     38 H          -0.3004    6.8597   -1.4069 H       1  LIG1        0.1298
     39 H           3.7329    7.7416   -2.6583 H       1  LIG1        0.1304
     40 H           3.5072    5.7068    1.7959 H       1  LIG1        0.0980
     41 H           4.3756    4.1555    2.0168 H       1  LIG1        0.0968
     42 H           3.9778    3.7189   -0.2509 H       1  LIG1        0.1339
     43 H           0.2346    6.0324    9.2646 H       1  LIG1        0.0894
     44 H          -0.5691    5.2035    7.8952 H       1  LIG1        0.0895
     45 H           0.1777    6.8057    7.6590 H       1  LIG1        0.1216
@<TRIPOS>BOND
     1     1     2   ar
     2     1     7   ar
     3     2    10   ar
     4     3     8   ar
     5     3    13   ar
     6     4     9   ar
     7     4    13   ar
     8     5    11   ar
     9     5    14   ar
    10     6    12   ar
    11     6    14   ar
    12     7    15   ar
    13     8    16   ar
    14     9    16   ar
    15    10    17   ar
    16    11    18   ar
    17    12    18   ar
    18    13    19    1
    19    14    21    1
    20    15    17   ar
    21    15    24    1
    22    16    25    1
    23    17    26    1
    24    18    27    1
    25    19    20    1
    26    19    23    2
    27    20    21    1
    28    21    24    1
    29    22    25    1
    30    23    24    1
    31     1    28    1
    32     2    29    1
    33     3    30    1
    34     4    31    1
    35     5    32    1
    36     6    33    1
    37     7    34    1
    38     8    35    1
    39     9    36    1
    40    10    37    1
    41    11    38    1
    42    12    39    1
    43    20    40    1
    44    20    41    1
    45    21    42    1
    46    22    43    1
    47    22    44    1
    48    22    45    1
