@<TRIPOS>MOLECULE
AK-918/41424326
 41 43 0 0 0
SMALL
USER_CHARGES

@<TRIPOS>ATOM
      1 C           0.0251    0.8106   -1.4256 C.ar    1  LIG1       -0.1086
      2 C          -0.6790    1.8772   -0.8674 C.ar    1  LIG1       -0.1018
      3 C           1.3104    1.0105   -1.9294 C.ar    1  LIG1       -0.1061
      4 C           1.7293    6.9957   -1.8693 C.ar    1  LIG1       -0.1021
      5 C           2.9197    7.2077   -1.1739 C.ar    1  LIG1       -0.1061
      6 C          -0.0980    3.1442   -0.8131 C.ar    1  LIG1       -0.0879
      7 C           1.8914    2.2775   -1.8750 C.ar    1  LIG1       -0.0931
      8 C           1.1642    5.7211   -1.9123 C.ar    1  LIG1       -0.0807
      9 C           3.2465    4.4866    4.3877 C.ar    1  LIG1       -0.0773
     10 C           0.9299    3.9246    3.9947 C.ar    1  LIG1       -0.0824
     11 C           2.9091    5.0029    5.6388 C.ar    1  LIG1       -0.0939
     12 C           0.5924    4.4409    5.2458 C.ar    1  LIG1       -0.0973
     13 C           3.5451    6.1452   -0.5216 C.ar    1  LIG1       -0.0701
     14 C           1.1872    3.3444   -1.3168 C.ar    1  LIG1       -0.0710
     15 C           1.7896    4.6585   -1.2600 C.ar    1  LIG1       -0.0336
     16 C           2.2569    3.9475    3.5657 C.ar    1  LIG1       -0.0049
     17 C           1.5821    4.9799    6.0678 C.ar    1  LIG1       -0.1124
     18 C           2.9801    4.8706   -0.5646 C.ar    1  LIG1        0.0060
     19 C           2.6166    3.3948    2.2280 C.2     1  LIG1        0.1151
     20 C           1.2219    5.5312    7.4062 C.3     1  LIG1       -0.0390
     21 C           3.7983    3.9897    1.4873 C.3     1  LIG1        0.1203
     22 O           1.9536    2.4757    1.7530 O.2     1  LIG1       -0.4386
     23 O           3.6139    3.8500    0.0806 O.3     1  LIG1       -0.3847
     24 H          -0.4268   -0.1762   -1.4664 H       1  LIG1        0.1129
     25 H          -1.6791    1.7214   -0.4737 H       1  LIG1        0.1152
     26 H           1.8598    0.1801   -2.3629 H       1  LIG1        0.1137
     27 H           1.2424    7.8232   -2.3769 H       1  LIG1        0.1129
     28 H           3.3596    8.2001   -1.1406 H       1  LIG1        0.1239
     29 H          -0.6598    3.9657   -0.3745 H       1  LIG1        0.1242
     30 H           2.8943    2.4181   -2.2711 H       1  LIG1        0.1191
     31 H           0.2359    5.5728   -2.4589 H       1  LIG1        0.1358
     32 H           4.2835    4.5092    4.0628 H       1  LIG1        0.1407
     33 H           0.1504    3.5071    3.3626 H       1  LIG1        0.1315
     34 H           3.6865    5.4207    6.2728 H       1  LIG1        0.1231
     35 H          -0.4440    4.4185    5.5724 H       1  LIG1        0.1218
     36 H           4.4724    6.3181    0.0180 H       1  LIG1        0.1101
     37 H           0.9772    6.5974    7.3268 H       1  LIG1        0.0613
     38 H           0.3575    5.0067    7.8335 H       1  LIG1        0.0570
     39 H           2.0481    5.4157    8.1199 H       1  LIG1        0.0569
     40 H           4.7109    3.4520    1.7577 H       1  LIG1        0.1449
     41 H           3.8979    5.0539    1.7182 H       1  LIG1        0.1452
@<TRIPOS>BOND
     1     1     2   ar
     2     1     3   ar
     3     2     6   ar
     4     3     7   ar
     5     4     5   ar
     6     4     8   ar
     7     5    13   ar
     8     6    14   ar
     9     7    14   ar
    10     8    15   ar
    11     9    11   ar
    12     9    16   ar
    13    10    12   ar
    14    10    16   ar
    15    11    17   ar
    16    12    17   ar
    17    13    18   ar
    18    14    15    1
    19    15    18   ar
    20    16    19    1
    21    17    20    1
    22    18    23    1
    23    19    21    1
    24    19    22    2
    25    21    23    1
    26     1    24    1
    27     2    25    1
    28     3    26    1
    29     4    27    1
    30     5    28    1
    31     6    29    1
    32     7    30    1
    33     8    31    1
    34     9    32    1
    35    10    33    1
    36    11    34    1
    37    12    35    1
    38    13    36    1
    39    20    37    1
    40    20    38    1
    41    20    39    1
    42    21    40    1
    43    21    41    1
