@<TRIPOS>MOLECULE
AN-329/10867051
 41 43 0 0 0
SMALL
USER_CHARGES

@<TRIPOS>ATOM
      1 C           0.4001    0.6481   -1.6902 C.ar    1  LIG1       -0.1051
      2 C           2.1904    7.5414   -2.6162 C.ar    1  LIG1       -0.1062
      3 C           1.7320    0.9916   -1.9215 C.ar    1  LIG1       -0.1045
      4 C          -0.3970    1.4539   -0.8772 C.ar    1  LIG1       -0.1020
      5 C           1.0732    6.7063   -2.6020 C.ar    1  LIG1       -0.1021
      6 C           3.2594    7.2907   -1.7558 C.ar    1  LIG1       -0.1043
      7 C           2.9585    4.0181    5.7223 C.ar    1  LIG1       -0.0935
      8 C           2.2669    2.1410   -1.3397 C.ar    1  LIG1       -0.0984
      9 C           0.1379    2.6032   -0.2954 C.ar    1  LIG1       -0.0941
     10 C           1.0249    5.6207   -1.7275 C.ar    1  LIG1       -0.0929
     11 C           3.2110    6.2052   -0.8812 C.ar    1  LIG1       -0.0956
     12 C           1.9123    4.7162    6.3255 C.ar    1  LIG1       -0.1003
     13 C           2.8510    3.6126    4.3921 C.ar    1  LIG1       -0.0589
     14 C           0.6510    4.6034    4.2679 C.ar    1  LIG1       -0.0595
     15 C           1.4698    2.9469   -0.5267 C.ar    1  LIG1       -0.0692
     16 C           2.0939    5.3703   -0.8671 C.ar    1  LIG1       -0.0662
     17 C           0.7585    5.0088    5.5982 C.ar    1  LIG1       -0.1077
     18 C           1.6972    3.9052    3.6649 C.ar    1  LIG1        0.0216
     19 C           1.4143    4.5653    1.4471 C.2     1  LIG1        0.1911
     20 C          -0.3602    5.7548    6.2433 C.3     1  LIG1       -0.0407
     21 C           2.0413    4.1758    0.0960 C.3     1  LIG1        0.1042
     22 O           0.8803    5.6352    1.7119 O.2     1  LIG1       -0.4363
     23 O           1.5899    3.4998    2.3327 O.3     1  LIG1       -0.3035
     24 H          -0.0167   -0.2462   -2.1444 H       1  LIG1        0.1179
     25 H           2.2284    8.3858   -3.2982 H       1  LIG1        0.1170
     26 H           2.3525    0.3649   -2.5554 H       1  LIG1        0.1181
     27 H          -1.4344    1.1872   -0.6978 H       1  LIG1        0.1199
     28 H           0.2412    6.9006   -3.2726 H       1  LIG1        0.1166
     29 H           4.1298    7.9400   -1.7673 H       1  LIG1        0.1170
     30 H           3.8569    3.7907    6.2885 H       1  LIG1        0.1275
     31 H           3.3057    2.4007   -1.5253 H       1  LIG1        0.1138
     32 H          -0.4906    3.2250    0.3368 H       1  LIG1        0.1244
     33 H           0.1502    4.9756   -1.7232 H       1  LIG1        0.1222
     34 H           4.0486    6.0178   -0.2144 H       1  LIG1        0.1210
     35 H           2.0050    5.0276    7.3626 H       1  LIG1        0.1221
     36 H           3.6693    3.0691    3.9281 H       1  LIG1        0.1301
     37 H          -0.2475    4.8299    3.6985 H       1  LIG1        0.1268
     38 H          -0.2294    6.8350    6.1041 H       1  LIG1        0.0594
     39 H          -1.3299    5.4643    5.8188 H       1  LIG1        0.0550
     40 H          -0.4096    5.5462    7.3201 H       1  LIG1        0.0571
     41 H           3.0942    3.9748    0.3873 H       1  LIG1        0.1579
@<TRIPOS>BOND
     1     1     3   ar
     2     1     4   ar
     3     2     5   ar
     4     2     6   ar
     5     3     8   ar
     6     4     9   ar
     7     5    10   ar
     8     6    11   ar
     9     7    12   ar
    10     7    13   ar
    11     8    15   ar
    12     9    15   ar
    13    10    16   ar
    14    11    16   ar
    15    12    17   ar
    16    13    18   ar
    17    14    17   ar
    18    14    18   ar
    19    15    21    1
    20    16    21    1
    21    17    20    1
    22    18    23    1
    23    19    21    1
    24    19    22    2
    25    19    23    1
    26     1    24    1
    27     2    25    1
    28     3    26    1
    29     4    27    1
    30     5    28    1
    31     6    29    1
    32     7    30    1
    33     8    31    1
    34     9    32    1
    35    10    33    1
    36    11    34    1
    37    12    35    1
    38    13    36    1
    39    14    37    1
    40    20    38    1
    41    20    39    1
    42    20    40    1
    43    21    41    1
