@<TRIPOS>MOLECULE
AG-205/07765020
 41 44 0 0 0
SMALL
USER_CHARGES

@<TRIPOS>ATOM
      1 C          -0.3921    2.2219   -1.0149 C.ar    1  LIG1       -0.0985
      2 C           0.8892    7.0454   -2.0688 C.ar    1  LIG1       -0.0860
      3 C          -0.0206    1.0433   -1.6617 C.ar    1  LIG1       -0.0942
      4 C           1.9454    7.3289   -2.9347 C.ar    1  LIG1       -0.0923
      5 C           2.9067    3.5953    4.7226 C.ar    1  LIG1       -0.0651
      6 C           0.9819    4.9939    4.3032 C.ar    1  LIG1       -0.0627
      7 C           0.5729    3.0015   -0.3771 C.ar    1  LIG1       -0.0850
      8 C           1.0925    6.2091   -0.9711 C.ar    1  LIG1       -0.0454
      9 C           1.3159    0.6441   -1.6707 C.ar    1  LIG1       -0.0496
     10 C           3.2048    6.7761   -2.7029 C.ar    1  LIG1       -0.0709
     11 C           2.6263    3.6190    6.0888 C.ar    1  LIG1       -0.0745
     12 C           0.7014    5.0176    5.6694 C.ar    1  LIG1       -0.0732
     13 C           2.0846    4.2827    3.8298 C.ar    1  LIG1       -0.0283
     14 C           1.9094    2.6024   -0.3861 C.ar    1  LIG1       -0.0301
     15 C           2.3520    5.6564   -0.7392 C.ar    1  LIG1       -0.0029
     16 C           2.2810    1.4237   -1.0328 C.ar    1  LIG1        0.0684
     17 C           1.5236    4.3301    6.5622 C.ar    1  LIG1       -0.0396
     18 C           3.4082    5.9398   -1.6051 C.ar    1  LIG1        0.0100
     19 C           2.3770    4.2581    2.4055 C.2     1  LIG1        0.0158
     20 C           3.0551    3.0704    1.7794 C.3     1  LIG1        0.0305
     21 C           2.9403    3.4401    0.2981 C.3     1  LIG1        0.0265
     22 N           2.1127    5.2302    1.5904 N.2     1  LIG1       -0.3171
     23 N           2.5175    4.8403    0.3486 N.pl3   1  LIG1       -0.3185
     24 F           3.5627    1.0321   -1.0470 F       1  LIG1       -0.2670
     25 BR          1.1437    4.3622    8.4132 Br      1  LIG1       -0.1109
     26 BR          5.1419    5.2148   -1.3364 Br      1  LIG1       -0.0904
     27 H          -1.4330    2.5327   -1.0073 H       1  LIG1        0.1204
     28 H          -0.0914    7.4762   -2.2492 H       1  LIG1        0.1334
     29 H          -0.7720    0.4361   -2.1577 H       1  LIG1        0.1310
     30 H           1.7868    7.9807   -3.7890 H       1  LIG1        0.1258
     31 H           3.7685    3.0379    4.3646 H       1  LIG1        0.1394
     32 H           0.3346    5.5331    3.6163 H       1  LIG1        0.1447
     33 H           0.2740    3.9179    0.1248 H       1  LIG1        0.1394
     34 H           0.2606    5.9970   -0.3040 H       1  LIG1        0.1352
     35 H           1.6056   -0.2734   -2.1745 H       1  LIG1        0.1303
     36 H           4.0150    7.0096   -3.3889 H       1  LIG1        0.1391
     37 H           3.2769    3.0780    6.7711 H       1  LIG1        0.1375
     38 H          -0.1616    5.5765    6.0218 H       1  LIG1        0.1370
     39 H           4.1012    3.0605    2.1039 H       1  LIG1        0.0988
     40 H           2.5704    2.1306    2.0580 H       1  LIG1        0.1011
     41 H           3.9003    3.3238   -0.2158 H       1  LIG1        0.1377
@<TRIPOS>BOND
     1     1     3   ar
     2     1     7   ar
     3     2     4   ar
     4     2     8   ar
     5     3     9   ar
     6     4    10   ar
     7     5    11   ar
     8     5    13   ar
     9     6    12   ar
    10     6    13   ar
    11     7    14   ar
    12     8    15   ar
    13     9    16   ar
    14    10    18   ar
    15    11    17   ar
    16    12    17   ar
    17    13    19    1
    18    14    16   ar
    19    14    21    1
    20    15    18   ar
    21    15    23    1
    22    16    24    1
    23    17    25    1
    24    18    26    1
    25    19    20    1
    26    19    22    2
    27    20    21    1
    28    21    23    1
    29    22    23    1
    30     1    27    1
    31     2    28    1
    32     3    29    1
    33     4    30    1
    34     5    31    1
    35     6    32    1
    36     7    33    1
    37     8    34    1
    38     9    35    1
    39    10    36    1
    40    11    37    1
    41    12    38    1
    42    20    39    1
    43    20    40    1
    44    21    41    1
