@<TRIPOS>MOLECULE
AP-518/42324229
 42 44 0 0 0
SMALL
USER_CHARGES

@<TRIPOS>ATOM
      1 C           1.9842    7.6201   -1.8975 C.ar    1  LIG1       -0.1079
      2 C           0.5367    4.8596    5.2683 C.ar    1  LIG1       -0.1000
      3 C           2.9328    6.7220   -2.3864 C.ar    1  LIG1       -0.1060
      4 C           1.1854    7.2676   -0.8098 C.ar    1  LIG1       -0.1037
      5 C           1.4324    4.5389    6.2882 C.ar    1  LIG1       -0.1005
      6 C          -0.4206    1.4413   -0.9142 C.ar    1  LIG1       -0.0949
      7 C           0.1283    0.6611   -1.9318 C.ar    1  LIG1       -0.0928
      8 C           0.9755    4.9109    3.9452 C.ar    1  LIG1       -0.0757
      9 C           3.0826    5.4712   -1.7876 C.ar    1  LIG1       -0.0950
     10 C           1.3350    6.0167   -0.2111 C.ar    1  LIG1       -0.0913
     11 C           2.7672    4.2698    5.9852 C.ar    1  LIG1       -0.0932
     12 C           0.3430    2.4424   -0.3138 C.ar    1  LIG1       -0.0837
     13 C           1.4408    0.8818   -2.3489 C.ar    1  LIG1       -0.0781
     14 C           2.3102    4.6419    3.6421 C.ar    1  LIG1        0.0208
     15 C           2.2836    5.1185   -0.6999 C.ar    1  LIG1       -0.0721
     16 C           3.2061    4.3213    4.6621 C.ar    1  LIG1       -0.0808
     17 C           1.6555    2.6632   -0.7310 C.ar    1  LIG1       -0.0527
     18 C           2.2045    1.8829   -1.7486 C.ar    1  LIG1       -0.0267
     19 C           2.7420    4.7032    2.2523 C.2     1  LIG1        0.1074
     20 C           4.6407    4.0292    4.3660 C.3     1  LIG1       -0.0317
     21 C           2.4454    3.7609   -0.0497 C.3     1  LIG1        0.0199
     22 N           2.1119    3.8352    1.3546 N.am    1  LIG1       -0.3278
     23 O           3.6452    5.4843    1.9083 O.2     1  LIG1       -0.4716
     24 BR          3.9850    2.1429   -2.3478 Br      1  LIG1       -0.1025
     25 H           1.8687    8.5946   -2.3631 H       1  LIG1        0.1146
     26 H          -0.5029    5.0690    5.5037 H       1  LIG1        0.1178
     27 H           3.5557    6.9968   -3.2327 H       1  LIG1        0.1134
     28 H           0.4474    7.9671   -0.4283 H       1  LIG1        0.1160
     29 H           1.0902    4.4993    7.3183 H       1  LIG1        0.1259
     30 H          -1.4424    1.2693   -0.5896 H       1  LIG1        0.1294
     31 H          -0.4666   -0.1180   -2.3990 H       1  LIG1        0.1285
     32 H           0.2678    5.1631    3.1596 H       1  LIG1        0.1237
     33 H           3.8241    4.7776   -2.1754 H       1  LIG1        0.1142
     34 H           0.7081    5.7506    0.6359 H       1  LIG1        0.1245
     35 H           3.4568    4.0206    6.7874 H       1  LIG1        0.1224
     36 H          -0.0950    3.0442    0.4781 H       1  LIG1        0.1233
     37 H           1.8514    0.2635   -3.1434 H       1  LIG1        0.1374
     38 H           4.7789    2.9584    4.1769 H       1  LIG1        0.0622
     39 H           4.9852    4.5870    3.4866 H       1  LIG1        0.0495
     40 H           5.2856    4.3228    5.2033 H       1  LIG1        0.0753
     41 H           3.5059    3.4777   -0.0651 H       1  LIG1        0.1633
     42 H           1.4249    3.1739    1.7014 H       1  LIG1        0.2996
@<TRIPOS>BOND
     1     1     3   ar
     2     1     4   ar
     3     2     5   ar
     4     2     8   ar
     5     3     9   ar
     6     4    10   ar
     7     5    11   ar
     8     6     7   ar
     9     6    12   ar
    10     7    13   ar
    11     8    14   ar
    12     9    15   ar
    13    10    15   ar
    14    11    16   ar
    15    12    17   ar
    16    13    18   ar
    17    14    16   ar
    18    14    19    1
    19    15    21    1
    20    16    20    1
    21    17    18   ar
    22    17    21    1
    23    18    24    1
    24    19    22   am
    25    19    23    2
    26    21    22    1
    27     1    25    1
    28     2    26    1
    29     3    27    1
    30     4    28    1
    31     5    29    1
    32     6    30    1
    33     7    31    1
    34     8    32    1
    35     9    33    1
    36    10    34    1
    37    11    35    1
    38    12    36    1
    39    13    37    1
    40    20    38    1
    41    20    39    1
    42    20    40    1
    43    21    41    1
    44    22    42    1
