@<TRIPOS>MOLECULE
AG-690/11629047
 37 41 0 0 0
SMALL
USER_CHARGES

@<TRIPOS>ATOM
      1 C           2.0996    4.4574    5.8828 C.ar    1  LIG1       -0.0993
      2 C           1.1142    0.4352   -0.7620 C.ar    1  LIG1       -0.0996
      3 C           2.9612    7.5058   -1.2757 C.ar    1  LIG1       -0.0996
      4 C           0.8016    4.7660    5.4684 C.ar    1  LIG1       -0.0920
      5 C          -0.0272    0.7669   -1.4884 C.ar    1  LIG1       -0.0918
      6 C           1.7782    7.6765   -1.9910 C.ar    1  LIG1       -0.0918
      7 C           3.0965    4.1291    4.9537 C.ar    1  LIG1       -0.0960
      8 C           1.9812    1.4382   -0.3273 C.ar    1  LIG1       -0.0912
      9 C           3.2448    6.2772   -0.6782 C.ar    1  LIG1       -0.0912
     10 C           0.4513    4.7584    4.1149 C.ar    1  LIG1       -0.0564
     11 C          -0.2993    2.1008   -1.7869 C.ar    1  LIG1       -0.0511
     12 C           0.8809    6.6172   -2.1156 C.ar    1  LIG1       -0.0511
     13 C           3.4592    3.8464    2.3773 C.ar    1  LIG1       -0.0683
     14 C           2.7664    4.1156    3.5872 C.ar    1  LIG1       -0.0683
     15 C           1.7141    2.7857   -0.6151 C.ar    1  LIG1       -0.0403
     16 C           2.3459    5.2052   -0.7906 C.ar    1  LIG1       -0.0402
     17 C           1.4631    4.4285    3.2151 C.ar    1  LIG1        0.0156
     18 C           0.5727    3.1056   -1.3584 C.ar    1  LIG1        0.0234
     19 C           1.1678    5.3838   -1.5241 C.ar    1  LIG1        0.0234
     20 C           2.5452    4.0110    1.3624 C.ar    1  LIG1        0.0164
     21 C           2.6362    3.8797   -0.1170 C.3     1  LIG1        0.0422
     22 O           1.3314    4.3640    1.8602 O.2     1  LIG1       -0.3634
     23 O           0.2348    4.3913   -1.7096 O.3     1  LIG1       -0.3563
     24 H           2.3418    4.4720    6.9424 H       1  LIG1        0.1189
     25 H           1.3280   -0.6042   -0.5309 H       1  LIG1        0.1184
     26 H           3.6620    8.3297   -1.1806 H       1  LIG1        0.1184
     27 H           0.0491    5.0170    6.2120 H       1  LIG1        0.1313
     28 H          -0.7033   -0.0137   -1.8244 H       1  LIG1        0.1334
     29 H           1.5566    8.6336   -2.4544 H       1  LIG1        0.1334
     30 H           4.1008    3.8912    5.2906 H       1  LIG1        0.1293
     31 H           2.8652    1.1632    0.2429 H       1  LIG1        0.1303
     32 H           4.1704    6.1616   -0.1195 H       1  LIG1        0.1303
     33 H          -0.5533    4.9965    3.7860 H       1  LIG1        0.1339
     34 H          -1.1888    2.3509   -2.3587 H       1  LIG1        0.1346
     35 H          -0.0371    6.7566   -2.6803 H       1  LIG1        0.1345
     36 H           4.4974    3.5674    2.2629 H       1  LIG1        0.1307
     37 H           3.6614    3.5925   -0.3861 H       1  LIG1        0.1491
@<TRIPOS>BOND
     1     1     4   ar
     2     1     7   ar
     3     2     5   ar
     4     2     8   ar
     5     3     6   ar
     6     3     9   ar
     7     4    10   ar
     8     5    11   ar
     9     6    12   ar
    10     7    14   ar
    11     8    15   ar
    12     9    16   ar
    13    10    17   ar
    14    11    18   ar
    15    12    19   ar
    16    13    14   ar
    17    13    20   ar
    18    14    17   ar
    19    15    18   ar
    20    15    21    1
    21    16    19   ar
    22    16    21    1
    23    17    22   ar
    24    18    23    1
    25    19    23    1
    26    20    21    1
    27    20    22   ar
    28     1    24    1
    29     2    25    1
    30     3    26    1
    31     4    27    1
    32     5    28    1
    33     6    29    1
    34     7    30    1
    35     8    31    1
    36     9    32    1
    37    10    33    1
    38    11    34    1
    39    12    35    1
    40    13    36    1
    41    21    37    1
