@<TRIPOS>MOLECULE
AG-690/33408017
 41 44 0 0 0
SMALL
USER_CHARGES

@<TRIPOS>ATOM
      1 C           3.1212    4.1882    4.7566 C.ar    1  LIG1       -0.0647
      2 C           0.7630    4.4008    4.2760 C.ar    1  LIG1       -0.0626
      3 C           2.2733    1.4009   -0.9781 C.ar    1  LIG1       -0.0854
      4 C           0.5744    3.0286   -0.4293 C.ar    1  LIG1       -0.0843
      5 C           3.3999    5.9340   -1.5845 C.ar    1  LIG1       -0.0481
      6 C           1.0759    6.2265   -0.9928 C.ar    1  LIG1       -0.0446
      7 C           1.3139    0.6147   -1.6162 C.ar    1  LIG1       -0.0714
      8 C          -0.3850    2.2425   -1.0675 C.ar    1  LIG1       -0.0700
      9 C           2.8445    4.2086    6.1235 C.ar    1  LIG1       -0.0732
     10 C           0.4863    4.4212    5.6430 C.ar    1  LIG1       -0.0721
     11 C           3.2227    6.7645   -2.6910 C.ar    1  LIG1       -0.0756
     12 C           0.8987    7.0570   -2.0993 C.ar    1  LIG1       -0.0740
     13 C           2.0804    4.2843    3.8327 C.ar    1  LIG1       -0.0275
     14 C           1.9035    2.6079   -0.3847 C.ar    1  LIG1       -0.0748
     15 C           2.3264    5.6649   -0.7353 C.ar    1  LIG1       -0.0179
     16 C          -0.0151    1.0355   -1.6610 C.ar    1  LIG1       -0.0144
     17 C           1.5270    4.3250    6.5668 C.ar    1  LIG1       -0.0378
     18 C           1.9721    7.3260   -2.9484 C.ar    1  LIG1       -0.0445
     19 C           2.3689    4.2631    2.4076 C.2     1  LIG1        0.0137
     20 C           3.0525    3.0803    1.7781 C.3     1  LIG1        0.0322
     21 C           2.9312    3.4511    0.2976 C.3     1  LIG1        0.0241
     22 N           2.0964    5.2345    1.5944 N.2     1  LIG1       -0.3196
     23 N           2.5000    4.8486    0.3510 N.pl3   1  LIG1       -0.3190
     24 CL         -1.1984    0.0656   -2.4483 Cl      1  LIG1       -0.1410
     25 BR          1.1522    4.3526    8.4188 Br      1  LIG1       -0.1075
     26 BR          1.7327    8.4528   -4.4465 Br      1  LIG1       -0.1248
     27 H           4.1514    4.0969    4.4221 H       1  LIG1        0.1409
     28 H          -0.0556    4.4764    3.5649 H       1  LIG1        0.1453
     29 H           3.3068    1.0660   -0.9473 H       1  LIG1        0.1327
     30 H           0.2782    3.9679    0.0304 H       1  LIG1        0.1289
     31 H           4.3783    5.5009   -1.3933 H       1  LIG1        0.1272
     32 H           0.2327    6.0224   -0.3375 H       1  LIG1        0.1364
     33 H           1.6169   -0.3232   -2.0745 H       1  LIG1        0.1349
     34 H          -1.4168    2.5831   -1.0944 H       1  LIG1        0.1335
     35 H           3.6669    4.1327    6.8302 H       1  LIG1        0.1388
     36 H          -0.5458    4.5124    5.9718 H       1  LIG1        0.1384
     37 H           4.0691    6.9625   -3.3437 H       1  LIG1        0.1415
     38 H          -0.0825    7.4854   -2.2867 H       1  LIG1        0.1414
     39 H           4.0995    3.0764    2.0996 H       1  LIG1        0.1017
     40 H           2.5744    2.1372    2.0570 H       1  LIG1        0.1031
     41 H           3.8904    3.3412   -0.2191 H       1  LIG1        0.1402
@<TRIPOS>BOND
     1     1     9   ar
     2     1    13   ar
     3     2    10   ar
     4     2    13   ar
     5     3     7   ar
     6     3    14   ar
     7     4     8   ar
     8     4    14   ar
     9     5    11   ar
    10     5    15   ar
    11     6    12   ar
    12     6    15   ar
    13     7    16   ar
    14     8    16   ar
    15     9    17   ar
    16    10    17   ar
    17    11    18   ar
    18    12    18   ar
    19    13    19    1
    20    14    21    1
    21    15    23    1
    22    16    24    1
    23    17    25    1
    24    18    26    1
    25    19    20    1
    26    19    22    2
    27    20    21    1
    28    21    23    1
    29    22    23    1
    30     1    27    1
    31     2    28    1
    32     3    29    1
    33     4    30    1
    34     5    31    1
    35     6    32    1
    36     7    33    1
    37     8    34    1
    38     9    35    1
    39    10    36    1
    40    11    37    1
    41    12    38    1
    42    20    39    1
    43    20    40    1
    44    21    41    1
