@<TRIPOS>MOLECULE
AG-690/33369027
 38 41 0 0 0
SMALL
USER_CHARGES

@<TRIPOS>ATOM
      1 C           1.6768    0.9252   -2.3336 C.ar    1  LIG1       -0.0854
      2 C           2.1167    6.9799   -2.2145 C.ar    1  LIG1       -0.1130
      3 C           3.1201    4.1354    4.7978 C.ar    1  LIG1       -0.0653
      4 C           0.8347    4.7738    4.3437 C.ar    1  LIG1       -0.0631
      5 C           2.2758    1.6980   -1.3390 C.ar    1  LIG1       -0.0472
      6 C           2.9254    4.4021    6.1530 C.ar    1  LIG1       -0.0655
      7 C           0.6400    5.0405    5.6989 C.ar    1  LIG1       -0.0643
      8 C           0.2867    0.8800   -2.4392 C.ar    1  LIG1       -0.0834
      9 C           2.9302    5.9192   -1.7212 C.ar    1  LIG1       -0.1078
     10 C           0.0947    2.3804   -0.5554 C.ar    1  LIG1       -0.0364
     11 C           1.0372    7.2279   -1.3955 C.ar    1  LIG1       -0.0531
     12 C           2.0748    4.3214    3.8931 C.ar    1  LIG1       -0.0285
     13 C           1.4849    2.4257   -0.4499 C.ar    1  LIG1       -0.0139
     14 C           1.6853    4.8547    6.6036 C.ar    1  LIG1       -0.0127
     15 C          -0.5044    1.6076   -1.5501 C.ar    1  LIG1       -0.0352
     16 C           2.4415    5.3971   -0.5437 C.ar    1  LIG1       -0.0392
     17 C           2.2773    4.0430    2.4802 C.2     1  LIG1        0.0147
     18 C           3.3236    4.7825    1.6922 C.3     1  LIG1        0.0359
     19 C           2.9979    4.2925    0.2788 C.3     1  LIG1        0.0314
     20 N           1.6183    3.1499    1.8116 N.2     1  LIG1       -0.3180
     21 N           2.0742    3.1851    0.5276 N.pl3   1  LIG1       -0.3155
     22 S           1.0075    6.1846   -0.0380 S.2     1  LIG1       -0.1419
     23 CL          1.4448    5.1823    8.2755 Cl      1  LIG1       -0.1399
     24 BR         -2.3879    1.5457   -1.6940 Br      1  LIG1       -0.1053
     25 H           2.2928    0.3586   -3.0259 H       1  LIG1        0.1354
     26 H           2.3131    7.5338   -3.1231 H       1  LIG1        0.1125
     27 H           4.0906    3.7836    4.4574 H       1  LIG1        0.1417
     28 H           0.0129    4.9220    3.6478 H       1  LIG1        0.1463
     29 H           3.3601    1.7261   -1.2657 H       1  LIG1        0.1366
     30 H           3.7485    4.2524    6.8469 H       1  LIG1        0.1371
     31 H          -0.3317    5.3929    6.0354 H       1  LIG1        0.1368
     32 H          -0.1642    0.2728   -3.2199 H       1  LIG1        0.1244
     33 H           3.8287    5.5620   -2.2084 H       1  LIG1        0.1165
     34 H          -0.5173    2.9500    0.1408 H       1  LIG1        0.1344
     35 H           0.2644    7.9716   -1.5296 H       1  LIG1        0.1644
     36 H           3.2449    5.8639    1.8355 H       1  LIG1        0.1065
     37 H           4.3112    4.4360    2.0151 H       1  LIG1        0.1043
     38 H           3.9088    3.9245   -0.2083 H       1  LIG1        0.1556
@<TRIPOS>BOND
     1     1     5   ar
     2     1     8   ar
     3     2     9   ar
     4     2    11   ar
     5     3     6   ar
     6     3    12   ar
     7     4     7   ar
     8     4    12   ar
     9     5    13   ar
    10     6    14   ar
    11     7    14   ar
    12     8    15   ar
    13     9    16   ar
    14    10    13   ar
    15    10    15   ar
    16    11    22   ar
    17    12    17    1
    18    13    21    1
    19    14    23    1
    20    15    24    1
    21    16    19    1
    22    16    22   ar
    23    17    18    1
    24    17    20    2
    25    18    19    1
    26    19    21    1
    27    20    21    1
    28     1    25    1
    29     2    26    1
    30     3    27    1
    31     4    28    1
    32     5    29    1
    33     6    30    1
    34     7    31    1
    35     8    32    1
    36     9    33    1
    37    10    34    1
    38    11    35    1
    39    18    36    1
    40    18    37    1
    41    19    38    1
