@<TRIPOS>MOLECULE
AH-034/11963837
 38 40 0 0 0
SMALL
USER_CHARGES

@<TRIPOS>ATOM
      1 C           0.4000    0.6481   -1.6898 C.ar    1  LIG1       -0.1050
      2 C           2.1903    7.5414   -2.6167 C.ar    1  LIG1       -0.1060
      3 C           1.7319    0.9916   -1.9213 C.ar    1  LIG1       -0.1043
      4 C          -0.3969    1.4540   -0.8768 C.ar    1  LIG1       -0.1020
      5 C           1.0731    6.7063   -2.6023 C.ar    1  LIG1       -0.1044
      6 C           3.2594    7.2908   -1.7564 C.ar    1  LIG1       -0.1014
      7 C           2.2669    2.1411   -1.3397 C.ar    1  LIG1       -0.0983
      8 C           0.1380    2.6035   -0.2952 C.ar    1  LIG1       -0.0942
      9 C           1.0249    5.6208   -1.7276 C.ar    1  LIG1       -0.0958
     10 C           3.2111    6.2053   -0.8817 C.ar    1  LIG1       -0.0923
     11 C           0.6512    4.6034    4.2679 C.ar    1  LIG1       -0.0455
     12 C           2.8515    3.6131    4.3922 C.ar    1  LIG1       -0.0469
     13 C           0.7582    5.0081    5.5984 C.ar    1  LIG1       -0.0693
     14 C           2.9584    4.0178    5.7227 C.ar    1  LIG1       -0.0700
     15 C           1.4700    2.9470   -0.5266 C.ar    1  LIG1       -0.0692
     16 C           2.0940    5.3704   -0.8673 C.ar    1  LIG1       -0.0659
     17 C           1.6978    3.9058    3.6648 C.ar    1  LIG1        0.0305
     18 C           1.9118    4.7154    6.3259 C.ar    1  LIG1       -0.0357
     19 C           1.4146    4.5657    1.4470 C.2     1  LIG1        0.1929
     20 C           2.0415    4.1760    0.0958 C.3     1  LIG1        0.1045
     21 O           0.8807    5.6356    1.7117 O.2     1  LIG1       -0.4349
     22 O           1.5904    3.5003    2.3327 O.3     1  LIG1       -0.2993
     23 BR          2.0578    5.2655    8.1280 Br      1  LIG1       -0.1063
     24 H          -0.0168   -0.2461   -2.1439 H       1  LIG1        0.1182
     25 H           2.2282    8.3857   -3.2988 H       1  LIG1        0.1172
     26 H           2.3523    0.3649   -2.5552 H       1  LIG1        0.1182
     27 H          -1.4343    1.1874   -0.6973 H       1  LIG1        0.1199
     28 H           0.2410    6.9006   -3.2728 H       1  LIG1        0.1170
     29 H           4.1299    7.9400   -1.7681 H       1  LIG1        0.1168
     30 H           3.3057    2.4008   -1.5255 H       1  LIG1        0.1142
     31 H          -0.4904    3.2253    0.3370 H       1  LIG1        0.1244
     32 H           0.1502    4.9757   -1.7232 H       1  LIG1        0.1214
     33 H           4.0487    6.0180   -0.2149 H       1  LIG1        0.1226
     34 H          -0.2502    4.8340    3.7066 H       1  LIG1        0.1436
     35 H           3.6696    3.0691    3.9279 H       1  LIG1        0.1386
     36 H          -0.0665    5.5506    6.0535 H       1  LIG1        0.1446
     37 H           3.8642    3.7818    6.2753 H       1  LIG1        0.1434
     38 H           3.0945    3.9750    0.3870 H       1  LIG1        0.1590
@<TRIPOS>BOND
     1     1     3   ar
     2     1     4   ar
     3     2     5   ar
     4     2     6   ar
     5     3     7   ar
     6     4     8   ar
     7     5     9   ar
     8     6    10   ar
     9     7    15   ar
    10     8    15   ar
    11     9    16   ar
    12    10    16   ar
    13    11    13   ar
    14    11    17   ar
    15    12    14   ar
    16    12    17   ar
    17    13    18   ar
    18    14    18   ar
    19    15    20    1
    20    16    20    1
    21    17    22    1
    22    18    23    1
    23    19    20    1
    24    19    21    2
    25    19    22    1
    26     1    24    1
    27     2    25    1
    28     3    26    1
    29     4    27    1
    30     5    28    1
    31     6    29    1
    32     7    30    1
    33     8    31    1
    34     9    32    1
    35    10    33    1
    36    11    34    1
    37    12    35    1
    38    13    36    1
    39    14    37    1
    40    20    38    1
