@<TRIPOS>MOLECULE
AG-690/33369044
 38 41 0 0 0
SMALL
USER_CHARGES

@<TRIPOS>ATOM
      1 C           1.6767    0.9251   -2.3336 C.ar    1  LIG1       -0.0861
      2 C           2.1168    6.9801   -2.2144 C.ar    1  LIG1       -0.1131
      3 C           3.1199    4.1351    4.7976 C.ar    1  LIG1       -0.0646
      4 C           0.8345    4.7740    4.3438 C.ar    1  LIG1       -0.0623
      5 C           2.2758    1.6982   -1.3392 C.ar    1  LIG1       -0.0488
      6 C           0.2866    0.8796   -2.4390 C.ar    1  LIG1       -0.0757
      7 C           2.9256    4.4020    6.1527 C.ar    1  LIG1       -0.0734
      8 C           0.6401    5.0409    5.6991 C.ar    1  LIG1       -0.0721
      9 C           2.9302    5.9194   -1.7211 C.ar    1  LIG1       -0.1078
     10 C           0.0947    2.3803   -0.5554 C.ar    1  LIG1       -0.0290
     11 C           1.0372    7.2280   -1.3955 C.ar    1  LIG1       -0.0531
     12 C           2.0744    4.3212    3.8930 C.ar    1  LIG1       -0.0271
     13 C           1.4848    2.4257   -0.4500 C.ar    1  LIG1       -0.0147
     14 C          -0.5045    1.6072   -1.5499 C.ar    1  LIG1       -0.0102
     15 C           1.6856    4.8549    6.6035 C.ar    1  LIG1       -0.0380
     16 C           2.4415    5.3971   -0.5437 C.ar    1  LIG1       -0.0390
     17 C           2.2771    4.0429    2.4802 C.2     1  LIG1        0.0163
     18 C           3.3234    4.7826    1.6923 C.3     1  LIG1        0.0363
     19 C           2.9978    4.2926    0.2787 C.3     1  LIG1        0.0318
     20 N           1.6181    3.1498    1.8115 N.2     1  LIG1       -0.3168
     21 N           2.0740    3.1851    0.5275 N.pl3   1  LIG1       -0.3150
     22 S           1.0074    6.1846   -0.0380 S.2     1  LIG1       -0.1416
     23 CL         -2.2194    1.5497   -1.6801 Cl      1  LIG1       -0.1373
     24 BR          1.4222    5.2165    8.4397 Br      1  LIG1       -0.1082
     25 H           2.2933    0.3584   -3.0252 H       1  LIG1        0.1363
     26 H           2.3132    7.5340   -3.1230 H       1  LIG1        0.1124
     27 H           4.0902    3.7825    4.4570 H       1  LIG1        0.1408
     28 H           0.0129    4.9224    3.6477 H       1  LIG1        0.1455
     29 H           3.3598    1.7269   -1.2658 H       1  LIG1        0.1341
     30 H          -0.1666    0.2729   -3.2190 H       1  LIG1        0.1229
     31 H           3.7506    4.2518    6.8444 H       1  LIG1        0.1386
     32 H          -0.3322    5.3932    6.0340 H       1  LIG1        0.1384
     33 H           3.8287    5.5621   -2.2083 H       1  LIG1        0.1164
     34 H          -0.5185    2.9490    0.1405 H       1  LIG1        0.1326
     35 H           0.2644    7.9717   -1.5296 H       1  LIG1        0.1644
     36 H           3.2448    5.8640    1.8356 H       1  LIG1        0.1066
     37 H           4.3111    4.4359    2.0152 H       1  LIG1        0.1044
     38 H           3.9087    3.9246   -0.2082 H       1  LIG1        0.1560
@<TRIPOS>BOND
     1     1     5   ar
     2     1     6   ar
     3     2     9   ar
     4     2    11   ar
     5     3     7   ar
     6     3    12   ar
     7     4     8   ar
     8     4    12   ar
     9     5    13   ar
    10     6    14   ar
    11     7    15   ar
    12     8    15   ar
    13     9    16   ar
    14    10    13   ar
    15    10    14   ar
    16    11    22   ar
    17    12    17    1
    18    13    21    1
    19    14    23    1
    20    15    24    1
    21    16    19    1
    22    16    22   ar
    23    17    18    1
    24    17    20    2
    25    18    19    1
    26    19    21    1
    27    20    21    1
    28     1    25    1
    29     2    26    1
    30     3    27    1
    31     4    28    1
    32     5    29    1
    33     6    30    1
    34     7    31    1
    35     8    32    1
    36     9    33    1
    37    10    34    1
    38    11    35    1
    39    18    36    1
    40    18    37    1
    41    19    38    1
