@<TRIPOS>MOLECULE
AE-848/30862026
 44 47 0 0 0
SMALL
USER_CHARGES

@<TRIPOS>ATOM
      1 C           1.7491    4.6656    6.7081 C.ar    1  LIG1       -0.1050
      2 C           1.7899    7.4400   -2.5518 C.ar    1  LIG1       -0.1084
      3 C           0.4367    0.7176   -2.3097 C.ar    1  LIG1       -0.1063
      4 C           2.9622    4.9358    6.0747 C.ar    1  LIG1       -0.0999
      5 C           0.6502    4.2441    5.9596 C.ar    1  LIG1       -0.0987
      6 C           0.9643    7.1825   -1.4574 C.ar    1  LIG1       -0.1066
      7 C           2.9737    6.7208   -2.7169 C.ar    1  LIG1       -0.1062
      8 C           1.7541    0.6662   -1.8542 C.ar    1  LIG1       -0.0960
      9 C          -0.4315    1.6955   -1.8241 C.ar    1  LIG1       -0.0985
     10 C           3.0762    4.7846    4.6928 C.ar    1  LIG1       -0.0790
     11 C           0.7642    4.0930    4.5776 C.ar    1  LIG1       -0.0767
     12 C           1.3224    6.2059   -0.5280 C.ar    1  LIG1       -0.0971
     13 C           3.3318    5.7442   -1.7875 C.ar    1  LIG1       -0.0956
     14 C           2.2033    1.5927   -0.9131 C.ar    1  LIG1       -0.0565
     15 C           0.0177    2.6219   -0.8831 C.ar    1  LIG1       -0.0593
     16 C           1.9772    4.3632    3.9442 C.ar    1  LIG1       -0.0389
     17 C           2.5063    5.4868   -0.6931 C.ar    1  LIG1       -0.0826
     18 C           1.3351    2.5706   -0.4276 C.ar    1  LIG1       -0.0265
     19 C           2.0959    4.2059    2.5060 C.2     1  LIG1        0.0080
     20 C           3.0478    5.0560    1.7158 C.3     1  LIG1        0.0270
     21 C           2.8908    4.4400    0.3028 C.3     1  LIG1        0.0079
     22 C           4.1689    3.7256   -0.1357 C.3     1  LIG1       -0.0296
     23 N           1.4093    3.3591    1.8081 N.2     1  LIG1       -0.3247
     24 N           1.7766    3.4818    0.4976 N.pl3   1  LIG1       -0.3280
     25 H           1.6604    4.7833    7.7841 H       1  LIG1        0.1178
     26 H           1.5102    8.1994   -3.2761 H       1  LIG1        0.1147
     27 H           0.0871   -0.0040   -3.0423 H       1  LIG1        0.1134
     28 H           3.8177    5.2640    6.6577 H       1  LIG1        0.1189
     29 H          -0.2943    4.0335    6.4528 H       1  LIG1        0.1184
     30 H           0.0420    7.7417   -1.3292 H       1  LIG1        0.1161
     31 H           3.6161    6.9202   -3.5694 H       1  LIG1        0.1148
     32 H           2.4298   -0.0951   -2.2321 H       1  LIG1        0.1218
     33 H          -1.4573    1.7353   -2.1790 H       1  LIG1        0.1218
     34 H           4.0262    4.9979    4.2094 H       1  LIG1        0.1271
     35 H          -0.0988    3.7641    4.0044 H       1  LIG1        0.1321
     36 H           0.6731    6.0122    0.3217 H       1  LIG1        0.1192
     37 H           4.2560    5.1889   -1.9242 H       1  LIG1        0.1242
     38 H           3.2318    1.5440   -0.5646 H       1  LIG1        0.1271
     39 H          -0.6677    3.3797   -0.5121 H       1  LIG1        0.1272
     40 H           2.7292    6.1025    1.7724 H       1  LIG1        0.0995
     41 H           4.0617    4.9614    2.1171 H       1  LIG1        0.0976
     42 H           4.4366    2.9674    0.5978 H       1  LIG1        0.0526
     43 H           4.9818    4.4444   -0.2198 H       1  LIG1        0.0554
     44 H           4.0112    3.2492   -1.1014 H       1  LIG1        0.0574
@<TRIPOS>BOND
     1     1     4   ar
     2     1     5   ar
     3     2     6   ar
     4     2     7   ar
     5     3     8   ar
     6     3     9   ar
     7     4    10   ar
     8     5    11   ar
     9     6    12   ar
    10     7    13   ar
    11     8    14   ar
    12     9    15   ar
    13    10    16   ar
    14    11    16   ar
    15    12    17   ar
    16    13    17   ar
    17    14    18   ar
    18    15    18   ar
    19    16    19    1
    20    17    21    1
    21    18    24    1
    22    19    20    1
    23    19    23    2
    24    20    21    1
    25    21    22    1
    26    21    24    1
    27    23    24    1
    28     1    25    1
    29     2    26    1
    30     3    27    1
    31     4    28    1
    32     5    29    1
    33     6    30    1
    34     7    31    1
    35     8    32    1
    36     9    33    1
    37    10    34    1
    38    11    35    1
    39    12    36    1
    40    13    37    1
    41    14    38    1
    42    15    39    1
    43    20    40    1
    44    20    41    1
    45    22    42    1
    46    22    43    1
    47    22    44    1
