@<TRIPOS>MOLECULE
AP-518/42402994
 43 45 0 0 0
SMALL
USER_CHARGES

@<TRIPOS>ATOM
      1 C           2.0195    7.6184   -2.2552 C.ar    1  LIG1       -0.1078
      2 C           2.9795    6.6751   -2.6214 C.ar    1  LIG1       -0.1057
      3 C           1.1828    7.3753   -1.1660 C.ar    1  LIG1       -0.1041
      4 C           2.9243    3.5988    4.8641 C.ar    1  LIG1       -0.0557
      5 C           1.2715    5.0978    3.9378 C.ar    1  LIG1       -0.0735
      6 C           3.1027    5.4885   -1.8986 C.ar    1  LIG1       -0.0949
      7 C           1.3059    6.1888   -0.4431 C.ar    1  LIG1       -0.0925
      8 C           2.2012    2.0246   -1.6292 C.ar    1  LIG1       -0.0823
      9 C           0.3418    2.5086   -0.1644 C.ar    1  LIG1       -0.0785
     10 C           2.4055    3.8154    6.1405 C.ar    1  LIG1       -0.0471
     11 C           0.7527    5.3145    5.2143 C.ar    1  LIG1       -0.0650
     12 C           1.4902    0.9580   -2.1792 C.ar    1  LIG1       -0.0799
     13 C          -0.3693    1.4421   -0.7145 C.ar    1  LIG1       -0.0776
     14 C           2.3574    4.2401    3.7626 C.ar    1  LIG1        0.0220
     15 C           2.2659    5.2454   -0.8094 C.ar    1  LIG1       -0.0728
     16 C           1.6269    2.7999   -0.6217 C.ar    1  LIG1       -0.0650
     17 C           1.3197    4.6732    6.3157 C.ar    1  LIG1       -0.0097
     18 C           0.2050    0.6668   -1.7219 C.ar    1  LIG1       -0.0407
     19 C           2.8981    4.0141    2.4316 C.2     1  LIG1        0.1017
     20 C           1.4408    4.1979    8.6427 C.3     1  LIG1        0.0259
     21 C           2.3988    3.9577   -0.0245 C.3     1  LIG1        0.0169
     22 N           2.0187    4.1696    1.3537 N.am    1  LIG1       -0.3283
     23 O           4.0862    3.6780    2.2815 O.2     1  LIG1       -0.4785
     24 O           0.8133    4.8849    7.5611 O.3     1  LIG1       -0.4139
     25 BR         -0.7575   -0.7787   -2.4673 Br      1  LIG1       -0.1112
     26 H           1.9247    8.5429   -2.8173 H       1  LIG1        0.1147
     27 H           3.6319    6.8648   -3.4688 H       1  LIG1        0.1141
     28 H           0.4360    8.1100   -0.8799 H       1  LIG1        0.1166
     29 H           3.7706    2.9279    4.7397 H       1  LIG1        0.1567
     30 H           0.8224    5.6021    3.0860 H       1  LIG1        0.1330
     31 H           3.8534    4.7592   -2.1913 H       1  LIG1        0.1145
     32 H           0.6496    6.0077    0.4040 H       1  LIG1        0.1213
     33 H           3.2018    2.2443   -1.9917 H       1  LIG1        0.1253
     34 H          -0.1132    3.1067    0.6208 H       1  LIG1        0.1345
     35 H           2.8517    3.3131    6.9945 H       1  LIG1        0.1345
     36 H          -0.0931    5.9841    5.3446 H       1  LIG1        0.1152
     37 H           1.9525    0.3632   -2.9629 H       1  LIG1        0.1357
     38 H          -1.3696    1.2285   -0.3472 H       1  LIG1        0.1374
     39 H           0.9395    4.4556    9.5789 H       1  LIG1        0.1236
     40 H           2.4955    4.4803    8.6921 H       1  LIG1        0.0907
     41 H           1.3615    3.1214    8.4739 H       1  LIG1        0.0909
     42 H           3.4579    3.6724    0.0238 H       1  LIG1        0.1589
     43 H           1.0436    4.3833    1.5359 H       1  LIG1        0.3003
@<TRIPOS>BOND
     1     1     2   ar
     2     1     3   ar
     3     2     6   ar
     4     3     7   ar
     5     4    10   ar
     6     4    14   ar
     7     5    11   ar
     8     5    14   ar
     9     6    15   ar
    10     7    15   ar
    11     8    12   ar
    12     8    16   ar
    13     9    13   ar
    14     9    16   ar
    15    10    17   ar
    16    11    17   ar
    17    12    18   ar
    18    13    18   ar
    19    14    19    1
    20    15    21    1
    21    16    21    1
    22    17    24    1
    23    18    25    1
    24    19    22   am
    25    19    23    2
    26    20    24    1
    27    21    22    1
    28     1    26    1
    29     2    27    1
    30     3    28    1
    31     4    29    1
    32     5    30    1
    33     6    31    1
    34     7    32    1
    35     8    33    1
    36     9    34    1
    37    10    35    1
    38    11    36    1
    39    12    37    1
    40    13    38    1
    41    20    39    1
    42    20    40    1
    43    20    41    1
    44    21    42    1
    45    22    43    1
