@<TRIPOS>MOLECULE
AA-504/07994011
 41 43 0 0 0
SMALL
USER_CHARGES

@<TRIPOS>ATOM
      1 C           0.3764    0.5990   -1.8874 C.ar    1  LIG1       -0.1084
      2 C           2.2047    7.5772   -2.3244 C.ar    1  LIG1       -0.1066
      3 C           1.7073    0.9512   -2.1115 C.ar    1  LIG1       -0.1024
      4 C          -0.4077    1.3541   -1.0150 C.ar    1  LIG1       -0.1070
      5 C           3.1744    6.5870   -2.4818 C.ar    1  LIG1       -0.1047
      6 C           1.1870    7.4137   -1.3847 C.ar    1  LIG1       -0.1049
      7 C           0.5763    4.8194    5.6667 C.ar    1  LIG1       -0.0893
      8 C           2.2542    2.0585   -1.4631 C.ar    1  LIG1       -0.0916
      9 C           0.1394    2.4613   -0.3667 C.ar    1  LIG1       -0.0976
     10 C           3.1262    5.4331   -1.6995 C.ar    1  LIG1       -0.0987
     11 C           1.1389    6.2599   -0.6023 C.ar    1  LIG1       -0.0985
     12 C           1.6155    4.6574    6.5763 C.ar    1  LIG1       -0.0743
     13 C           0.8168    4.6500    4.3078 C.ar    1  LIG1       -0.0407
     14 C           1.4703    2.8136   -0.5907 C.ar    1  LIG1       -0.0685
     15 C           2.1084    5.2696   -0.7596 C.ar    1  LIG1       -0.0747
     16 C           2.8666    4.3285    6.0799 C.ar    1  LIG1       -0.0486
     17 C           2.1037    4.3217    3.9128 C.ar    1  LIG1        0.0099
     18 C           1.4174    4.2731    1.4878 C.2     1  LIG1        0.1280
     19 C           4.0051    4.1466    7.0273 C.3     1  LIG1       -0.0059
     20 C           2.0546    3.9975    0.1031 C.3     1  LIG1        0.0888
     21 N           3.1384    4.1558    4.7669 N.ar    1  LIG1       -0.3633
     22 N           2.3374    4.1497    2.5278 N.am    1  LIG1       -0.2728
     23 O           0.2270    4.5564    1.5904 O.2     1  LIG1       -0.4410
     24 H          -0.0498   -0.2624   -2.3933 H       1  LIG1        0.1139
     25 H           2.2432    8.4761   -2.9328 H       1  LIG1        0.1163
     26 H           2.3175    0.3641   -2.7915 H       1  LIG1        0.1144
     27 H          -1.4442    1.0807   -0.8412 H       1  LIG1        0.1136
     28 H           3.9675    6.7145   -3.2127 H       1  LIG1        0.1167
     29 H           0.4325    8.1850   -1.2611 H       1  LIG1        0.1175
     30 H          -0.4188    5.0774    6.0160 H       1  LIG1        0.1390
     31 H           3.2922    2.3255   -1.6436 H       1  LIG1        0.1240
     32 H          -0.4790    3.0437    0.3113 H       1  LIG1        0.1174
     33 H           3.8859    4.6667   -1.8290 H       1  LIG1        0.1178
     34 H           0.3422    6.1411    0.1272 H       1  LIG1        0.1207
     35 H           1.4407    4.7879    7.6389 H       1  LIG1        0.1156
     36 H           0.0112    4.7751    3.5913 H       1  LIG1        0.1234
     37 H           4.0665    3.1014    7.3530 H       1  LIG1        0.0728
     38 H           4.9590    4.4229    6.5603 H       1  LIG1        0.0762
     39 H           3.8893    4.7821    7.9146 H       1  LIG1        0.0759
     40 H           3.1172    3.7755    0.3414 H       1  LIG1        0.1431
     41 H           3.2960    3.9164    2.2773 H       1  LIG1        0.3548
@<TRIPOS>BOND
     1     1     3   ar
     2     1     4   ar
     3     2     5   ar
     4     2     6   ar
     5     3     8   ar
     6     4     9   ar
     7     5    10   ar
     8     6    11   ar
     9     7    12   ar
    10     7    13   ar
    11     8    14   ar
    12     9    14   ar
    13    10    15   ar
    14    11    15   ar
    15    12    16   ar
    16    13    17   ar
    17    14    20    1
    18    15    20    1
    19    16    19    1
    20    16    21   ar
    21    17    21   ar
    22    17    22    1
    23    18    20    1
    24    18    22   am
    25    18    23    2
    26     1    24    1
    27     2    25    1
    28     3    26    1
    29     4    27    1
    30     5    28    1
    31     6    29    1
    32     7    30    1
    33     8    31    1
    34     9    32    1
    35    10    33    1
    36    11    34    1
    37    12    35    1
    38    13    36    1
    39    19    37    1
    40    19    38    1
    41    19    39    1
    42    20    40    1
    43    22    41    1
