@<TRIPOS>MOLECULE
AH-487/41976558
 39 41 0 0 0
SMALL
USER_CHARGES

@<TRIPOS>ATOM
      1 C           0.3766    0.5965   -1.9155 C.ar    1  LIG1       -0.1078
      2 C           2.2056    7.5754   -2.3377 C.ar    1  LIG1       -0.1057
      3 C           1.7081    0.9491   -2.1351 C.ar    1  LIG1       -0.1061
      4 C          -0.4102    1.3503   -1.0444 C.ar    1  LIG1       -0.1024
      5 C           3.1758    6.5855   -2.4935 C.ar    1  LIG1       -0.1044
      6 C           1.1851    7.4106   -1.4012 C.ar    1  LIG1       -0.1042
      7 C           1.6236    4.6705    6.6225 C.ar    1  LIG1       -0.0797
      8 C           2.2530    2.0556   -1.4836 C.ar    1  LIG1       -0.0967
      9 C           0.1349    2.4567   -0.3930 C.ar    1  LIG1       -0.0918
     10 C           3.1254    5.4306   -1.7129 C.ar    1  LIG1       -0.0989
     11 C           1.1347    6.2557   -0.6205 C.ar    1  LIG1       -0.0984
     12 C           2.6123    3.7860    6.1916 C.ar    1  LIG1       -0.0366
     13 C           0.8671    5.3794    5.6893 C.ar    1  LIG1       -0.0316
     14 C           1.4664    2.8095   -0.6125 C.ar    1  LIG1       -0.0679
     15 C           2.1049    5.2657   -0.7763 C.ar    1  LIG1       -0.0748
     16 C           2.0880    4.3193    3.8943 C.ar    1  LIG1        0.0547
     17 C           2.8445    3.6103    4.8276 C.ar    1  LIG1        0.1052
     18 C           1.0994    5.2037    4.3252 C.ar    1  LIG1        0.1168
     19 C           1.4072    4.2662    1.4678 C.2     1  LIG1        0.1140
     20 C           2.0486    3.9925    0.0846 C.3     1  LIG1        0.0875
     21 N           2.3242    4.1414    2.5103 N.am    1  LIG1       -0.2977
     22 O           0.2165    4.5492    1.5672 O.2     1  LIG1       -0.4577
     23 F           3.7976    2.7578    4.4247 F       1  LIG1       -0.2545
     24 F           0.3662    5.8909    3.4375 F       1  LIG1       -0.2372
     25 H          -0.0480   -0.2643   -2.4238 H       1  LIG1        0.1147
     26 H           2.2457    8.4752   -2.9447 H       1  LIG1        0.1174
     27 H           2.3203    0.3630   -2.8141 H       1  LIG1        0.1147
     28 H          -1.4471    1.0767   -0.8740 H       1  LIG1        0.1148
     29 H           3.9711    6.7140   -3.2218 H       1  LIG1        0.1176
     30 H           0.4302    8.1816   -1.2788 H       1  LIG1        0.1185
     31 H           1.4421    4.8072    7.6849 H       1  LIG1        0.1429
     32 H           3.2915    2.3229   -1.6606 H       1  LIG1        0.1184
     33 H          -0.4856    3.0381    0.2840 H       1  LIG1        0.1235
     34 H           3.8855    4.6644   -1.8412 H       1  LIG1        0.1183
     35 H           0.3358    6.1359    0.1065 H       1  LIG1        0.1209
     36 H           3.2013    3.2341    6.9183 H       1  LIG1        0.1407
     37 H           0.0975    6.0683    6.0252 H       1  LIG1        0.1411
     38 H           3.1104    3.7702    0.3258 H       1  LIG1        0.1451
     39 H           3.2821    3.9023    2.2629 H       1  LIG1        0.3271
@<TRIPOS>BOND
     1     1     3   ar
     2     1     4   ar
     3     2     5   ar
     4     2     6   ar
     5     3     8   ar
     6     4     9   ar
     7     5    10   ar
     8     6    11   ar
     9     7    12   ar
    10     7    13   ar
    11     8    14   ar
    12     9    14   ar
    13    10    15   ar
    14    11    15   ar
    15    12    17   ar
    16    13    18   ar
    17    14    20    1
    18    15    20    1
    19    16    17   ar
    20    16    18   ar
    21    16    21    1
    22    17    23    1
    23    18    24    1
    24    19    20    1
    25    19    21   am
    26    19    22    2
    27     1    25    1
    28     2    26    1
    29     3    27    1
    30     4    28    1
    31     5    29    1
    32     6    30    1
    33     7    31    1
    34     8    32    1
    35     9    33    1
    36    10    34    1
    37    11    35    1
    38    12    36    1
    39    13    37    1
    40    20    38    1
    41    21    39    1
