@<TRIPOS>MOLECULE
AK-968/13146033
 41 44 0 0 0
SMALL
USER_CHARGES

@<TRIPOS>ATOM
      1 C           1.2003    7.1608   -1.3786 C.ar    1  LIG1       -0.1141
      2 C           3.1465    4.2206    4.8015 C.ar    1  LIG1       -0.0743
      3 C           0.8697    4.8702    4.3202 C.ar    1  LIG1       -0.0767
      4 C           2.9413    4.5020    6.1521 C.ar    1  LIG1       -0.0957
      5 C           0.6645    5.1516    5.6709 C.ar    1  LIG1       -0.0970
      6 C           2.3373    1.7289   -1.3193 C.ar    1  LIG1       -0.0478
      7 C           0.1548    2.4347   -0.5604 C.ar    1  LIG1       -0.0435
      8 C           1.7408    0.9507   -2.3112 C.ar    1  LIG1       -0.0447
      9 C          -0.4418    1.6566   -1.5525 C.ar    1  LIG1       -0.0426
     10 C           1.3953    6.1973   -0.3471 C.ar    1  LIG1       -0.1083
     11 C           2.1863    7.0978   -2.3386 C.ar    1  LIG1       -0.0536
     12 C           2.1107    4.4047    3.8855 C.ar    1  LIG1       -0.0355
     13 C           1.7003    4.9675    6.5869 C.ar    1  LIG1       -0.1150
     14 C           1.5443    2.4708   -0.4438 C.ar    1  LIG1       -0.0187
     15 C           0.3512    0.9146   -2.4280 C.ar    1  LIG1        0.0571
     16 C           2.5228    5.4344   -0.5583 C.ar    1  LIG1       -0.0388
     17 C           2.3233    4.1110    2.4770 C.2     1  LIG1        0.0113
     18 C           3.3814    4.8356    1.6910 C.3     1  LIG1        0.0353
     19 C           3.0644    4.3341    0.2796 C.3     1  LIG1        0.0308
     20 C           1.4811    5.2671    8.0315 C.3     1  LIG1       -0.0421
     21 N           1.6636    3.2162    1.8116 N.2     1  LIG1       -0.3211
     22 N           2.1307    3.2356    0.5313 N.pl3   1  LIG1       -0.3187
     23 F          -0.2216    0.1672   -3.3806 F       1  LIG1       -0.2805
     24 S           3.3409    5.8808   -1.9949 S.2     1  LIG1       -0.1412
     25 H           0.3787    7.8640   -1.4157 H       1  LIG1        0.1117
     26 H           4.1171    3.8583    4.4730 H       1  LIG1        0.1355
     27 H           0.0554    5.0175    3.6156 H       1  LIG1        0.1304
     28 H           3.7537    4.3553    6.8589 H       1  LIG1        0.1205
     29 H          -0.3058    5.5133    6.0010 H       1  LIG1        0.1208
     30 H           3.4210    1.7500   -1.2374 H       1  LIG1        0.1302
     31 H          -0.4726    3.0088    0.1165 H       1  LIG1        0.1408
     32 H           2.3578    0.3731   -2.9931 H       1  LIG1        0.1375
     33 H          -1.5235    1.6279   -1.6436 H       1  LIG1        0.1380
     34 H           0.7378    6.0730    0.5040 H       1  LIG1        0.1156
     35 H           2.2840    7.7085   -3.2251 H       1  LIG1        0.1636
     36 H           3.3093    5.9190    1.8231 H       1  LIG1        0.1053
     37 H           4.3638    4.4853    2.0256 H       1  LIG1        0.1031
     38 H           3.9767    3.9549   -0.1960 H       1  LIG1        0.1551
     39 H           1.7343    6.3123    8.2473 H       1  LIG1        0.0583
     40 H           0.4359    5.0956    8.3197 H       1  LIG1        0.0545
     41 H           2.0970    4.6208    8.6702 H       1  LIG1        0.0545
@<TRIPOS>BOND
     1     1    10   ar
     2     1    11   ar
     3     2     4   ar
     4     2    12   ar
     5     3     5   ar
     6     3    12   ar
     7     4    13   ar
     8     5    13   ar
     9     6     8   ar
    10     6    14   ar
    11     7     9   ar
    12     7    14   ar
    13     8    15   ar
    14     9    15   ar
    15    10    16   ar
    16    11    24   ar
    17    12    17    1
    18    13    20    1
    19    14    22    1
    20    15    23    1
    21    16    19    1
    22    16    24   ar
    23    17    18    1
    24    17    21    2
    25    18    19    1
    26    19    22    1
    27    21    22    1
    28     1    25    1
    29     2    26    1
    30     3    27    1
    31     4    28    1
    32     5    29    1
    33     6    30    1
    34     7    31    1
    35     8    32    1
    36     9    33    1
    37    10    34    1
    38    11    35    1
    39    18    36    1
    40    18    37    1
    41    19    38    1
    42    20    39    1
    43    20    40    1
    44    20    41    1
