@<TRIPOS>MOLECULE
AO-854/10423027
 41 43 0 0 0
SMALL
USER_CHARGES

@<TRIPOS>ATOM
      1 C           0.3764    0.5989   -1.8882 C.ar    1  LIG1       -0.1063
      2 C           2.2048    7.5772   -2.3237 C.ar    1  LIG1       -0.1079
      3 C           1.7073    0.9512   -2.1121 C.ar    1  LIG1       -0.1048
      4 C          -0.4078    1.3538   -1.0158 C.ar    1  LIG1       -0.1044
      5 C           3.1745    6.5870   -2.4811 C.ar    1  LIG1       -0.1029
      6 C           1.1869    7.4135   -1.3841 C.ar    1  LIG1       -0.1062
      7 C           2.2542    2.0584   -1.4634 C.ar    1  LIG1       -0.0989
      8 C           0.1392    2.4609   -0.3672 C.ar    1  LIG1       -0.0979
      9 C           3.1262    5.4330   -1.6990 C.ar    1  LIG1       -0.0926
     10 C           1.1387    6.2596   -0.6020 C.ar    1  LIG1       -0.0968
     11 C           1.6164    4.6594    6.5763 C.ar    1  LIG1       -0.0729
     12 C           0.8166    4.6506    4.3081 C.ar    1  LIG1       -0.0397
     13 C           2.8669    4.3287    6.0796 C.ar    1  LIG1       -0.0313
     14 C           1.4701    2.8133   -0.5910 C.ar    1  LIG1       -0.0744
     15 C           2.1083    5.2692   -0.7594 C.ar    1  LIG1       -0.0687
     16 C           0.5771    4.8216    5.6671 C.ar    1  LIG1       -0.1032
     17 C           2.1030    4.3205    3.9129 C.ar    1  LIG1        0.0108
     18 C           1.4170    4.2724    1.4878 C.2     1  LIG1        0.1301
     19 C          -0.7884    5.1775    6.1479 C.3     1  LIG1       -0.0362
     20 C           2.0544    3.9971    0.1032 C.3     1  LIG1        0.0893
     21 N           3.1380    4.1544    4.7667 N.ar    1  LIG1       -0.3628
     22 N           2.3369    4.1487    2.5279 N.am    1  LIG1       -0.2739
     23 O           0.2266    4.5556    1.5903 O.2     1  LIG1       -0.4382
     24 H          -0.0497   -0.2624   -2.3944 H       1  LIG1        0.1166
     25 H           2.2433    8.4762   -2.9319 H       1  LIG1        0.1144
     26 H           2.3176    0.3642   -2.7921 H       1  LIG1        0.1170
     27 H          -1.4443    1.0804   -0.8422 H       1  LIG1        0.1179
     28 H           3.9677    6.7146   -3.2119 H       1  LIG1        0.1149
     29 H           0.4325    8.1848   -1.2604 H       1  LIG1        0.1145
     30 H           3.2922    2.3253   -1.6437 H       1  LIG1        0.1169
     31 H          -0.4793    3.0432    0.3108 H       1  LIG1        0.1212
     32 H           3.8859    4.6666   -1.8287 H       1  LIG1        0.1221
     33 H           0.3419    6.1406    0.1275 H       1  LIG1        0.1178
     34 H           1.4618    4.7858    7.6424 H       1  LIG1        0.1168
     35 H           0.0165    4.7735    3.5843 H       1  LIG1        0.1257
     36 H           3.7110    4.1908    6.7473 H       1  LIG1        0.2078
     37 H          -0.9085    6.2673    6.1863 H       1  LIG1        0.0644
     38 H          -1.5636    4.7655    5.4886 H       1  LIG1        0.0595
     39 H          -0.9767    4.7716    7.1507 H       1  LIG1        0.0610
     40 H           3.1169    3.7749    0.3415 H       1  LIG1        0.1428
     41 H           3.2955    3.9155    2.2775 H       1  LIG1        0.3382
@<TRIPOS>BOND
     1     1     3   ar
     2     1     4   ar
     3     2     5   ar
     4     2     6   ar
     5     3     7   ar
     6     4     8   ar
     7     5     9   ar
     8     6    10   ar
     9     7    14   ar
    10     8    14   ar
    11     9    15   ar
    12    10    15   ar
    13    11    13   ar
    14    11    16   ar
    15    12    16   ar
    16    12    17   ar
    17    13    21   ar
    18    14    20    1
    19    15    20    1
    20    16    19    1
    21    17    21   ar
    22    17    22    1
    23    18    20    1
    24    18    22   am
    25    18    23    2
    26     1    24    1
    27     2    25    1
    28     3    26    1
    29     4    27    1
    30     5    28    1
    31     6    29    1
    32     7    30    1
    33     8    31    1
    34     9    32    1
    35    10    33    1
    36    11    34    1
    37    12    35    1
    38    13    36    1
    39    19    37    1
    40    19    38    1
    41    19    39    1
    42    20    40    1
    43    22    41    1
