@<TRIPOS>MOLECULE
AO-080/40099002
 41 43 0 0 0
SMALL
USER_CHARGES

@<TRIPOS>ATOM
      1 C           0.3763    0.5989   -1.8880 C.ar    1  LIG1       -0.1063
      2 C           2.2047    7.5772   -2.3237 C.ar    1  LIG1       -0.1079
      3 C           1.7072    0.9512   -2.1120 C.ar    1  LIG1       -0.1048
      4 C          -0.4077    1.3538   -1.0155 C.ar    1  LIG1       -0.1044
      5 C           3.1743    6.5870   -2.4813 C.ar    1  LIG1       -0.1029
      6 C           1.1870    7.4135   -1.3840 C.ar    1  LIG1       -0.1062
      7 C           2.2541    2.0584   -1.4634 C.ar    1  LIG1       -0.0989
      8 C           0.1393    2.4610   -0.3669 C.ar    1  LIG1       -0.0979
      9 C           3.1262    5.4330   -1.6992 C.ar    1  LIG1       -0.0925
     10 C           1.1389    6.2596   -0.6018 C.ar    1  LIG1       -0.0968
     11 C           0.5768    4.8214    5.6662 C.ar    1  LIG1       -0.0874
     12 C           0.8171    4.6504    4.3074 C.ar    1  LIG1       -0.0390
     13 C           2.8664    4.3287    6.0801 C.ar    1  LIG1       -0.0303
     14 C           1.4703    2.8133   -0.5909 C.ar    1  LIG1       -0.0744
     15 C           2.1084    5.2692   -0.7594 C.ar    1  LIG1       -0.0686
     16 C           1.6156    4.6593    6.5760 C.ar    1  LIG1       -0.0848
     17 C           2.1037    4.3204    3.9129 C.ar    1  LIG1        0.0103
     18 C           1.4174    4.2724    1.4879 C.2     1  LIG1        0.1295
     19 C           1.3897    4.8365    8.0354 C.3     1  LIG1       -0.0429
     20 C           2.0546    3.9971    0.1032 C.3     1  LIG1        0.0892
     21 N           3.1383    4.1545    4.7673 N.ar    1  LIG1       -0.3608
     22 N           2.3375    4.1487    2.5278 N.am    1  LIG1       -0.2749
     23 O           0.2271    4.5556    1.5905 O.2     1  LIG1       -0.4388
     24 H          -0.0499   -0.2624   -2.3941 H       1  LIG1        0.1166
     25 H           2.2431    8.4763   -2.9319 H       1  LIG1        0.1144
     26 H           2.3174    0.3642   -2.7922 H       1  LIG1        0.1169
     27 H          -1.4442    1.0805   -0.8417 H       1  LIG1        0.1179
     28 H           3.9675    6.7146   -3.2122 H       1  LIG1        0.1148
     29 H           0.4325    8.1848   -1.2602 H       1  LIG1        0.1145
     30 H           3.2922    2.3253   -1.6439 H       1  LIG1        0.1170
     31 H          -0.4790    3.0432    0.3112 H       1  LIG1        0.1213
     32 H           3.8858    4.6666   -1.8289 H       1  LIG1        0.1221
     33 H           0.3422    6.1407    0.1277 H       1  LIG1        0.1179
     34 H          -0.4216    5.0802    6.0077 H       1  LIG1        0.1398
     35 H           0.0119    4.7754    3.5906 H       1  LIG1        0.1271
     36 H           3.7152    4.1895    6.7426 H       1  LIG1        0.2072
     37 H           1.1004    3.8840    8.4996 H       1  LIG1        0.0560
     38 H           2.2934    5.2056    8.5407 H       1  LIG1        0.0531
     39 H           0.5965    5.5714    8.2335 H       1  LIG1        0.0545
     40 H           3.1171    3.7749    0.3414 H       1  LIG1        0.1428
     41 H           3.2960    3.9155    2.2773 H       1  LIG1        0.3378
@<TRIPOS>BOND
     1     1     3   ar
     2     1     4   ar
     3     2     5   ar
     4     2     6   ar
     5     3     7   ar
     6     4     8   ar
     7     5     9   ar
     8     6    10   ar
     9     7    14   ar
    10     8    14   ar
    11     9    15   ar
    12    10    15   ar
    13    11    12   ar
    14    11    16   ar
    15    12    17   ar
    16    13    16   ar
    17    13    21   ar
    18    14    20    1
    19    15    20    1
    20    16    19    1
    21    17    21   ar
    22    17    22    1
    23    18    20    1
    24    18    22   am
    25    18    23    2
    26     1    24    1
    27     2    25    1
    28     3    26    1
    29     4    27    1
    30     5    28    1
    31     6    29    1
    32     7    30    1
    33     8    31    1
    34     9    32    1
    35    10    33    1
    36    11    34    1
    37    12    35    1
    38    13    36    1
    39    19    37    1
    40    19    38    1
    41    19    39    1
    42    20    40    1
    43    22    41    1
