@<TRIPOS>MOLECULE
AG-690/33405003
 41 44 0 0 0
SMALL
USER_CHARGES

@<TRIPOS>ATOM
      1 C           2.8467    4.2082    6.1217 C.ar    1  LIG1       -0.0909
      2 C           1.5304    4.3244    6.5683 C.ar    1  LIG1       -0.0902
      3 C           3.1201    4.1883    4.7540 C.ar    1  LIG1       -0.0656
      4 C           2.2734    1.4012   -0.9775 C.ar    1  LIG1       -0.0830
      5 C           0.5743    3.0294   -0.4303 C.ar    1  LIG1       -0.0840
      6 C           3.0989    5.4743   -1.8804 C.ar    1  LIG1       -0.0493
      7 C           1.3764    6.6867   -0.6970 C.ar    1  LIG1       -0.0449
      8 C           0.4874    4.4208    5.6471 C.ar    1  LIG1       -0.0406
      9 C           1.3142    0.6148   -1.6156 C.ar    1  LIG1       -0.0461
     10 C          -0.3849    2.2429   -1.0684 C.ar    1  LIG1       -0.0474
     11 C           2.9220    6.3037   -2.9878 C.ar    1  LIG1       -0.0684
     12 C           1.1995    7.5161   -1.8045 C.ar    1  LIG1       -0.0662
     13 C           2.0771    4.2847    3.8328 C.ar    1  LIG1        0.0169
     14 C           1.9034    2.6085   -0.3849 C.ar    1  LIG1       -0.0750
     15 C           2.3260    5.6657   -0.7351 C.ar    1  LIG1       -0.0191
     16 C          -0.0149    1.0356   -1.6611 C.ar    1  LIG1        0.0627
     17 C           0.7607    4.4009    4.2793 C.ar    1  LIG1        0.0943
     18 C           1.9723    7.3247   -2.9499 C.ar    1  LIG1       -0.0199
     19 C           2.3666    4.2637    2.4077 C.2     1  LIG1        0.0167
     20 C           3.0507    3.0810    1.7787 C.3     1  LIG1        0.0306
     21 C           2.9304    3.4519    0.2982 C.3     1  LIG1        0.0231
     22 N           2.0944    5.2351    1.5946 N.2     1  LIG1       -0.3188
     23 N           2.4990    4.8494    0.3515 N.pl3   1  LIG1       -0.3192
     24 F          -0.9355    0.2817   -2.2761 F       1  LIG1       -0.2681
     25 F          -0.2502    4.4940    3.4034 F       1  LIG1       -0.2495
     26 CL          1.7544    8.3478   -4.3162 Cl      1  LIG1       -0.1566
     27 H           3.6587    4.1329    6.8388 H       1  LIG1        0.1258
     28 H           1.3176    4.3400    7.6332 H       1  LIG1        0.1350
     29 H           4.1498    4.0976    4.4179 H       1  LIG1        0.1429
     30 H           3.3063    1.0646   -0.9465 H       1  LIG1        0.1319
     31 H           0.2768    3.9687    0.0284 H       1  LIG1        0.1357
     32 H           3.8409    4.6810   -1.9205 H       1  LIG1        0.1278
     33 H           0.7678    6.8436    0.1898 H       1  LIG1        0.1386
     34 H          -0.5375    4.5113    5.9945 H       1  LIG1        0.1334
     35 H           1.6023   -0.3247   -2.0776 H       1  LIG1        0.1315
     36 H          -1.4198    2.5700   -1.1036 H       1  LIG1        0.1329
     37 H           3.5303    6.1415   -3.8739 H       1  LIG1        0.1395
     38 H           0.4542    8.3064   -1.7608 H       1  LIG1        0.1398
     39 H           4.0976    3.0773    2.1009 H       1  LIG1        0.1025
     40 H           2.5726    2.1378    2.0572 H       1  LIG1        0.1014
     41 H           3.8900    3.3422   -0.2178 H       1  LIG1        0.1399
@<TRIPOS>BOND
     1     1     2   ar
     2     1     3   ar
     3     2     8   ar
     4     3    13   ar
     5     4     9   ar
     6     4    14   ar
     7     5    10   ar
     8     5    14   ar
     9     6    11   ar
    10     6    15   ar
    11     7    12   ar
    12     7    15   ar
    13     8    17   ar
    14     9    16   ar
    15    10    16   ar
    16    11    18   ar
    17    12    18   ar
    18    13    17   ar
    19    13    19    1
    20    14    21    1
    21    15    23    1
    22    16    24    1
    23    17    25    1
    24    18    26    1
    25    19    20    1
    26    19    22    2
    27    20    21    1
    28    21    23    1
    29    22    23    1
    30     1    27    1
    31     2    28    1
    32     3    29    1
    33     4    30    1
    34     5    31    1
    35     6    32    1
    36     7    33    1
    37     8    34    1
    38     9    35    1
    39    10    36    1
    40    11    37    1
    41    12    38    1
    42    20    39    1
    43    20    40    1
    44    21    41    1
