@<TRIPOS>MOLECULE
AE-848/32729032
 45 48 0 0 0
SMALL
USER_CHARGES

@<TRIPOS>ATOM
      1 C           1.6786    7.7247   -2.4570 C.ar    1  LIG1       -0.1067
      2 C           0.3131    0.6744   -1.9094 C.ar    1  LIG1       -0.1092
      3 C           0.7188    5.0573    5.8376 C.ar    1  LIG1       -0.0882
      4 C           2.9126    7.8534   -1.8196 C.ar    1  LIG1       -0.1045
      5 C           0.9627    6.5318   -2.3567 C.ar    1  LIG1       -0.1046
      6 C           1.7815    4.6561    6.6711 C.ar    1  LIG1       -0.0873
      7 C           1.6402    1.0147   -2.1712 C.ar    1  LIG1       -0.1017
      8 C          -0.3812    1.3140   -0.8824 C.ar    1  LIG1       -0.1010
      9 C           0.7731    4.8507    4.4581 C.ar    1  LIG1       -0.0658
     10 C           3.4309    6.7890   -1.0819 C.ar    1  LIG1       -0.0978
     11 C           1.4810    5.4673   -1.6190 C.ar    1  LIG1       -0.0970
     12 C           2.9214    4.0395    6.1422 C.ar    1  LIG1       -0.0582
     13 C           2.2731    1.9944   -1.4062 C.ar    1  LIG1       -0.0638
     14 C           0.2515    2.2937   -0.1174 C.ar    1  LIG1       -0.0628
     15 C           1.9070    4.2416    3.9640 C.ar    1  LIG1        0.0221
     16 C           2.7150    5.5959   -0.9816 C.ar    1  LIG1       -0.0795
     17 C           2.9675    3.8384    4.7751 C.ar    1  LIG1       -0.0194
     18 C           1.5787    2.6340   -0.3793 C.ar    1  LIG1       -0.0263
     19 C           2.2763    3.8864    2.6074 C.2     1  LIG1        0.1539
     20 C           3.6394    3.2374    2.6579 C.2     1  LIG1        0.1842
     21 C           5.2192    2.7248    4.5308 C.3     1  LIG1        0.0008
     22 C           3.2723    4.4498   -0.1879 C.3     1  LIG1        0.0242
     23 N           1.6020    4.0696    1.5295 N.2     1  LIG1       -0.2628
     24 N           3.9844    3.2480    3.9994 N.am    1  LIG1       -0.3040
     25 N           2.2181    3.6247    0.3943 N.pl3   1  LIG1       -0.3033
     26 O           4.2123    2.8318    1.6701 O.2     1  LIG1       -0.4373
     27 H           1.2746    8.5541   -3.0303 H       1  LIG1        0.1166
     28 H          -0.1794   -0.0887   -2.5050 H       1  LIG1        0.1057
     29 H          -0.1538    5.5336    6.2771 H       1  LIG1        0.1234
     30 H           3.4696    8.7826   -1.8968 H       1  LIG1        0.1158
     31 H           0.0015    6.4317   -2.8519 H       1  LIG1        0.1165
     32 H           1.7132    4.8288    7.7423 H       1  LIG1        0.1377
     33 H           2.1807    0.5166   -2.9706 H       1  LIG1        0.1235
     34 H          -1.4147    1.0488   -0.6787 H       1  LIG1        0.1227
     35 H          -0.0425    5.1578    3.8146 H       1  LIG1        0.1487
     36 H           4.3932    6.8982   -0.5888 H       1  LIG1        0.1151
     37 H           0.9162    4.5416   -1.5464 H       1  LIG1        0.1205
     38 H           3.7310    3.7361    6.7962 H       1  LIG1        0.1305
     39 H           3.3074    2.2522   -1.6182 H       1  LIG1        0.1177
     40 H          -0.2997    2.7856    0.6801 H       1  LIG1        0.1184
     41 H           5.0995    1.6695    4.7900 H       1  LIG1        0.0984
     42 H           5.5084    3.2771    5.4290 H       1  LIG1        0.1105
     43 H           6.0184    2.8167    3.7904 H       1  LIG1        0.1069
     44 H           3.8926    3.8068   -0.8217 H       1  LIG1        0.1395
     45 H           3.9061    4.8093    0.6296 H       1  LIG1        0.1277
@<TRIPOS>BOND
     1     1     4   ar
     2     1     5   ar
     3     2     7   ar
     4     2     8   ar
     5     3     6   ar
     6     3     9   ar
     7     4    10   ar
     8     5    11   ar
     9     6    12   ar
    10     7    13   ar
    11     8    14   ar
    12     9    15   ar
    13    10    16   ar
    14    11    16   ar
    15    12    17   ar
    16    13    18   ar
    17    14    18   ar
    18    15    17   ar
    19    15    19    1
    20    16    22    1
    21    17    24    1
    22    18    25    1
    23    19    20    1
    24    19    23    2
    25    20    24   am
    26    20    26    2
    27    21    24    1
    28    22    25    1
    29    23    25    1
    30     1    27    1
    31     2    28    1
    32     3    29    1
    33     4    30    1
    34     5    31    1
    35     6    32    1
    36     7    33    1
    37     8    34    1
    38     9    35    1
    39    10    36    1
    40    11    37    1
    41    12    38    1
    42    13    39    1
    43    14    40    1
    44    21    41    1
    45    21    42    1
    46    21    43    1
    47    22    44    1
    48    22    45    1
