@<TRIPOS>MOLECULE
AE-477/13519272
 38 41 0 0 0
SMALL
USER_CHARGES

@<TRIPOS>ATOM
      1 C           1.1532    1.1348   -2.2261 C.ar    1  LIG1       -0.1079
      2 C           2.6357    6.6931   -2.5659 C.ar    1  LIG1       -0.1078
      3 C           1.8608    4.5393    6.0359 C.ar    1  LIG1       -0.1127
      4 C          -0.0702    1.7719   -2.0181 C.ar    1  LIG1       -0.1046
      5 C           2.2025    1.3294   -1.3279 C.ar    1  LIG1       -0.1043
      6 C           3.4690    6.2460   -1.5407 C.ar    1  LIG1       -0.1043
      7 C           1.2504    6.6373   -2.4131 C.ar    1  LIG1       -0.1044
      8 C           0.6412    4.5905    5.3609 C.ar    1  LIG1       -0.1040
      9 C           3.0495    4.4017    5.3190 C.ar    1  LIG1       -0.1040
     10 C          -0.2442    2.6037   -0.9120 C.ar    1  LIG1       -0.0929
     11 C           2.0284    2.1612   -0.2217 C.ar    1  LIG1       -0.0925
     12 C           2.9171    5.7429   -0.3626 C.ar    1  LIG1       -0.0925
     13 C           0.6984    6.1342   -1.2350 C.ar    1  LIG1       -0.0928
     14 C           0.6103    4.5040    3.9690 C.ar    1  LIG1       -0.0662
     15 C           3.0186    4.3153    3.9272 C.ar    1  LIG1       -0.0662
     16 C           0.8052    2.7984   -0.0138 C.ar    1  LIG1       -0.0744
     17 C           1.5318    5.6870   -0.2097 C.ar    1  LIG1       -0.0743
     18 C           1.7990    4.3665    3.2522 C.ar    1  LIG1       -0.0634
     19 C           0.6230    3.6950    1.1581 C.3     1  LIG1        0.0092
     20 C           0.9385    5.1615    1.0358 C.3     1  LIG1        0.0094
     21 N           1.7680    4.2791    1.8429 N.pl3   1  LIG1       -0.3973
     22 H           1.2885    0.4870   -3.0872 H       1  LIG1        0.1138
     23 H           3.0655    7.0850   -3.4831 H       1  LIG1        0.1139
     24 H           1.8847    4.6062    7.1197 H       1  LIG1        0.1000
     25 H          -0.8875    1.6204   -2.7173 H       1  LIG1        0.1157
     26 H           3.1551    0.8333   -1.4901 H       1  LIG1        0.1131
     27 H           4.5480    6.2895   -1.6593 H       1  LIG1        0.1132
     28 H           0.6016    6.9853   -3.2117 H       1  LIG1        0.1158
     29 H          -0.2840    4.6973    5.9190 H       1  LIG1        0.1215
     30 H           3.9991    4.3618    5.8449 H       1  LIG1        0.1215
     31 H          -1.2007    3.0961   -0.7591 H       1  LIG1        0.1219
     32 H           2.8527    2.3066    0.4718 H       1  LIG1        0.1195
     33 H           3.5747    5.3963    0.4302 H       1  LIG1        0.1194
     34 H          -0.3825    6.0944   -1.1263 H       1  LIG1        0.1220
     35 H          -0.3452    4.5448    3.4526 H       1  LIG1        0.1104
     36 H           3.9512    4.2086    3.3791 H       1  LIG1        0.1104
     37 H          -0.1529    3.4175    1.8594 H       1  LIG1        0.1576
     38 H           0.3309    5.8543    1.6047 H       1  LIG1        0.1582
@<TRIPOS>BOND
     1     1     4   ar
     2     1     5   ar
     3     2     6   ar
     4     2     7   ar
     5     3     8   ar
     6     3     9   ar
     7     4    10   ar
     8     5    11   ar
     9     6    12   ar
    10     7    13   ar
    11     8    14   ar
    12     9    15   ar
    13    10    16   ar
    14    11    16   ar
    15    12    17   ar
    16    13    17   ar
    17    14    18   ar
    18    15    18   ar
    19    16    19    1
    20    17    20    1
    21    18    21    1
    22    19    20    1
    23    19    21    1
    24    20    21    1
    25     1    22    1
    26     2    23    1
    27     3    24    1
    28     4    25    1
    29     5    26    1
    30     6    27    1
    31     7    28    1
    32     8    29    1
    33     9    30    1
    34    10    31    1
    35    11    32    1
    36    12    33    1
    37    13    34    1
    38    14    35    1
    39    15    36    1
    40    19    37    1
    41    20    38    1
