@<TRIPOS>MOLECULE
AA-504/07995004
 38 40 0 0 0
SMALL
USER_CHARGES

@<TRIPOS>ATOM
      1 C           0.3763    0.5989   -1.8887 C.ar    1  LIG1       -0.1077
      2 C           2.2048    7.5772   -2.3231 C.ar    1  LIG1       -0.1059
      3 C           1.7072    0.9512   -2.1125 C.ar    1  LIG1       -0.1025
      4 C          -0.4078    1.3536   -1.0161 C.ar    1  LIG1       -0.1061
      5 C           3.1744    6.5870   -2.4807 C.ar    1  LIG1       -0.1047
      6 C           1.1869    7.4134   -1.3836 C.ar    1  LIG1       -0.1041
      7 C           2.2541    2.0582   -1.4637 C.ar    1  LIG1       -0.0924
      8 C           0.1392    2.4607   -0.3674 C.ar    1  LIG1       -0.0970
      9 C           3.1262    5.4329   -1.6988 C.ar    1  LIG1       -0.0994
     10 C           1.1387    6.2593   -0.6016 C.ar    1  LIG1       -0.0982
     11 C           0.5774    4.8231    5.6666 C.ar    1  LIG1       -0.0556
     12 C           0.8169    4.6508    4.3078 C.ar    1  LIG1       -0.0273
     13 C           2.8668    4.3289    6.0798 C.ar    1  LIG1        0.0031
     14 C           1.4701    2.8130   -0.5911 C.ar    1  LIG1       -0.0687
     15 C           2.1083    5.2690   -0.7592 C.ar    1  LIG1       -0.0751
     16 C           1.6165    4.6608    6.5761 C.ar    1  LIG1        0.0184
     17 C           2.1031    4.3195    3.9130 C.ar    1  LIG1        0.0191
     18 C           1.4170    4.2718    1.4879 C.2     1  LIG1        0.1314
     19 C           2.0544    3.9967    0.1032 C.3     1  LIG1        0.0893
     20 N           3.1378    4.1534    4.7670 N.ar    1  LIG1       -0.3472
     21 N           2.3369    4.1480    2.5279 N.am    1  LIG1       -0.2714
     22 O           0.2266    4.5550    1.5904 O.2     1  LIG1       -0.4365
     23 CL          1.3577    4.8646    8.2591 Cl      1  LIG1       -0.1434
     24 H          -0.0498   -0.2624   -2.3950 H       1  LIG1        0.1148
     25 H           2.2433    8.4763   -2.9312 H       1  LIG1        0.1171
     26 H           2.3175    0.3643   -2.7926 H       1  LIG1        0.1152
     27 H          -1.4444    1.0803   -0.8425 H       1  LIG1        0.1146
     28 H           3.9676    6.7147   -3.2115 H       1  LIG1        0.1175
     29 H           0.4325    8.1846   -1.2598 H       1  LIG1        0.1183
     30 H           3.2922    2.3252   -1.6439 H       1  LIG1        0.1225
     31 H          -0.4793    3.0428    0.3108 H       1  LIG1        0.1180
     32 H           3.8858    4.6665   -1.8286 H       1  LIG1        0.1174
     33 H           0.3419    6.1403    0.1279 H       1  LIG1        0.1215
     34 H          -0.4220    5.0854    6.0033 H       1  LIG1        0.1561
     35 H           0.0117    4.7764    3.5912 H       1  LIG1        0.1384
     36 H           3.7185    4.1883    6.7385 H       1  LIG1        0.2248
     37 H           3.1169    3.7745    0.3415 H       1  LIG1        0.1442
     38 H           3.2955    3.9148    2.2775 H       1  LIG1        0.3410
@<TRIPOS>BOND
     1     1     3   ar
     2     1     4   ar
     3     2     5   ar
     4     2     6   ar
     5     3     7   ar
     6     4     8   ar
     7     5     9   ar
     8     6    10   ar
     9     7    14   ar
    10     8    14   ar
    11     9    15   ar
    12    10    15   ar
    13    11    12   ar
    14    11    16   ar
    15    12    17   ar
    16    13    16   ar
    17    13    20   ar
    18    14    19    1
    19    15    19    1
    20    16    23    1
    21    17    20   ar
    22    17    21    1
    23    18    19    1
    24    18    21   am
    25    18    22    2
    26     1    24    1
    27     2    25    1
    28     3    26    1
    29     4    27    1
    30     5    28    1
    31     6    29    1
    32     7    30    1
    33     8    31    1
    34     9    32    1
    35    10    33    1
    36    11    34    1
    37    12    35    1
    38    13    36    1
    39    19    37    1
    40    21    38    1
