@<TRIPOS>MOLECULE
AP-518/42324227
 46 48 0 0 0
SMALL
USER_CHARGES

@<TRIPOS>ATOM
      1 C           1.0085    0.4183   -2.1028 C.ar    1  LIG1       -0.1088
      2 C           0.8411    4.8503    5.8658 C.ar    1  LIG1       -0.1003
      3 C           0.0539    1.3345   -2.5439 C.ar    1  LIG1       -0.1066
      4 C           1.8403    0.7394   -1.0301 C.ar    1  LIG1       -0.1048
      5 C           2.1453    4.4389    6.1404 C.ar    1  LIG1       -0.1009
      6 C           0.4495    5.0950    4.5495 C.ar    1  LIG1       -0.0758
      7 C          -0.0690    2.5722   -1.9124 C.ar    1  LIG1       -0.0949
      8 C           1.7175    1.9771   -0.3986 C.ar    1  LIG1       -0.0923
      9 C           3.0579    4.2722    5.0987 C.ar    1  LIG1       -0.0936
     10 C           0.7466    6.4802   -1.2962 C.ar    1  LIG1       -0.0932
     11 C           2.7902    5.2280   -0.9920 C.ar    1  LIG1       -0.0802
     12 C           1.4644    7.5000   -1.9209 C.ar    1  LIG1       -0.0708
     13 C           3.5081    6.2478   -1.6168 C.ar    1  LIG1       -0.0563
     14 C           1.3621    4.9282    3.5078 C.ar    1  LIG1        0.0204
     15 C           0.7628    2.8935   -0.8397 C.ar    1  LIG1       -0.0731
     16 C           1.4095    5.3441   -0.8317 C.ar    1  LIG1       -0.0716
     17 C           2.6663    4.5169    3.7825 C.ar    1  LIG1       -0.0812
     18 C           2.8452    7.3838   -2.0812 C.ar    1  LIG1       -0.0151
     19 C           0.9271    5.1913    2.1428 C.2     1  LIG1        0.1065
     20 C           3.6642    4.3312    2.6865 C.3     1  LIG1       -0.0319
     21 C           2.8043    9.5110   -3.1438 C.3     1  LIG1        0.0232
     22 C           0.6302    4.2367   -0.1541 C.3     1  LIG1        0.0126
     23 N           1.0022    4.1272    1.2382 N.am    1  LIG1       -0.3285
     24 O           0.5311    6.3229    1.8158 O.2     1  LIG1       -0.4739
     25 O           3.5452    8.3784   -2.6920 O.3     1  LIG1       -0.4188
     26 H           1.1031   -0.5459   -2.5938 H       1  LIG1        0.1133
     27 H           0.1299    4.9801    6.6765 H       1  LIG1        0.1173
     28 H          -0.5945    1.0842   -3.3785 H       1  LIG1        0.1129
     29 H           2.5829    0.0258   -0.6857 H       1  LIG1        0.1157
     30 H           2.4497    4.2488    7.1655 H       1  LIG1        0.1255
     31 H          -0.5694    5.4161    4.3486 H       1  LIG1        0.1241
     32 H          -0.8155    3.2800   -2.2631 H       1  LIG1        0.1135
     33 H           2.3699    2.2188    0.4363 H       1  LIG1        0.1207
     34 H           4.0715    3.9509    5.3236 H       1  LIG1        0.1219
     35 H          -0.3289    6.5791   -1.1755 H       1  LIG1        0.1226
     36 H           3.3152    4.3464   -0.6331 H       1  LIG1        0.1370
     37 H           0.9422    8.3825   -2.2810 H       1  LIG1        0.1127
     38 H           4.5833    6.1511   -1.7389 H       1  LIG1        0.1307
     39 H           3.6287    3.3019    2.3114 H       1  LIG1        0.0617
     40 H           3.4674    5.0148    1.8515 H       1  LIG1        0.0491
     41 H           4.6820    4.5407    3.0378 H       1  LIG1        0.0756
     42 H           3.4830   10.2283   -3.6118 H       1  LIG1        0.0889
     43 H           2.2941    9.9756   -2.2962 H       1  LIG1        0.0889
     44 H           2.0637    9.1820   -3.8766 H       1  LIG1        0.1218
     45 H          -0.4280    4.5280   -0.1331 H       1  LIG1        0.1557
     46 H           1.3926    3.2416    1.5434 H       1  LIG1        0.3003
@<TRIPOS>BOND
     1     1     3   ar
     2     1     4   ar
     3     2     5   ar
     4     2     6   ar
     5     3     7   ar
     6     4     8   ar
     7     5     9   ar
     8     6    14   ar
     9     7    15   ar
    10     8    15   ar
    11     9    17   ar
    12    10    12   ar
    13    10    16   ar
    14    11    13   ar
    15    11    16   ar
    16    12    18   ar
    17    13    18   ar
    18    14    17   ar
    19    14    19    1
    20    15    22    1
    21    16    22    1
    22    17    20    1
    23    18    25    1
    24    19    23   am
    25    19    24    2
    26    21    25    1
    27    22    23    1
    28     1    26    1
    29     2    27    1
    30     3    28    1
    31     4    29    1
    32     5    30    1
    33     6    31    1
    34     7    32    1
    35     8    33    1
    36     9    34    1
    37    10    35    1
    38    11    36    1
    39    12    37    1
    40    13    38    1
    41    20    39    1
    42    20    40    1
    43    20    41    1
    44    21    42    1
    45    21    43    1
    46    21    44    1
    47    22    45    1
    48    23    46    1
