@<TRIPOS>MOLECULE
AG-690/33407024
 41 44 0 0 0
SMALL
USER_CHARGES

@<TRIPOS>ATOM
      1 C           2.8467    4.2084    6.1219 C.ar    1  LIG1       -0.0908
      2 C           1.5305    4.3247    6.5685 C.ar    1  LIG1       -0.0901
      3 C           3.1201    4.1884    4.7542 C.ar    1  LIG1       -0.0656
      4 C           2.2734    1.4015   -0.9778 C.ar    1  LIG1       -0.0841
      5 C           0.5740    3.0291   -0.4300 C.ar    1  LIG1       -0.0854
      6 C           3.0988    5.4740   -1.8803 C.ar    1  LIG1       -0.0493
      7 C           1.3763    6.6865   -0.6969 C.ar    1  LIG1       -0.0449
      8 C           0.4875    4.4210    5.6473 C.ar    1  LIG1       -0.0405
      9 C           1.3145    0.6152   -1.6165 C.ar    1  LIG1       -0.0700
     10 C          -0.3849    2.2429   -1.0689 C.ar    1  LIG1       -0.0716
     11 C           2.9219    6.3034   -2.9877 C.ar    1  LIG1       -0.0683
     12 C           1.1995    7.5160   -1.8045 C.ar    1  LIG1       -0.0662
     13 C           2.0771    4.2848    3.8330 C.ar    1  LIG1        0.0169
     14 C           1.9031    2.6084   -0.3845 C.ar    1  LIG1       -0.0746
     15 C           2.3260    5.6655   -0.7349 C.ar    1  LIG1       -0.0191
     16 C           0.7607    4.4011    4.2796 C.ar    1  LIG1        0.0944
     17 C          -0.0146    1.0360   -1.6621 C.ar    1  LIG1       -0.0147
     18 C           1.9723    7.3244   -2.9498 C.ar    1  LIG1       -0.0197
     19 C           2.3666    4.2636    2.4079 C.2     1  LIG1        0.0168
     20 C           3.0506    3.0809    1.7790 C.3     1  LIG1        0.0309
     21 C           2.9302    3.4517    0.2984 C.3     1  LIG1        0.0241
     22 N           2.0944    5.2350    1.5947 N.2     1  LIG1       -0.3186
     23 N           2.4989    4.8492    0.3516 N.pl3   1  LIG1       -0.3188
     24 F          -0.2502    4.4942    3.4037 F       1  LIG1       -0.2495
     25 CL         -1.1972    0.0660   -2.4503 Cl      1  LIG1       -0.1417
     26 CL          1.7544    8.3474   -4.3162 Cl      1  LIG1       -0.1564
     27 H           3.6588    4.1331    6.8390 H       1  LIG1        0.1259
     28 H           1.3178    4.3403    7.6334 H       1  LIG1        0.1352
     29 H           4.1498    4.0976    4.4181 H       1  LIG1        0.1428
     30 H           3.3070    1.0667   -0.9463 H       1  LIG1        0.1290
     31 H           0.2774    3.9683    0.0295 H       1  LIG1        0.1326
     32 H           3.8407    4.6807   -1.9204 H       1  LIG1        0.1275
     33 H           0.7678    6.8435    0.1900 H       1  LIG1        0.1386
     34 H          -0.5374    4.5116    5.9948 H       1  LIG1        0.1334
     35 H           1.6179   -0.3226   -2.0747 H       1  LIG1        0.1334
     36 H          -1.4168    2.5834   -1.0964 H       1  LIG1        0.1346
     37 H           3.5301    6.1411   -3.8739 H       1  LIG1        0.1395
     38 H           0.4543    8.3063   -1.7607 H       1  LIG1        0.1398
     39 H           4.0975    3.0771    2.1012 H       1  LIG1        0.1026
     40 H           2.5724    2.1377    2.0575 H       1  LIG1        0.1015
     41 H           3.8898    3.3420   -0.2176 H       1  LIG1        0.1402
@<TRIPOS>BOND
     1     1     2   ar
     2     1     3   ar
     3     2     8   ar
     4     3    13   ar
     5     4     9   ar
     6     4    14   ar
     7     5    10   ar
     8     5    14   ar
     9     6    11   ar
    10     6    15   ar
    11     7    12   ar
    12     7    15   ar
    13     8    16   ar
    14     9    17   ar
    15    10    17   ar
    16    11    18   ar
    17    12    18   ar
    18    13    16   ar
    19    13    19    1
    20    14    21    1
    21    15    23    1
    22    16    24    1
    23    17    25    1
    24    18    26    1
    25    19    20    1
    26    19    22    2
    27    20    21    1
    28    21    23    1
    29    22    23    1
    30     1    27    1
    31     2    28    1
    32     3    29    1
    33     4    30    1
    34     5    31    1
    35     6    32    1
    36     7    33    1
    37     8    34    1
    38     9    35    1
    39    10    36    1
    40    11    37    1
    41    12    38    1
    42    20    39    1
    43    20    40    1
    44    21    41    1
