@<TRIPOS>MOLECULE
AG-690/33092052
 41 44 0 0 0
SMALL
USER_CHARGES

@<TRIPOS>ATOM
      1 C           0.3741    0.8520   -2.3164 C.ar    1  LIG1       -0.1091
      2 C           1.6980    1.2754   -2.4327 C.ar    1  LIG1       -0.1009
      3 C          -0.3871    1.2373   -1.2128 C.ar    1  LIG1       -0.0992
      4 C           1.2429    5.6390   -0.5269 C.ar    1  LIG1       -0.0826
      5 C           3.5135    6.1446   -1.1793 C.ar    1  LIG1       -0.0836
      6 C           2.2609    2.0841   -1.4454 C.ar    1  LIG1       -0.0612
      7 C           0.1758    2.0459   -0.2255 C.ar    1  LIG1       -0.0576
      8 C           0.7800    6.6804   -1.3311 C.ar    1  LIG1       -0.0462
      9 C           3.0506    7.1860   -1.9835 C.ar    1  LIG1       -0.0476
     10 C           0.8896    5.0349    4.5435 C.ar    1  LIG1       -0.0648
     11 C           1.2002    5.0978    5.9230 C.ar    1  LIG1       -0.0856
     12 C           2.6098    5.3711   -0.4510 C.ar    1  LIG1       -0.0740
     13 C           1.4998    2.4693   -0.3418 C.ar    1  LIG1       -0.0259
     14 C           1.6837    7.4539   -2.0594 C.ar    1  LIG1        0.0623
     15 C           1.9804    4.4618    3.9322 C.ar    1  LIG1        0.0571
     16 C           2.4584    4.5584    6.0562 C.ar    1  LIG1       -0.0135
     17 C           2.2407    4.1491    2.5728 C.2     1  LIG1        0.0458
     18 C           3.4055    4.7460    1.8287 C.3     1  LIG1        0.0397
     19 C           3.1053    4.2573    0.4080 C.3     1  LIG1        0.0255
     20 C           3.3394    4.3355    7.2114 C.3     1  LIG1       -0.0040
     21 N           1.5247    3.3150    1.8838 N.2     1  LIG1       -0.3062
     22 N           2.0523    3.2637    0.6282 N.pl3   1  LIG1       -0.3181
     23 O           2.9410    4.1682    4.8473 O.2     1  LIG1       -0.3649
     24 F           1.2390    8.4523   -2.8338 F       1  LIG1       -0.2685
     25 H          -0.0641    0.2221   -3.0852 H       1  LIG1        0.1060
     26 H           2.2904    0.9753   -3.2919 H       1  LIG1        0.1229
     27 H          -1.4181    0.9075   -1.1224 H       1  LIG1        0.1230
     28 H           0.5311    5.0423    0.0374 H       1  LIG1        0.1318
     29 H           4.5803    5.9431   -1.1266 H       1  LIG1        0.1357
     30 H           3.2934    2.4085   -1.5454 H       1  LIG1        0.1174
     31 H          -0.4269    2.3402    0.6301 H       1  LIG1        0.1261
     32 H          -0.2841    6.8886   -1.3908 H       1  LIG1        0.1314
     33 H           3.7539    7.7888   -2.5503 H       1  LIG1        0.1327
     34 H          -0.0171    5.3672    4.0585 H       1  LIG1        0.1391
     35 H           0.5820    5.4889    6.7186 H       1  LIG1        0.1209
     36 H           3.4452    5.8331    1.9415 H       1  LIG1        0.1036
     37 H           4.3274    4.3011    2.2186 H       1  LIG1        0.1045
     38 H           3.9942    3.8103   -0.0515 H       1  LIG1        0.1406
     39 H           3.1676    3.3429    7.6644 H       1  LIG1        0.0823
     40 H           4.4099    4.3936    6.9407 H       1  LIG1        0.0776
     41 H           3.1902    5.0907    8.0053 H       1  LIG1        0.0876
@<TRIPOS>BOND
     1     1     2   ar
     2     1     3   ar
     3     2     6   ar
     4     3     7   ar
     5     4     8   ar
     6     4    12   ar
     7     5     9   ar
     8     5    12   ar
     9     6    13   ar
    10     7    13   ar
    11     8    14   ar
    12     9    14   ar
    13    10    11   ar
    14    10    15   ar
    15    11    16   ar
    16    12    19    1
    17    13    22    1
    18    14    24    1
    19    15    17    1
    20    15    23   ar
    21    16    20    1
    22    16    23   ar
    23    17    18    1
    24    17    21    2
    25    18    19    1
    26    19    22    1
    27    21    22    1
    28     1    25    1
    29     2    26    1
    30     3    27    1
    31     4    28    1
    32     5    29    1
    33     6    30    1
    34     7    31    1
    35     8    32    1
    36     9    33    1
    37    10    34    1
    38    11    35    1
    39    18    36    1
    40    18    37    1
    41    19    38    1
    42    20    39    1
    43    20    40    1
    44    20    41    1
