@<TRIPOS>MOLECULE
AP-065/43441404
 37 40 0 0 0
SMALL
USER_CHARGES

@<TRIPOS>ATOM
      1 C           2.0814    7.5980   -2.2677 C.ar    1  LIG1       -0.1079
      2 C           0.2180    0.6389   -1.7880 C.ar    1  LIG1       -0.1080
      3 C           2.6416    6.4592   -2.8464 C.ar    1  LIG1       -0.1035
      4 C           1.6136    7.5548   -0.9543 C.ar    1  LIG1       -0.1062
      5 C          -0.2285    1.9471   -1.9742 C.ar    1  LIG1       -0.1052
      6 C           1.3573    0.3931   -1.0217 C.ar    1  LIG1       -0.1032
      7 C           2.0527    4.2048    4.2603 C.ar    1  LIG1       -0.1001
      8 C           0.8484    4.1977    3.5434 C.ar    1  LIG1       -0.0991
      9 C           2.7340    5.2771   -2.1117 C.ar    1  LIG1       -0.0895
     10 C           1.7058    6.3727   -0.2196 C.ar    1  LIG1       -0.0936
     11 C           0.4644    3.0096   -1.3941 C.ar    1  LIG1       -0.0903
     12 C           2.0502    1.4556   -0.4417 C.ar    1  LIG1       -0.0861
     13 C           3.2738    4.1215    3.5909 C.ar    1  LIG1       -0.0970
     14 C           0.8530    4.1107    2.1493 C.ar    1  LIG1       -0.0898
     15 C           2.2661    5.2338   -0.7983 C.ar    1  LIG1       -0.0576
     16 C           1.6038    2.7639   -0.6278 C.ar    1  LIG1       -0.0534
     17 C           3.2606    4.0293    2.2093 C.ar    1  LIG1       -0.0751
     18 C           2.0729    4.0336    1.4883 C.ar    1  LIG1       -0.0573
     19 C           4.4064    3.9305    1.2817 C.3     1  LIG1        0.0373
     20 C           2.3672    3.9330    0.0107 C.3     1  LIG1        0.0638
     21 O           3.8031    3.6155    0.0086 O.3     1  LIG1       -0.4162
     22 H           2.0108    8.5188   -2.8394 H       1  LIG1        0.1154
     23 H          -0.3225   -0.1885   -2.2387 H       1  LIG1        0.1148
     24 H           3.0070    6.4930   -3.8686 H       1  LIG1        0.1163
     25 H           1.1783    8.4415   -0.5030 H       1  LIG1        0.1152
     26 H          -1.1162    2.1386   -2.5699 H       1  LIG1        0.1157
     27 H           1.7045   -0.6256   -0.8756 H       1  LIG1        0.1161
     28 H           2.0335    4.2768    5.3442 H       1  LIG1        0.1231
     29 H          -0.0955    4.2594    4.0780 H       1  LIG1        0.1227
     30 H           3.1717    4.3946   -2.5709 H       1  LIG1        0.1263
     31 H           1.3387    6.3482    0.8029 H       1  LIG1        0.1186
     32 H           0.1094    4.0258   -1.5447 H       1  LIG1        0.1183
     33 H           2.9369    1.2546    0.1537 H       1  LIG1        0.1291
     34 H           4.2069    4.1349    4.1440 H       1  LIG1        0.1246
     35 H          -0.0826    4.0974    1.5997 H       1  LIG1        0.1250
     36 H           4.9519    4.8724    1.1828 H       1  LIG1        0.1204
     37 H           5.0862    3.1195    1.5588 H       1  LIG1        0.1361
@<TRIPOS>BOND
     1     1     3   ar
     2     1     4   ar
     3     2     5   ar
     4     2     6   ar
     5     3     9   ar
     6     4    10   ar
     7     5    11   ar
     8     6    12   ar
     9     7     8   ar
    10     7    13   ar
    11     8    14   ar
    12     9    15   ar
    13    10    15   ar
    14    11    16   ar
    15    12    16   ar
    16    13    17   ar
    17    14    18   ar
    18    15    20    1
    19    16    20    1
    20    17    18   ar
    21    17    19    1
    22    18    20    1
    23    19    21    1
    24    20    21    1
    25     1    22    1
    26     2    23    1
    27     3    24    1
    28     4    25    1
    29     5    26    1
    30     6    27    1
    31     7    28    1
    32     8    29    1
    33     9    30    1
    34    10    31    1
    35    11    32    1
    36    12    33    1
    37    13    34    1
    38    14    35    1
    39    19    36    1
    40    19    37    1
