@<TRIPOS>MOLECULE
AG-927/37114008
 45 48 0 0 0
SMALL
USER_CHARGES

@<TRIPOS>ATOM
      1 C           0.0469    0.8156   -1.8316 C.ar    1  LIG1       -0.1073
      2 C           1.3239    4.3487    6.5510 C.ar    1  LIG1       -0.1089
      3 C           2.1467    7.4658   -2.8690 C.ar    1  LIG1       -0.1071
      4 C           1.3995    0.4991   -1.7062 C.ar    1  LIG1       -0.1031
      5 C          -0.4532    1.9819   -1.2524 C.ar    1  LIG1       -0.1053
      6 C           0.4836    4.0528    5.4778 C.ar    1  LIG1       -0.1074
      7 C           2.6628    4.6659    6.3219 C.ar    1  LIG1       -0.1043
      8 C           3.1027    6.4513   -2.8195 C.ar    1  LIG1       -0.0991
      9 C           1.2192    7.6011   -1.8360 C.ar    1  LIG1       -0.1019
     10 C           2.2522    1.3488   -1.0015 C.ar    1  LIG1       -0.0922
     11 C           0.3994    2.8316   -0.5477 C.ar    1  LIG1       -0.0965
     12 C           0.9823    4.0740    4.1752 C.ar    1  LIG1       -0.0972
     13 C           3.1614    4.6871    5.0193 C.ar    1  LIG1       -0.0926
     14 C           3.1311    5.5720   -1.7370 C.ar    1  LIG1       -0.0693
     15 C           1.2476    6.7220   -0.7535 C.ar    1  LIG1       -0.0720
     16 C           1.7522    2.5152   -0.4222 C.ar    1  LIG1       -0.0799
     17 C           2.3212    4.3911    3.9460 C.ar    1  LIG1       -0.0720
     18 C           2.2035    5.7073   -0.7040 C.ar    1  LIG1       -0.0232
     19 C           2.7377    3.0617    1.8198 C.3     1  LIG1        0.0096
     20 C           2.6773    3.4380    0.3432 C.3     1  LIG1        0.0324
     21 C           2.8669    4.4142    2.5226 C.3     1  LIG1        0.0505
     22 C           4.3129    4.9359    2.5462 C.3     1  LIG1       -0.0228
     23 N           2.2318    4.8285    0.3786 N.4     1  LIG1       -0.2924
     24 O           2.0765    5.2942    1.6941 O.3     1  LIG1       -0.3696
     25 H          -0.6166    0.1544   -2.3815 H       1  LIG1        0.1158
     26 H           0.9352    4.3335    7.5652 H       1  LIG1        0.1137
     27 H           2.1245    8.1502   -3.7122 H       1  LIG1        0.1128
     28 H           1.7893   -0.4084   -2.1581 H       1  LIG1        0.1163
     29 H          -1.5060    2.2291   -1.3508 H       1  LIG1        0.1161
     30 H          -0.5591    3.8068    5.6560 H       1  LIG1        0.1143
     31 H           3.3170    4.8975    7.1572 H       1  LIG1        0.1149
     32 H           3.8246    6.3460   -3.6238 H       1  LIG1        0.1209
     33 H           0.4747    8.3913   -1.8748 H       1  LIG1        0.1183
     34 H           3.3047    1.0941   -0.9088 H       1  LIG1        0.1285
     35 H           0.0010    3.7380   -0.0996 H       1  LIG1        0.1180
     36 H           0.3203    3.8418    3.3451 H       1  LIG1        0.1171
     37 H           4.2059    4.9352    4.8503 H       1  LIG1        0.1244
     38 H           3.8799    4.7848   -1.7079 H       1  LIG1        0.1282
     39 H           0.5199    6.8372    0.0458 H       1  LIG1        0.1272
     40 H           1.8841    2.4653    2.1627 H       1  LIG1        0.0846
     41 H           3.6492    2.4701    1.9840 H       1  LIG1        0.0860
     42 H           3.6909    3.3200   -0.0993 H       1  LIG1        0.1150
     43 H           4.7176    4.9583    1.5344 H       1  LIG1        0.0573
     44 H           4.9339    4.2846    3.1612 H       1  LIG1        0.0531
     45 H           4.3387    5.9438    2.9602 H       1  LIG1        0.0490
@<TRIPOS>BOND
     1     1     4   ar
     2     1     5   ar
     3     2     6   ar
     4     2     7   ar
     5     3     8   ar
     6     3     9   ar
     7     4    10   ar
     8     5    11   ar
     9     6    12   ar
    10     7    13   ar
    11     8    14   ar
    12     9    15   ar
    13    10    16   ar
    14    11    16   ar
    15    12    17   ar
    16    13    17   ar
    17    14    18   ar
    18    15    18   ar
    19    16    20    1
    20    17    21    1
    21    18    23    1
    22    19    20    1
    23    19    21    1
    24    20    23    1
    25    21    22    1
    26    21    24    1
    27    23    24    1
    28     1    25    1
    29     2    26    1
    30     3    27    1
    31     4    28    1
    32     5    29    1
    33     6    30    1
    34     7    31    1
    35     8    32    1
    36     9    33    1
    37    10    34    1
    38    11    35    1
    39    12    36    1
    40    13    37    1
    41    14    38    1
    42    15    39    1
    43    19    40    1
    44    19    41    1
    45    20    42    1
    46    22    43    1
    47    22    44    1
    48    22    45    1
