@<TRIPOS>MOLECULE
AG-690/33369030
 38 41 0 0 0
SMALL
USER_CHARGES

@<TRIPOS>ATOM
      1 C           1.2008    7.1619   -1.3786 C.ar    1  LIG1       -0.1135
      2 C           3.1458    4.2197    4.8004 C.ar    1  LIG1       -0.0646
      3 C           0.8692    4.8709    4.3208 C.ar    1  LIG1       -0.0623
      4 C           2.3370    1.7299   -1.3195 C.ar    1  LIG1       -0.0486
      5 C           0.1539    2.4339   -0.5608 C.ar    1  LIG1       -0.0446
      6 C           1.7411    0.9502   -2.3108 C.ar    1  LIG1       -0.0677
      7 C          -0.4420    1.6542   -1.5521 C.ar    1  LIG1       -0.0658
      8 C           2.9418    4.5012    6.1512 C.ar    1  LIG1       -0.0734
      9 C           0.6651    5.1523    5.6717 C.ar    1  LIG1       -0.0721
     10 C           1.3954    6.1982   -0.3474 C.ar    1  LIG1       -0.1080
     11 C           2.1869    7.0989   -2.3384 C.ar    1  LIG1       -0.0531
     12 C           2.1096    4.4047    3.8851 C.ar    1  LIG1       -0.0272
     13 C           1.5434    2.4717   -0.4445 C.ar    1  LIG1       -0.0176
     14 C           0.3516    0.9124   -2.4272 C.ar    1  LIG1       -0.0192
     15 C           1.7014    4.9674    6.5869 C.ar    1  LIG1       -0.0380
     16 C           2.5227    5.4350   -0.5584 C.ar    1  LIG1       -0.0388
     17 C           2.3223    4.1113    2.4768 C.2     1  LIG1        0.0159
     18 C           3.3808    4.8357    1.6910 C.3     1  LIG1        0.0361
     19 C           3.0638    4.3344    0.2794 C.3     1  LIG1        0.0317
     20 N           1.6625    3.2167    1.8110 N.2     1  LIG1       -0.3175
     21 N           2.1297    3.2362    0.5308 N.pl3   1  LIG1       -0.3160
     22 S           3.3410    5.8815   -1.9947 S.2     1  LIG1       -0.1411
     23 CL         -0.3831   -0.0496   -3.6503 Cl      1  LIG1       -0.1558
     24 BR          1.4249    5.3487    8.4171 Br      1  LIG1       -0.1081
     25 H           0.3793    7.8654   -1.4157 H       1  LIG1        0.1121
     26 H           4.1163    3.8568    4.4717 H       1  LIG1        0.1407
     27 H           0.0547    5.0186    3.6162 H       1  LIG1        0.1455
     28 H           3.4205    1.7517   -1.2368 H       1  LIG1        0.1282
     29 H          -0.4739    3.0069    0.1169 H       1  LIG1        0.1382
     30 H           2.3722    0.3761   -2.9844 H       1  LIG1        0.1399
     31 H          -1.5262    1.6333   -1.6294 H       1  LIG1        0.1402
     32 H           3.7597    4.3517    6.8514 H       1  LIG1        0.1386
     33 H          -0.3074    5.5150    5.9947 H       1  LIG1        0.1384
     34 H           0.7376    6.0740    0.5037 H       1  LIG1        0.1162
     35 H           2.2849    7.7096   -3.2248 H       1  LIG1        0.1643
     36 H           3.3089    5.9190    1.8232 H       1  LIG1        0.1064
     37 H           4.3630    4.4850    2.0257 H       1  LIG1        0.1041
     38 H           3.9761    3.9551   -0.1961 H       1  LIG1        0.1563
@<TRIPOS>BOND
     1     1    10   ar
     2     1    11   ar
     3     2     8   ar
     4     2    12   ar
     5     3     9   ar
     6     3    12   ar
     7     4     6   ar
     8     4    13   ar
     9     5     7   ar
    10     5    13   ar
    11     6    14   ar
    12     7    14   ar
    13     8    15   ar
    14     9    15   ar
    15    10    16   ar
    16    11    22   ar
    17    12    17    1
    18    13    21    1
    19    14    23    1
    20    15    24    1
    21    16    19    1
    22    16    22   ar
    23    17    18    1
    24    17    20    2
    25    18    19    1
    26    19    21    1
    27    20    21    1
    28     1    25    1
    29     2    26    1
    30     3    27    1
    31     4    28    1
    32     5    29    1
    33     6    30    1
    34     7    31    1
    35     8    32    1
    36     9    33    1
    37    10    34    1
    38    11    35    1
    39    18    36    1
    40    18    37    1
    41    19    38    1
