@<TRIPOS>MOLECULE
AP-970/43337018
 38 40 0 0 0
SMALL
USER_CHARGES

@<TRIPOS>ATOM
      1 C           0.3762    0.5989   -1.8884 C.ar    1  LIG1       -0.1061
      2 C           2.2047    7.5772   -2.3232 C.ar    1  LIG1       -0.1078
      3 C           1.7071    0.9512   -2.1124 C.ar    1  LIG1       -0.1045
      4 C          -0.4078    1.3537   -1.0157 C.ar    1  LIG1       -0.1045
      5 C           3.1743    6.5870   -2.4810 C.ar    1  LIG1       -0.1064
      6 C           1.1870    7.4134   -1.3835 C.ar    1  LIG1       -0.1020
      7 C           2.2541    2.0583   -1.4637 C.ar    1  LIG1       -0.0988
      8 C           0.1393    2.4607   -0.3671 C.ar    1  LIG1       -0.0983
      9 C           3.1262    5.4329   -1.6990 C.ar    1  LIG1       -0.0974
     10 C           1.1389    6.2594   -0.6015 C.ar    1  LIG1       -0.0917
     11 C           0.5770    4.8226    5.6657 C.ar    1  LIG1       -0.0650
     12 C           0.8173    4.6506    4.3071 C.ar    1  LIG1       -0.0260
     13 C           2.8662    4.3290    6.0802 C.ar    1  LIG1       -0.0067
     14 C           1.4703    2.8131   -0.5910 C.ar    1  LIG1       -0.0748
     15 C           2.1084    5.2691   -0.7592 C.ar    1  LIG1       -0.0686
     16 C           1.6155    4.6605    6.5758 C.ar    1  LIG1       -0.0102
     17 C           2.1039    4.3197    3.9130 C.ar    1  LIG1        0.0212
     18 C           1.4175    4.2719    1.4880 C.2     1  LIG1        0.1321
     19 C           2.0546    3.9968    0.1032 C.3     1  LIG1        0.0893
     20 N           3.1382    4.1537    4.7676 N.ar    1  LIG1       -0.3473
     21 N           2.3376    4.1481    2.5279 N.am    1  LIG1       -0.2696
     22 O           0.2271    4.5551    1.5907 O.2     1  LIG1       -0.4359
     23 I           1.3039    4.9067    8.6038 I       1  LIG1       -0.1005
     24 H          -0.0500   -0.2623   -2.3946 H       1  LIG1        0.1170
     25 H           2.2431    8.4764   -2.9313 H       1  LIG1        0.1147
     26 H           2.3173    0.3643   -2.7926 H       1  LIG1        0.1172
     27 H          -1.4443    1.0803   -0.8420 H       1  LIG1        0.1181
     28 H           3.9674    6.7147   -3.2118 H       1  LIG1        0.1143
     29 H           0.4325    8.1847   -1.2596 H       1  LIG1        0.1150
     30 H           3.2921    2.3252   -1.6441 H       1  LIG1        0.1176
     31 H          -0.4790    3.0429    0.3112 H       1  LIG1        0.1210
     32 H           3.8858    4.6665   -1.8289 H       1  LIG1        0.1180
     33 H           0.3422    6.1404    0.1281 H       1  LIG1        0.1240
     34 H          -0.4257    5.0820    5.9952 H       1  LIG1        0.1556
     35 H           0.0130    4.7758    3.5895 H       1  LIG1        0.1371
     36 H           3.7218    4.1867    6.7337 H       1  LIG1        0.2241
     37 H           3.1172    3.7746    0.3413 H       1  LIG1        0.1438
     38 H           3.2961    3.9149    2.2773 H       1  LIG1        0.3419
@<TRIPOS>BOND
     1     1     3   ar
     2     1     4   ar
     3     2     5   ar
     4     2     6   ar
     5     3     7   ar
     6     4     8   ar
     7     5     9   ar
     8     6    10   ar
     9     7    14   ar
    10     8    14   ar
    11     9    15   ar
    12    10    15   ar
    13    11    12   ar
    14    11    16   ar
    15    12    17   ar
    16    13    16   ar
    17    13    20   ar
    18    14    19    1
    19    15    19    1
    20    16    23    1
    21    17    20   ar
    22    17    21    1
    23    18    19    1
    24    18    21   am
    25    18    22    2
    26     1    24    1
    27     2    25    1
    28     3    26    1
    29     4    27    1
    30     5    28    1
    31     6    29    1
    32     7    30    1
    33     8    31    1
    34     9    32    1
    35    10    33    1
    36    11    34    1
    37    12    35    1
    38    13    36    1
    39    19    37    1
    40    21    38    1
