@<TRIPOS>MOLECULE
AE-848/30709005
 49 51 0 0 0
SMALL
USER_CHARGES

@<TRIPOS>ATOM
      1 C           2.3382    7.4751   -2.4164 C.ar    1  LIG1       -0.1106
      2 C           0.5282    0.5860   -2.2269 C.ar    1  LIG1       -0.1095
      3 C           3.3308    6.5039   -2.2850 C.ar    1  LIG1       -0.1052
      4 C           1.1296    7.3338   -1.7345 C.ar    1  LIG1       -0.1098
      5 C           1.8741    0.9318   -2.1067 C.ar    1  LIG1       -0.1077
      6 C          -0.4487    1.3544   -1.5937 C.ar    1  LIG1       -0.1072
      7 C           3.1146    5.3913   -1.4719 C.ar    1  LIG1       -0.0964
      8 C           0.9135    6.2213   -0.9214 C.ar    1  LIG1       -0.1025
      9 C           2.2432    2.0461   -1.3531 C.ar    1  LIG1       -0.1018
     10 C          -0.0795    2.4686   -0.8400 C.ar    1  LIG1       -0.1011
     11 C           0.8055    4.8733    5.9261 C.ar    1  LIG1       -0.0986
     12 C           3.0942    4.4083    5.3079 C.ar    1  LIG1       -0.0989
     13 C           1.3011    3.9048    3.7690 C.ar    1  LIG1       -0.0108
     14 C           1.9060    5.2500   -0.7899 C.ar    1  LIG1       -0.0963
     15 C           1.2664    2.8145   -0.7197 C.ar    1  LIG1       -0.0995
     16 C           2.1661    4.8862    6.2330 C.ar    1  LIG1       -0.1137
     17 C           0.3730    4.3826    4.6941 C.ar    1  LIG1       -0.0953
     18 C           2.6618    3.9177    4.0758 C.ar    1  LIG1       -0.0956
     19 C           0.8485    3.3918    2.4799 C.2     1  LIG1        0.0864
     20 C           2.6278    5.4096    7.5509 C.3     1  LIG1       -0.0412
     21 C          -1.0907    4.3818    4.3939 C.3     1  LIG1       -0.0380
     22 C           3.6797    3.4111    3.1060 C.3     1  LIG1       -0.0383
     23 C           0.7199    4.3518    1.2817 C.3     1  LIG1        0.0506
     24 C           1.6681    4.0295    0.1023 C.3     1  LIG1       -0.0023
     25 O           0.5831    2.1840    2.3447 O.2     1  LIG1       -0.4472
     26 H           2.5071    8.3419   -3.0485 H       1  LIG1        0.1107
     27 H           0.2409   -0.2809   -2.8149 H       1  LIG1        0.1127
     28 H           4.2723    6.6143   -2.8150 H       1  LIG1        0.1136
     29 H           0.3571    8.0903   -1.8357 H       1  LIG1        0.1116
     30 H           2.6348    0.3344   -2.6006 H       1  LIG1        0.1143
     31 H          -1.4966    1.0860   -1.6879 H       1  LIG1        0.1148
     32 H           3.8936    4.6396   -1.3757 H       1  LIG1        0.1201
     33 H          -0.0314    6.1196   -0.3940 H       1  LIG1        0.1120
     34 H           3.2943    2.3080   -1.2648 H       1  LIG1        0.1157
     35 H          -0.8475    3.0613   -0.3501 H       1  LIG1        0.1172
     36 H           0.0831    5.2454    6.6489 H       1  LIG1        0.1199
     37 H           4.1550    4.4203    5.5473 H       1  LIG1        0.1200
     38 H           2.6640    4.6014    8.2915 H       1  LIG1        0.0587
     39 H           3.6276    5.8562    7.4742 H       1  LIG1        0.0552
     40 H           1.9574    6.1945    7.9250 H       1  LIG1        0.0552
     41 H          -1.3798    5.3235    3.9137 H       1  LIG1        0.0591
     42 H          -1.3575    3.5525    3.7277 H       1  LIG1        0.0555
     43 H          -1.6823    4.2594    5.3095 H       1  LIG1        0.0581
     44 H           3.8544    2.3409    3.2645 H       1  LIG1        0.0612
     45 H           3.3499    3.5628    2.0713 H       1  LIG1        0.0516
     46 H           4.6325    3.9424    3.2195 H       1  LIG1        0.0598
     47 H          -0.3243    4.3403    0.9519 H       1  LIG1        0.0927
     48 H           0.9462    5.3582    1.6577 H       1  LIG1        0.1011
     49 H           2.6358    3.7911    0.5721 H       1  LIG1        0.0996
@<TRIPOS>BOND
     1     1     3   ar
     2     1     4   ar
     3     2     5   ar
     4     2     6   ar
     5     3     7   ar
     6     4     8   ar
     7     5     9   ar
     8     6    10   ar
     9     7    14   ar
    10     8    14   ar
    11     9    15   ar
    12    10    15   ar
    13    11    16   ar
    14    11    17   ar
    15    12    16   ar
    16    12    18   ar
    17    13    17   ar
    18    13    18   ar
    19    13    19    1
    20    14    24    1
    21    15    24    1
    22    16    20    1
    23    17    21    1
    24    18    22    1
    25    19    23    1
    26    19    25    2
    27    23    24    1
    28     1    26    1
    29     2    27    1
    30     3    28    1
    31     4    29    1
    32     5    30    1
    33     6    31    1
    34     7    32    1
    35     8    33    1
    36     9    34    1
    37    10    35    1
    38    11    36    1
    39    12    37    1
    40    20    38    1
    41    20    39    1
    42    20    40    1
    43    21    41    1
    44    21    42    1
    45    21    43    1
    46    22    44    1
    47    22    45    1
    48    22    46    1
    49    23    47    1
    50    23    48    1
    51    24    49    1
