@<TRIPOS>MOLECULE
AK-968/41169439
 39 41 0 0 0
SMALL
USER_CHARGES

@<TRIPOS>ATOM
      1 C           0.3727    0.5968   -1.9186 C.ar    1  LIG1       -0.1076
      2 C           2.2024    7.5765   -2.3257 C.ar    1  LIG1       -0.1054
      3 C           1.7033    0.9497   -2.1434 C.ar    1  LIG1       -0.1060
      4 C          -0.4096    1.3480   -1.0412 C.ar    1  LIG1       -0.1022
      5 C           3.1715    6.5867   -2.4896 C.ar    1  LIG1       -0.1040
      6 C           1.1863    7.4088   -1.3849 C.ar    1  LIG1       -0.1040
      7 C           0.8607    5.3904    5.6495 C.ar    1  LIG1       -0.0783
      8 C           2.2517    2.0538   -1.4907 C.ar    1  LIG1       -0.0970
      9 C           0.1390    2.4520   -0.3886 C.ar    1  LIG1       -0.0920
     10 C           3.1244    5.4291   -1.7127 C.ar    1  LIG1       -0.0990
     11 C           1.1393    6.2513   -0.6080 C.ar    1  LIG1       -0.0986
     12 C           1.1177    5.1912    4.2931 C.ar    1  LIG1       -0.0488
     13 C           1.5995    4.6974    6.6084 C.ar    1  LIG1       -0.0634
     14 C           1.4697    2.8049   -0.6134 C.ar    1  LIG1       -0.0683
     15 C           2.1083    5.2614   -0.7718 C.ar    1  LIG1       -0.0750
     16 C           2.1134    4.2991    3.8955 C.ar    1  LIG1       -0.0157
     17 C           2.5953    3.8051    6.2109 C.ar    1  LIG1        0.0217
     18 C           2.8522    3.6059    4.8545 C.ar    1  LIG1        0.0467
     19 C           1.4210    4.2545    1.4722 C.2     1  LIG1        0.1149
     20 C           2.0556    3.9853    0.0850 C.3     1  LIG1        0.0885
     21 N           2.3428    4.1258    2.5099 N.am    1  LIG1       -0.2995
     22 O           0.2309    4.5376    1.5782 O.2     1  LIG1       -0.4629
     23 CL          3.4706    2.9795    7.4537 Cl      1  LIG1       -0.1201
     24 CL          4.0883    2.4989    4.3408 Cl      1  LIG1       -0.1206
     25 H          -0.0546   -0.2620   -2.4279 H       1  LIG1        0.1150
     26 H           2.2401    8.4783   -2.9299 H       1  LIG1        0.1177
     27 H           2.3121    0.3657   -2.8273 H       1  LIG1        0.1147
     28 H          -1.4458    1.0741   -0.8668 H       1  LIG1        0.1152
     29 H           3.9633    6.7174   -3.2213 H       1  LIG1        0.1181
     30 H           0.4324    8.1797   -1.2563 H       1  LIG1        0.1185
     31 H           0.0854    6.0852    5.9589 H       1  LIG1        0.1424
     32 H           3.2895    2.3212   -1.6718 H       1  LIG1        0.1186
     33 H          -0.4779    3.0313    0.2932 H       1  LIG1        0.1241
     34 H           3.8836    4.6631   -1.8472 H       1  LIG1        0.1186
     35 H           0.3438    6.1293    0.1225 H       1  LIG1        0.1212
     36 H           0.5347    5.7380    3.5560 H       1  LIG1        0.1577
     37 H           1.3852    4.8650    7.6610 H       1  LIG1        0.1387
     38 H           3.1185    3.7618    0.3203 H       1  LIG1        0.1466
     39 H           3.2995    3.8873    2.2571 H       1  LIG1        0.3295
@<TRIPOS>BOND
     1     1     3   ar
     2     1     4   ar
     3     2     5   ar
     4     2     6   ar
     5     3     8   ar
     6     4     9   ar
     7     5    10   ar
     8     6    11   ar
     9     7    12   ar
    10     7    13   ar
    11     8    14   ar
    12     9    14   ar
    13    10    15   ar
    14    11    15   ar
    15    12    16   ar
    16    13    17   ar
    17    14    20    1
    18    15    20    1
    19    16    18   ar
    20    16    21    1
    21    17    18   ar
    22    17    23    1
    23    18    24    1
    24    19    20    1
    25    19    21   am
    26    19    22    2
    27     1    25    1
    28     2    26    1
    29     3    27    1
    30     4    28    1
    31     5    29    1
    32     6    30    1
    33     7    31    1
    34     8    32    1
    35     9    33    1
    36    10    34    1
    37    11    35    1
    38    12    36    1
    39    13    37    1
    40    20    38    1
    41    21    39    1
