@<TRIPOS>MOLECULE
AK-830/13217148
 44 47 0 0 0
SMALL
USER_CHARGES

@<TRIPOS>ATOM
      1 C           2.0469    7.5923   -1.7311 C.ar    1  LIG1       -0.1035
      2 C           0.2397    0.6552   -2.3232 C.ar    1  LIG1       -0.1017
      3 C           1.5596    5.0903    6.4160 C.ar    1  LIG1       -0.1018
      4 C           2.6449    6.5475   -2.4354 C.ar    1  LIG1       -0.0978
      5 C           1.5281    7.3670   -0.4561 C.ar    1  LIG1       -0.1003
      6 C          -0.2062    1.9769   -2.3323 C.ar    1  LIG1       -0.0992
      7 C           1.3461    0.2977   -1.5527 C.ar    1  LIG1       -0.1014
      8 C           0.6474    5.2610    5.3747 C.ar    1  LIG1       -0.0918
      9 C           2.8304    4.5786    6.1530 C.ar    1  LIG1       -0.0925
     10 C           2.7240    5.2770   -1.8648 C.ar    1  LIG1       -0.0814
     11 C           1.6071    6.0966    0.1146 C.ar    1  LIG1       -0.0836
     12 C           0.4545    2.9411   -1.5709 C.ar    1  LIG1       -0.0892
     13 C           2.0068    1.2618   -0.7913 C.ar    1  LIG1       -0.0929
     14 C           1.0058    4.9201    4.0705 C.ar    1  LIG1       -0.0543
     15 C           3.1888    4.2377    4.8488 C.ar    1  LIG1       -0.0544
     16 C           2.2050    5.0516   -0.5898 C.ar    1  LIG1       -0.0279
     17 C           1.5610    2.5835   -0.8004 C.ar    1  LIG1       -0.0396
     18 C           2.2765    4.4084    3.8076 C.ar    1  LIG1       -0.0011
     19 C           1.7525    3.6109    1.4845 C.2     1  LIG1        0.1900
     20 C           4.4312    3.7345    1.0809 C.2     1  LIG1        0.0911
     21 C           2.2917    3.6486    0.0411 C.3     1  LIG1        0.1715
     22 C           5.8912    3.6914    0.7722 C.3     1  LIG1        0.0464
     23 N           3.9847    4.1411    2.2180 N.2     1  LIG1       -0.2835
     24 N           2.6459    4.0569    2.4626 N.am    1  LIG1       -0.2283
     25 O           0.5948    3.2450    1.7010 O.2     1  LIG1       -0.4363
     26 O           3.6862    3.2943    0.0493 O.2     1  LIG1       -0.3294
     27 H           1.9867    8.5818   -2.1751 H       1  LIG1        0.1209
     28 H          -0.2757   -0.0956   -2.9149 H       1  LIG1        0.1231
     29 H           1.2812    5.3564    7.4315 H       1  LIG1        0.1193
     30 H           3.0500    6.7229   -3.4278 H       1  LIG1        0.1205
     31 H           1.0635    8.1806    0.0930 H       1  LIG1        0.1192
     32 H          -1.0683    2.2553   -2.9313 H       1  LIG1        0.1233
     33 H           1.6928   -0.7315   -1.5444 H       1  LIG1        0.1222
     34 H          -0.3418    5.6602    5.5789 H       1  LIG1        0.1252
     35 H           3.5409    4.4467    6.9639 H       1  LIG1        0.1246
     36 H           3.1915    4.4688   -2.4211 H       1  LIG1        0.1300
     37 H           1.2000    5.9303    1.1084 H       1  LIG1        0.1309
     38 H           0.1002    3.9684   -1.5843 H       1  LIG1        0.1290
     39 H           2.8680    0.9740   -0.1942 H       1  LIG1        0.1216
     40 H           0.2865    5.0577    3.2670 H       1  LIG1        0.1303
     41 H           4.1820    3.8398    4.6558 H       1  LIG1        0.1328
     42 H           6.3005    2.7225    1.0573 H       1  LIG1        0.1072
     43 H           6.4091    4.4768    1.3230 H       1  LIG1        0.1092
     44 H           6.0481    3.8482   -0.2951 H       1  LIG1        0.1036
@<TRIPOS>BOND
     1     1     4   ar
     2     1     5   ar
     3     2     6   ar
     4     2     7   ar
     5     3     8   ar
     6     3     9   ar
     7     4    10   ar
     8     5    11   ar
     9     6    12   ar
    10     7    13   ar
    11     8    14   ar
    12     9    15   ar
    13    10    16   ar
    14    11    16   ar
    15    12    17   ar
    16    13    17   ar
    17    14    18   ar
    18    15    18   ar
    19    16    21    1
    20    17    21    1
    21    18    24    1
    22    19    21    1
    23    19    24   am
    24    19    25    2
    25    20    22    1
    26    20    23    2
    27    20    26    1
    28    21    26    1
    29    23    24    1
    30     1    27    1
    31     2    28    1
    32     3    29    1
    33     4    30    1
    34     5    31    1
    35     6    32    1
    36     7    33    1
    37     8    34    1
    38     9    35    1
    39    10    36    1
    40    11    37    1
    41    12    38    1
    42    13    39    1
    43    14    40    1
    44    15    41    1
    45    22    42    1
    46    22    43    1
    47    22    44    1
