@<TRIPOS>MOLECULE
AR-016/42300656
 44 47 0 0 0
SMALL
USER_CHARGES

@<TRIPOS>ATOM
      1 C          -0.2053    0.8229   -1.9089 C.ar    1  LIG1       -0.1077
      2 C           1.0284    5.0246    6.3813 C.ar    1  LIG1       -0.1092
      3 C           1.0973    0.5686   -2.3382 C.ar    1  LIG1       -0.1050
      4 C          -0.4427    1.7999   -0.9419 C.ar    1  LIG1       -0.1063
      5 C           2.4126    5.1501    6.4985 C.ar    1  LIG1       -0.1059
      6 C           0.4780    4.3766    5.2754 C.ar    1  LIG1       -0.1079
      7 C           3.0569    5.5498   -2.0309 C.ar    1  LIG1       -0.0659
      8 C           1.5597    6.5731   -0.4345 C.ar    1  LIG1       -0.0645
      9 C           2.1624    1.2910   -1.8005 C.ar    1  LIG1       -0.0996
     10 C           0.6224    2.5222   -0.4042 C.ar    1  LIG1       -0.1008
     11 C           3.2464    4.6278    5.5098 C.ar    1  LIG1       -0.0963
     12 C           1.3117    3.8543    4.2867 C.ar    1  LIG1       -0.0992
     13 C           2.7907    6.5753   -2.9381 C.ar    1  LIG1       -0.0677
     14 C           1.2935    7.5987   -1.3417 C.ar    1  LIG1       -0.0672
     15 C           2.4413    5.5486   -0.7791 C.ar    1  LIG1       -0.0295
     16 C           1.9250    2.2678   -0.8335 C.ar    1  LIG1       -0.0909
     17 C           2.6960    3.9799    4.4039 C.ar    1  LIG1       -0.0781
     18 C           1.9090    7.5999   -2.5935 C.ar    1  LIG1       -0.0162
     19 C           2.7245    4.4581    0.1860 C.2     1  LIG1        0.0155
     20 C           3.5736    2.4975    1.0868 C.3     1  LIG1       -0.0015
     21 C           3.0798    3.0517   -0.2496 C.3     1  LIG1        0.0312
     22 C           3.5930    3.4176    3.3392 C.3     1  LIG1        0.0091
     23 N           2.6946    4.6320    1.4733 N.2     1  LIG1       -0.3350
     24 N           2.9580    3.4271    2.0329 N.pl3   1  LIG1       -0.3641
     25 CL          1.5818    8.8657   -3.7120 Cl      1  LIG1       -0.1453
     26 H          -1.0347    0.2612   -2.3287 H       1  LIG1        0.1144
     27 H           0.3793    5.4301    7.1519 H       1  LIG1        0.1139
     28 H           1.2822   -0.1913   -3.0918 H       1  LIG1        0.1151
     29 H          -1.4568    1.9989   -0.6084 H       1  LIG1        0.1162
     30 H           2.8414    5.6536    7.3601 H       1  LIG1        0.1140
     31 H          -0.5996    4.2778    5.1844 H       1  LIG1        0.1129
     32 H           3.7451    4.7561   -2.3099 H       1  LIG1        0.1384
     33 H           1.0746    6.5824    0.5382 H       1  LIG1        0.1425
     34 H           3.1739    1.0859   -2.1408 H       1  LIG1        0.1154
     35 H           0.4280    3.2815    0.3488 H       1  LIG1        0.1177
     36 H           4.3239    4.7304    5.6093 H       1  LIG1        0.1204
     37 H           0.8740    3.3512    3.4286 H       1  LIG1        0.1153
     38 H           3.2778    6.5641   -3.9097 H       1  LIG1        0.1339
     39 H           0.6041    8.3902   -1.0593 H       1  LIG1        0.1338
     40 H           3.2811    1.4587    1.2715 H       1  LIG1        0.1028
     41 H           4.6676    2.5735    1.1248 H       1  LIG1        0.1054
     42 H           3.9085    3.0785   -0.9942 H       1  LIG1        0.1127
     43 H           4.5191    3.9984    3.2683 H       1  LIG1        0.1420
     44 H           3.8739    2.3841    3.5674 H       1  LIG1        0.1415
@<TRIPOS>BOND
     1     1     3   ar
     2     1     4   ar
     3     2     5   ar
     4     2     6   ar
     5     3     9   ar
     6     4    10   ar
     7     5    11   ar
     8     6    12   ar
     9     7    13   ar
    10     7    15   ar
    11     8    14   ar
    12     8    15   ar
    13     9    16   ar
    14    10    16   ar
    15    11    17   ar
    16    12    17   ar
    17    13    18   ar
    18    14    18   ar
    19    15    19    1
    20    16    21    1
    21    17    22    1
    22    18    25    1
    23    19    21    1
    24    19    23    2
    25    20    21    1
    26    20    24    1
    27    22    24    1
    28    23    24    1
    29     1    26    1
    30     2    27    1
    31     3    28    1
    32     4    29    1
    33     5    30    1
    34     6    31    1
    35     7    32    1
    36     8    33    1
    37     9    34    1
    38    10    35    1
    39    11    36    1
    40    12    37    1
    41    13    38    1
    42    14    39    1
    43    20    40    1
    44    20    41    1
    45    21    42    1
    46    22    43    1
    47    22    44    1
