@<TRIPOS>MOLECULE
AN-329/12865307
 39 41 0 0 0
SMALL
USER_CHARGES

@<TRIPOS>ATOM
      1 C           0.3766    0.5965   -1.9155 C.ar    1  LIG1       -0.1054
      2 C           2.2056    7.5754   -2.3377 C.ar    1  LIG1       -0.1073
      3 C           1.7081    0.9491   -2.1351 C.ar    1  LIG1       -0.1034
      4 C          -0.4102    1.3503   -1.0444 C.ar    1  LIG1       -0.1045
      5 C           3.1758    6.5855   -2.4935 C.ar    1  LIG1       -0.1022
      6 C           1.1850    7.4106   -1.4013 C.ar    1  LIG1       -0.1057
      7 C           2.2530    2.0556   -1.4836 C.ar    1  LIG1       -0.0972
      8 C           0.1349    2.4568   -0.3930 C.ar    1  LIG1       -0.0996
      9 C           3.1254    5.4306   -1.7129 C.ar    1  LIG1       -0.0924
     10 C           1.1347    6.2558   -0.6206 C.ar    1  LIG1       -0.0967
     11 C           2.8445    3.6104    4.8274 C.ar    1  LIG1       -0.0341
     12 C           1.0993    5.2038    4.3254 C.ar    1  LIG1       -0.0273
     13 C           1.6236    4.6703    6.6226 C.ar    1  LIG1       -0.0415
     14 C           1.4664    2.8095   -0.6125 C.ar    1  LIG1       -0.0741
     15 C           2.1048    5.2657   -0.7763 C.ar    1  LIG1       -0.0681
     16 C           2.0879    4.3193    3.8943 C.ar    1  LIG1       -0.0344
     17 C           2.6123    3.7858    6.1915 C.ar    1  LIG1        0.0027
     18 C           0.8672    5.3794    5.6895 C.ar    1  LIG1        0.0068
     19 C           1.4072    4.2662    1.4678 C.2     1  LIG1        0.1133
     20 C           2.0485    3.9925    0.0846 C.3     1  LIG1        0.0886
     21 N           2.3241    4.1415    2.5103 N.am    1  LIG1       -0.3042
     22 O           0.2165    4.5492    1.5671 O.2     1  LIG1       -0.4638
     23 CL          3.5463    2.9116    7.3430 Cl      1  LIG1       -0.1269
     24 CL         -0.3534    6.4699    6.2215 Cl      1  LIG1       -0.1250
     25 H          -0.0480   -0.2643   -2.4238 H       1  LIG1        0.1175
     26 H           2.2458    8.4752   -2.9448 H       1  LIG1        0.1152
     27 H           2.3204    0.3630   -2.8140 H       1  LIG1        0.1188
     28 H          -1.4471    1.0767   -0.8741 H       1  LIG1        0.1178
     29 H           3.9711    6.7140   -3.2219 H       1  LIG1        0.1153
     30 H           0.4302    8.1816   -1.2789 H       1  LIG1        0.1151
     31 H           3.2915    2.3229   -1.6606 H       1  LIG1        0.1220
     32 H          -0.4856    3.0381    0.2839 H       1  LIG1        0.1150
     33 H           3.8855    4.6644   -1.8412 H       1  LIG1        0.1214
     34 H           0.3358    6.1359    0.1065 H       1  LIG1        0.1184
     35 H           3.6157    2.9217    4.4884 H       1  LIG1        0.1454
     36 H           0.5107    5.7560    3.5957 H       1  LIG1        0.1606
     37 H           1.4428    4.8072    7.6866 H       1  LIG1        0.1447
     38 H           3.1104    3.7702    0.3258 H       1  LIG1        0.1465
     39 H           3.2820    3.9024    2.2629 H       1  LIG1        0.3285
@<TRIPOS>BOND
     1     1     3   ar
     2     1     4   ar
     3     2     5   ar
     4     2     6   ar
     5     3     7   ar
     6     4     8   ar
     7     5     9   ar
     8     6    10   ar
     9     7    14   ar
    10     8    14   ar
    11     9    15   ar
    12    10    15   ar
    13    11    16   ar
    14    11    17   ar
    15    12    16   ar
    16    12    18   ar
    17    13    17   ar
    18    13    18   ar
    19    14    20    1
    20    15    20    1
    21    16    21    1
    22    17    23    1
    23    18    24    1
    24    19    20    1
    25    19    21   am
    26    19    22    2
    27     1    25    1
    28     2    26    1
    29     3    27    1
    30     4    28    1
    31     5    29    1
    32     6    30    1
    33     7    31    1
    34     8    32    1
    35     9    33    1
    36    10    34    1
    37    11    35    1
    38    12    36    1
    39    13    37    1
    40    20    38    1
    41    21    39    1
