@<TRIPOS>MOLECULE
AG-690/10493013
 42 45 0 0 0
SMALL
USER_CHARGES

@<TRIPOS>ATOM
      1 C           2.2982    1.5045   -1.1217 C.ar    1  LIG1       -0.1015
      2 C           1.3324    0.6820   -1.7015 C.ar    1  LIG1       -0.1040
      3 C           1.6586    4.1741    6.1288 C.ar    1  LIG1       -0.1039
      4 C           1.9120    2.6498   -0.4252 C.ar    1  LIG1       -0.0854
      5 C           0.8188    6.6318   -1.4557 C.ar    1  LIG1       -0.0453
      6 C           3.0234    5.7077   -1.1049 C.ar    1  LIG1       -0.0483
      7 C          -0.0196    1.0048   -1.5850 C.ar    1  LIG1       -0.0709
      8 C           1.2769    7.2917   -2.5960 C.ar    1  LIG1       -0.0668
      9 C           3.4814    6.3675   -2.2452 C.ar    1  LIG1       -0.0680
     10 C           0.8784    4.2609    4.9398 C.ar    1  LIG1       -0.0853
     11 C           3.0066    4.2972    5.8734 C.ar    1  LIG1       -0.0430
     12 C           0.5601    2.9726   -0.3087 C.ar    1  LIG1       -0.0360
     13 C           1.6921    5.8399   -0.7100 C.ar    1  LIG1       -0.0181
     14 C          -0.4058    2.1500   -0.8886 C.ar    1  LIG1       -0.0070
     15 C           2.6081    7.1595   -2.9908 C.ar    1  LIG1       -0.0202
     16 C           1.6599    4.4472    3.8206 C.ar    1  LIG1        0.0096
     17 C           1.2574    4.5804    2.4664 C.2     1  LIG1        0.0211
     18 C           0.0163    3.9129    1.9364 C.3     1  LIG1        0.0363
     19 C           0.1652    4.2023    0.4400 C.3     1  LIG1        0.0327
     20 C          -2.2909    3.2701   -1.8092 C.3     1  LIG1        0.0241
     21 N           1.9005    5.3003    1.5996 N.2     1  LIG1       -0.3128
     22 N           1.2419    5.1937    0.4110 N.pl3   1  LIG1       -0.3164
     23 O          -1.7305    2.4513   -0.7849 O.3     1  LIG1       -0.4164
     24 S           3.3270    4.5166    4.2055 S.2     1  LIG1       -0.1133
     25 CL          3.1728    7.9737   -4.3978 Cl      1  LIG1       -0.1574
     26 H           3.3513    1.2540   -1.2126 H       1  LIG1        0.1123
     27 H           1.6335   -0.2089   -2.2444 H       1  LIG1        0.1257
     28 H           1.2517    4.0276    7.1209 H       1  LIG1        0.1164
     29 H           2.6724    3.2849    0.0217 H       1  LIG1        0.1313
     30 H          -0.2200    6.7423   -1.1560 H       1  LIG1        0.1373
     31 H           3.7126    5.0942   -0.5301 H       1  LIG1        0.1285
     32 H          -0.7674    0.3602   -2.0389 H       1  LIG1        0.1128
     33 H           0.5853    7.9068   -3.1661 H       1  LIG1        0.1393
     34 H           4.5220    6.2564   -2.5395 H       1  LIG1        0.1392
     35 H          -0.2018    4.1899    4.9125 H       1  LIG1        0.1304
     36 H           3.8184    4.2679    6.5863 H       1  LIG1        0.1697
     37 H          -0.0173    2.8516    2.1988 H       1  LIG1        0.1027
     38 H          -0.8560    4.4245    2.3575 H       1  LIG1        0.1043
     39 H          -0.7646    4.6004    0.0195 H       1  LIG1        0.1445
     40 H          -3.3521    3.4338   -1.6062 H       1  LIG1        0.0898
     41 H          -2.1658    2.7798   -2.7779 H       1  LIG1        0.1226
     42 H          -1.7718    4.2314   -1.8197 H       1  LIG1        0.0896
@<TRIPOS>BOND
     1     1     2   ar
     2     1     4   ar
     3     2     7   ar
     4     3    10   ar
     5     3    11   ar
     6     4    12   ar
     7     5     8   ar
     8     5    13   ar
     9     6     9   ar
    10     6    13   ar
    11     7    14   ar
    12     8    15   ar
    13     9    15   ar
    14    10    16   ar
    15    11    24   ar
    16    12    14   ar
    17    12    19    1
    18    13    22    1
    19    14    23    1
    20    15    25    1
    21    16    17    1
    22    16    24   ar
    23    17    18    1
    24    17    21    2
    25    18    19    1
    26    19    22    1
    27    20    23    1
    28    21    22    1
    29     1    26    1
    30     2    27    1
    31     3    28    1
    32     4    29    1
    33     5    30    1
    34     6    31    1
    35     7    32    1
    36     8    33    1
    37     9    34    1
    38    10    35    1
    39    11    36    1
    40    18    37    1
    41    18    38    1
    42    19    39    1
    43    20    40    1
    44    20    41    1
    45    20    42    1
