@<TRIPOS>MOLECULE
AG-690/10492013
 42 45 0 0 0
SMALL
USER_CHARGES

@<TRIPOS>ATOM
      1 C           2.2984    1.5054   -1.1219 C.ar    1  LIG1       -0.1015
      2 C           1.3327    0.6828   -1.7018 C.ar    1  LIG1       -0.1039
      3 C           1.6586    4.1739    6.1290 C.ar    1  LIG1       -0.1037
      4 C           1.9121    2.6505   -0.4252 C.ar    1  LIG1       -0.0854
      5 C           0.8187    6.6327   -1.4559 C.ar    1  LIG1       -0.0445
      6 C           3.0225    5.7070   -1.1043 C.ar    1  LIG1       -0.0474
      7 C          -0.0193    1.0053   -1.5851 C.ar    1  LIG1       -0.0708
      8 C           1.2774    7.2913   -2.5967 C.ar    1  LIG1       -0.0746
      9 C           3.4812    6.3655   -2.2452 C.ar    1  LIG1       -0.0757
     10 C           0.8784    4.2607    4.9400 C.ar    1  LIG1       -0.0851
     11 C           3.0066    4.2974    5.8735 C.ar    1  LIG1       -0.0428
     12 C           0.5600    2.9730   -0.3086 C.ar    1  LIG1       -0.0360
     13 C           1.6914    5.8406   -0.7096 C.ar    1  LIG1       -0.0166
     14 C          -0.4058    2.1503   -0.8885 C.ar    1  LIG1       -0.0070
     15 C           2.6085    7.1577   -2.9914 C.ar    1  LIG1       -0.0454
     16 C           1.6598    4.4474    3.8208 C.ar    1  LIG1        0.0098
     17 C           1.2572    4.5806    2.4667 C.2     1  LIG1        0.0212
     18 C           0.0161    3.9129    1.9367 C.3     1  LIG1        0.0366
     19 C           0.1650    4.2025    0.4403 C.3     1  LIG1        0.0330
     20 C          -2.2911    3.2701   -1.8089 C.3     1  LIG1        0.0241
     21 N           1.9001    5.3007    1.5999 N.2     1  LIG1       -0.3125
     22 N           1.2414    5.1942    0.4113 N.pl3   1  LIG1       -0.3152
     23 O          -1.7305    2.4513   -0.7847 O.3     1  LIG1       -0.4163
     24 S           3.3269    4.5170    4.2056 S.2     1  LIG1       -0.1132
     25 BR          3.2292    8.0485   -4.5382 Br      1  LIG1       -0.1265
     26 H           3.3515    1.2551   -1.2129 H       1  LIG1        0.1123
     27 H           1.6340   -0.2081   -2.2448 H       1  LIG1        0.1260
     28 H           1.2519    4.0273    7.1210 H       1  LIG1        0.1165
     29 H           2.6723    3.2857    0.0217 H       1  LIG1        0.1310
     30 H          -0.2202    6.7439   -1.1566 H       1  LIG1        0.1364
     31 H           3.7109    5.0926   -0.5292 H       1  LIG1        0.1277
     32 H          -0.7670    0.3606   -2.0391 H       1  LIG1        0.1129
     33 H           0.5850    7.9061   -3.1659 H       1  LIG1        0.1408
     34 H           4.5217    6.2525   -2.5384 H       1  LIG1        0.1408
     35 H          -0.2018    4.1895    4.9128 H       1  LIG1        0.1307
     36 H           3.8185    4.2681    6.5863 H       1  LIG1        0.1700
     37 H          -0.0172    2.8516    2.1989 H       1  LIG1        0.1031
     38 H          -0.8562    4.4243    2.3579 H       1  LIG1        0.1046
     39 H          -0.7650    4.6005    0.0198 H       1  LIG1        0.1447
     40 H          -3.3523    3.4336   -1.6058 H       1  LIG1        0.0899
     41 H          -2.1660    2.7800   -2.7777 H       1  LIG1        0.1226
     42 H          -1.7722    4.2315   -1.8194 H       1  LIG1        0.0897
@<TRIPOS>BOND
     1     1     2   ar
     2     1     4   ar
     3     2     7   ar
     4     3    10   ar
     5     3    11   ar
     6     4    12   ar
     7     5     8   ar
     8     5    13   ar
     9     6     9   ar
    10     6    13   ar
    11     7    14   ar
    12     8    15   ar
    13     9    15   ar
    14    10    16   ar
    15    11    24   ar
    16    12    14   ar
    17    12    19    1
    18    13    22    1
    19    14    23    1
    20    15    25    1
    21    16    17    1
    22    16    24   ar
    23    17    18    1
    24    17    21    2
    25    18    19    1
    26    19    22    1
    27    20    23    1
    28    21    22    1
    29     1    26    1
    30     2    27    1
    31     3    28    1
    32     4    29    1
    33     5    30    1
    34     6    31    1
    35     7    32    1
    36     8    33    1
    37     9    34    1
    38    10    35    1
    39    11    36    1
    40    18    37    1
    41    18    38    1
    42    19    39    1
    43    20    40    1
    44    20    41    1
    45    20    42    1
