@<TRIPOS>MOLECULE
AJ-292/40762938
 47 50 0 0 0
SMALL
USER_CHARGES

@<TRIPOS>ATOM
      1 C           0.3459    0.6034   -1.6853 C.ar    1  LIG1       -0.0990
      2 C           2.2370    7.6117   -2.1300 C.ar    1  LIG1       -0.1041
      3 C           1.7196    0.6498   -1.4666 C.ar    1  LIG1       -0.0933
      4 C           3.3544    7.1311   -1.4702 C.ar    1  LIG1       -0.0939
      5 C          -0.4557    1.6803   -1.3093 C.ar    1  LIG1       -0.0899
      6 C           1.0375    6.9127   -2.0385 C.ar    1  LIG1       -0.0955
      7 C           0.9238    4.8709    3.8902 C.ar    1  LIG1       -0.0878
      8 C           3.1623    4.3324    4.6225 C.ar    1  LIG1       -0.0975
      9 C           2.2924    1.7719   -0.8682 C.ar    1  LIG1       -0.0635
     10 C           3.2668    5.9532   -0.7267 C.ar    1  LIG1       -0.0595
     11 C           0.4334    4.5556    5.1574 C.ar    1  LIG1       -0.0589
     12 C           2.6719    4.0171    5.8898 C.ar    1  LIG1       -0.0715
     13 C           0.1112    2.8122   -0.7069 C.ar    1  LIG1       -0.0722
     14 C           0.9198    5.7218   -1.2827 C.ar    1  LIG1       -0.0695
     15 C           2.2883    4.7592    3.6228 C.ar    1  LIG1       -0.0792
     16 C           1.4934    2.8602   -0.4831 C.ar    1  LIG1       -0.0291
     17 C           2.0615    5.2224   -0.6131 C.ar    1  LIG1       -0.0234
     18 C           1.3074    4.1288    6.1572 C.ar    1  LIG1       -0.0169
     19 C           2.8254    3.8920    1.3454 C.2     1  LIG1        0.1199
     20 C          -0.7435    3.9775   -0.3098 C.3     1  LIG1       -0.0276
     21 C          -0.4796    5.1403   -1.2524 C.3     1  LIG1       -0.0256
     22 C          -0.5764    3.9603    7.5989 C.3     1  LIG1        0.0225
     23 C           2.8148    5.0980    2.2631 C.3     1  LIG1        0.0755
     24 N           2.0935    3.9929    0.1448 N.am    1  LIG1       -0.2865
     25 O           3.5284    2.9293    1.6681 O.2     1  LIG1       -0.4650
     26 O           0.8289    3.8225    7.3940 O.3     1  LIG1       -0.4199
     27 H          -0.1010   -0.2693   -2.1524 H       1  LIG1        0.1218
     28 H           2.2950    8.5239   -2.7156 H       1  LIG1        0.1170
     29 H           2.3462   -0.1855   -1.7649 H       1  LIG1        0.1236
     30 H           4.3009    7.6584   -1.5429 H       1  LIG1        0.1223
     31 H          -1.5262    1.6319   -1.4916 H       1  LIG1        0.1287
     32 H           0.1678    7.3103   -2.5596 H       1  LIG1        0.1180
     33 H           0.2357    5.2026    3.1174 H       1  LIG1        0.1311
     34 H           4.2270    4.2422    4.4231 H       1  LIG1        0.1253
     35 H           3.3696    1.7962   -0.7229 H       1  LIG1        0.1327
     36 H           4.1878    5.5884   -0.2770 H       1  LIG1        0.1305
     37 H          -0.6307    4.6449    5.3598 H       1  LIG1        0.1273
     38 H           3.3578    3.6856    6.6642 H       1  LIG1        0.1107
     39 H          -1.8051    3.7052   -0.3574 H       1  LIG1        0.0711
     40 H          -0.5476    4.2531    0.7340 H       1  LIG1        0.0655
     41 H          -1.1718    5.9457   -0.9716 H       1  LIG1        0.0737
     42 H          -0.7373    4.8393   -2.2774 H       1  LIG1        0.0775
     43 H          -0.8242    3.6843    8.6268 H       1  LIG1        0.0884
     44 H          -1.1126    3.3156    6.8980 H       1  LIG1        0.0884
     45 H          -0.8607    5.0007    7.4247 H       1  LIG1        0.1210
     46 H           2.2055    5.8725    1.7997 H       1  LIG1        0.1186
     47 H           3.8303    5.4862    2.3209 H       1  LIG1        0.1186
@<TRIPOS>BOND
     1     1     3   ar
     2     1     5   ar
     3     2     4   ar
     4     2     6   ar
     5     3     9   ar
     6     4    10   ar
     7     5    13   ar
     8     6    14   ar
     9     7    11   ar
    10     7    15   ar
    11     8    12   ar
    12     8    15   ar
    13     9    16   ar
    14    10    17   ar
    15    11    18   ar
    16    12    18   ar
    17    13    16   ar
    18    13    20    1
    19    14    17   ar
    20    14    21    1
    21    15    23    1
    22    16    24    1
    23    17    24    1
    24    18    26    1
    25    19    23    1
    26    19    24   am
    27    19    25    2
    28    20    21    1
    29    22    26    1
    30     1    27    1
    31     2    28    1
    32     3    29    1
    33     4    30    1
    34     5    31    1
    35     6    32    1
    36     7    33    1
    37     8    34    1
    38     9    35    1
    39    10    36    1
    40    11    37    1
    41    12    38    1
    42    20    39    1
    43    20    40    1
    44    21    41    1
    45    21    42    1
    46    22    43    1
    47    22    44    1
    48    22    45    1
    49    23    46    1
    50    23    47    1
