@<TRIPOS>MOLECULE
AG-670/34887022
 49 50 0 0 0
SMALL
USER_CHARGES

@<TRIPOS>ATOM
      1 C           1.7927    4.3882    2.5750 C.1     1  LIG1       -0.1982
      2 C           2.0884    4.1820    1.4287 C.1     1  LIG1       -0.1161
      3 C           0.1959    0.7202   -1.7970 C.ar    1  LIG1       -0.1029
      4 C           1.9793    7.5702   -2.2984 C.ar    1  LIG1       -0.1022
      5 C          -0.3738    1.4829   -0.7775 C.ar    1  LIG1       -0.1039
      6 C           1.4914    0.9965   -2.2340 C.ar    1  LIG1       -0.0965
      7 C           0.8823    7.0182   -1.6370 C.ar    1  LIG1       -0.1031
      8 C           3.2270    6.9520   -2.2158 C.ar    1  LIG1       -0.0994
      9 C           0.3520    2.5220   -0.1951 C.ar    1  LIG1       -0.0900
     10 C           2.2172    2.0356   -1.6516 C.ar    1  LIG1       -0.0785
     11 C           1.0330    5.8480   -0.8928 C.ar    1  LIG1       -0.0944
     12 C           3.3777    5.7819   -1.4715 C.ar    1  LIG1       -0.0882
     13 C           1.6475    2.7983   -0.6321 C.ar    1  LIG1       -0.0402
     14 C           2.2807    5.2299   -0.8101 C.ar    1  LIG1       -0.0494
     15 C           0.4197    3.6850    6.1520 C.3     1  LIG1       -0.0615
     16 C           1.8511    2.2533    4.6728 C.3     1  LIG1       -0.0600
     17 C           0.9327    7.0402    3.4537 C.3     1  LIG1       -0.0854
     18 C          -0.8799    5.3421    3.2757 C.3     1  LIG1       -0.0854
     19 C           1.4099    4.6507    3.9678 C.3     1  LIG1       -0.0633
     20 C           0.8505    3.4150    4.7052 C.3     1  LIG1       -0.0649
     21 C           2.4472    3.9425    0.0087 C.3     1  LIG1        0.0836
     22 N           0.3893    5.7391    3.9822 N.4     1  LIG1        0.4108
     23 O           3.8360    3.5735    0.0365 O.3     1  LIG1       -0.4310
     24 H          -0.3689   -0.0896   -2.2495 H       1  LIG1        0.1226
     25 H           1.8615    8.4804   -2.8790 H       1  LIG1        0.1233
     26 H          -1.3821    1.2673   -0.4363 H       1  LIG1        0.1181
     27 H           1.9356    0.4023   -3.0269 H       1  LIG1        0.1238
     28 H          -0.0895    7.4987   -1.7022 H       1  LIG1        0.1191
     29 H           4.0811    7.3809   -2.7315 H       1  LIG1        0.1242
     30 H          -0.1001    3.1111    0.5986 H       1  LIG1        0.1114
     31 H           3.2259    2.2437   -1.9986 H       1  LIG1        0.1377
     32 H           0.1727    5.4252   -0.3807 H       1  LIG1        0.1119
     33 H           4.3536    5.3073   -1.4127 H       1  LIG1        0.1297
     34 H           1.2570    4.0270    6.7687 H       1  LIG1        0.0282
     35 H           0.0258    2.7707    6.6097 H       1  LIG1        0.0439
     36 H          -0.3726    4.4375    6.2018 H       1  LIG1        0.0547
     37 H           2.7713    2.5229    5.2023 H       1  LIG1        0.0515
     38 H           1.4344    1.3671    5.1628 H       1  LIG1        0.0419
     39 H           2.1246    1.9807    3.6483 H       1  LIG1        0.0427
     40 H           1.2110    6.8863    2.4095 H       1  LIG1        0.0775
     41 H           0.1462    7.7920    3.5438 H       1  LIG1        0.0838
     42 H           1.8028    7.3082    4.0563 H       1  LIG1        0.0815
     43 H          -0.6350    5.1568    2.2282 H       1  LIG1        0.0803
     44 H          -1.2609    4.4385    3.7556 H       1  LIG1        0.0824
     45 H          -1.5885    6.1669    3.3731 H       1  LIG1        0.0797
     46 H           2.2668    5.0527    4.5205 H       1  LIG1        0.1483
     47 H          -0.0425    3.0787    4.1601 H       1  LIG1        0.0734
     48 H           0.1338    5.9085    4.9675 H       1  LIG1        0.1764
     49 H           4.3015    4.3256    0.4260 H       1  LIG1        0.3517
@<TRIPOS>BOND
     1     1     2    3
     2     1    19    1
     3     2    21    1
     4     3     5   ar
     5     3     6   ar
     6     4     7   ar
     7     4     8   ar
     8     5     9   ar
     9     6    10   ar
    10     7    11   ar
    11     8    12   ar
    12     9    13   ar
    13    10    13   ar
    14    11    14   ar
    15    12    14   ar
    16    13    21    1
    17    14    21    1
    18    15    20    1
    19    16    20    1
    20    17    22    1
    21    18    22    1
    22    19    20    1
    23    19    22    1
    24    21    23    1
    25     3    24    1
    26     4    25    1
    27     5    26    1
    28     6    27    1
    29     7    28    1
    30     8    29    1
    31     9    30    1
    32    10    31    1
    33    11    32    1
    34    12    33    1
    35    15    34    1
    36    15    35    1
    37    15    36    1
    38    16    37    1
    39    16    38    1
    40    16    39    1
    41    17    40    1
    42    17    41    1
    43    17    42    1
    44    18    43    1
    45    18    44    1
    46    18    45    1
    47    19    46    1
    48    20    47    1
    49    22    48    1
    50    23    49    1
