@<TRIPOS>MOLECULE
AG-205/33133005
 45 48 0 0 0
SMALL
USER_CHARGES

@<TRIPOS>ATOM
      1 C           1.0268    7.1181   -0.8702 C.ar    1  LIG1       -0.1034
      2 C           1.7209    0.7610   -2.1773 C.ar    1  LIG1       -0.0887
      3 C           1.6537    7.4622   -2.0677 C.ar    1  LIG1       -0.1055
      4 C           0.3500    0.8414   -2.4214 C.ar    1  LIG1       -0.0924
      5 C           3.0986    4.0931    4.8109 C.ar    1  LIG1       -0.0660
      6 C           0.9201    4.9905    4.2760 C.ar    1  LIG1       -0.0638
      7 C           1.5155    6.0579   -0.1066 C.ar    1  LIG1       -0.0859
      8 C           2.3018    1.5594   -1.1920 C.ar    1  LIG1       -0.0448
      9 C           2.7692    6.7461   -2.5019 C.ar    1  LIG1       -0.0718
     10 C          -0.4401    1.7202   -1.6804 C.ar    1  LIG1       -0.0391
     11 C           2.8938    4.3976    6.1565 C.ar    1  LIG1       -0.0668
     12 C           0.7153    5.2950    5.6217 C.ar    1  LIG1       -0.0656
     13 C           2.1119    4.3896    3.8705 C.ar    1  LIG1       -0.0304
     14 C           2.6311    5.3419   -0.5407 C.ar    1  LIG1       -0.0365
     15 C           1.5118    2.4382   -0.4509 C.ar    1  LIG1        0.0299
     16 C           3.2579    5.6860   -1.7383 C.ar    1  LIG1       -0.0070
     17 C           0.1408    2.5186   -0.6950 C.ar    1  LIG1        0.1115
     18 C           1.7020    4.9986    6.5620 C.ar    1  LIG1       -0.0146
     19 C           2.3250    4.0718    2.4675 C.2     1  LIG1        0.0120
     20 C           3.4760    4.6738    1.7094 C.3     1  LIG1        0.0302
     21 C           3.1405    4.2091    0.2897 C.3     1  LIG1        0.0272
     22 C           4.9261    5.4156   -3.4116 C.3     1  LIG1        0.0238
     23 N           1.5868    3.2550    1.7846 N.2     1  LIG1       -0.3229
     24 N           2.0847    3.2212    0.5163 N.pl3   1  LIG1       -0.3188
     25 O           4.3480    4.9963   -2.1771 O.3     1  LIG1       -0.4164
     26 F          -0.6278    3.3599    0.0111 F       1  LIG1       -0.2541
     27 CL          1.4488    5.3729    8.2221 Cl      1  LIG1       -0.1430
     28 H           0.1577    7.6751   -0.5319 H       1  LIG1        0.1106
     29 H           2.3358    0.0768   -2.7545 H       1  LIG1        0.1273
     30 H           1.2722    8.2871   -2.6623 H       1  LIG1        0.1245
     31 H          -0.1018    0.2194   -3.1887 H       1  LIG1        0.1287
     32 H           4.0311    3.6254    4.5057 H       1  LIG1        0.1403
     33 H           0.1443    5.2257    3.5520 H       1  LIG1        0.1448
     34 H           1.0191    5.7967    0.8242 H       1  LIG1        0.1329
     35 H           3.3712    1.4881   -1.0094 H       1  LIG1        0.1387
     36 H           3.2532    7.0190   -3.4357 H       1  LIG1        0.1116
     37 H          -1.5073    1.7829   -1.8704 H       1  LIG1        0.1344
     38 H           3.6709    4.1606    6.8786 H       1  LIG1        0.1357
     39 H          -0.2183    5.7635    5.9228 H       1  LIG1        0.1354
     40 H           3.5267    5.7585    1.8383 H       1  LIG1        0.0998
     41 H           4.4030    4.2128    2.0673 H       1  LIG1        0.0976
     42 H           4.0139    3.7657   -0.1998 H       1  LIG1        0.1405
     43 H           5.7862    4.7833   -3.6453 H       1  LIG1        0.1221
     44 H           5.2389    6.4598   -3.3325 H       1  LIG1        0.0889
     45 H           4.1802    5.3196   -4.2041 H       1  LIG1        0.0894
@<TRIPOS>BOND
     1     1     3   ar
     2     1     7   ar
     3     2     4   ar
     4     2     8   ar
     5     3     9   ar
     6     4    10   ar
     7     5    11   ar
     8     5    13   ar
     9     6    12   ar
    10     6    13   ar
    11     7    14   ar
    12     8    15   ar
    13     9    16   ar
    14    10    17   ar
    15    11    18   ar
    16    12    18   ar
    17    13    19    1
    18    14    16   ar
    19    14    21    1
    20    15    17   ar
    21    15    24    1
    22    16    25    1
    23    17    26    1
    24    18    27    1
    25    19    20    1
    26    19    23    2
    27    20    21    1
    28    21    24    1
    29    22    25    1
    30    23    24    1
    31     1    28    1
    32     2    29    1
    33     3    30    1
    34     4    31    1
    35     5    32    1
    36     6    33    1
    37     7    34    1
    38     8    35    1
    39     9    36    1
    40    10    37    1
    41    11    38    1
    42    12    39    1
    43    20    40    1
    44    20    41    1
    45    21    42    1
    46    22    43    1
    47    22    44    1
    48    22    45    1
