@<TRIPOS>MOLECULE
AN-329/40887478
 42 44 0 0 0
SMALL
USER_CHARGES

@<TRIPOS>ATOM
      1 C           0.3730    0.6483   -1.7533 C.ar    1  LIG1       -0.1059
      2 C           2.1671    7.5477   -2.6247 C.ar    1  LIG1       -0.1067
      3 C           1.6991    0.9898   -2.0182 C.ar    1  LIG1       -0.1034
      4 C          -0.3962    1.4446   -0.9049 C.ar    1  LIG1       -0.1033
      5 C           1.0470    6.7172   -2.5907 C.ar    1  LIG1       -0.1020
      6 C           3.2597    7.2793   -1.8000 C.ar    1  LIG1       -0.1049
      7 C           0.9445    4.8985    5.5762 C.ar    1  LIG1       -0.0934
      8 C           2.1132    4.5968    6.2756 C.ar    1  LIG1       -0.1002
      9 C           2.2561    2.1278   -1.4347 C.ar    1  LIG1       -0.0957
     10 C           0.1607    2.5825   -0.3213 C.ar    1  LIG1       -0.0948
     11 C           1.0193    5.6183   -1.7320 C.ar    1  LIG1       -0.0922
     12 C           3.2320    6.1804   -0.9413 C.ar    1  LIG1       -0.0958
     13 C           0.8086    4.5080    4.2440 C.ar    1  LIG1       -0.0483
     14 C           3.1458    3.9049    5.6427 C.ar    1  LIG1       -0.0613
     15 C           1.4869    2.9242   -0.5862 C.ar    1  LIG1       -0.0678
     16 C           2.1119    5.3500   -0.9073 C.ar    1  LIG1       -0.0657
     17 C           1.8413    3.8161    3.6112 C.ar    1  LIG1        0.0680
     18 C           3.0099    3.5146    4.3105 C.ar    1  LIG1        0.0321
     19 C           1.4966    4.5118    1.4131 C.2     1  LIG1        0.1918
     20 C           5.0177    3.6225    3.0404 C.3     1  LIG1        0.0262
     21 C           2.0820    4.1408    0.0383 C.3     1  LIG1        0.1046
     22 O           0.9755    5.5797    1.7099 O.2     1  LIG1       -0.4381
     23 O           1.6932    3.4320    2.2766 O.3     1  LIG1       -0.2940
     24 O           4.0260    2.8405    3.7032 O.3     1  LIG1       -0.4074
     25 H          -0.0610   -0.2371   -2.2088 H       1  LIG1        0.1164
     26 H           2.1890    8.4025   -3.2944 H       1  LIG1        0.1163
     27 H           2.2979    0.3706   -2.6796 H       1  LIG1        0.1167
     28 H          -1.4291    1.1795   -0.6993 H       1  LIG1        0.1179
     29 H           0.1966    6.9253   -3.2334 H       1  LIG1        0.1159
     30 H           4.1324    7.9250   -1.8270 H       1  LIG1        0.1163
     31 H           0.1402    5.4371    6.0692 H       1  LIG1        0.1209
     32 H           2.2190    4.9009    7.3126 H       1  LIG1        0.1301
     33 H           3.2903    2.3861   -1.6466 H       1  LIG1        0.1179
     34 H          -0.4461    3.1969    0.3386 H       1  LIG1        0.1231
     35 H           0.1422    4.9768   -1.7120 H       1  LIG1        0.1229
     36 H           4.0878    5.9792   -0.3023 H       1  LIG1        0.1209
     37 H          -0.1044    4.7458    3.7048 H       1  LIG1        0.1435
     38 H           4.0541    3.6748    6.1928 H       1  LIG1        0.1187
     39 H           5.7686    2.9624    2.5994 H       1  LIG1        0.1228
     40 H           5.4884    4.2996    3.7577 H       1  LIG1        0.0909
     41 H           4.5402    4.2065    2.2502 H       1  LIG1        0.0900
     42 H           3.1421    3.9310    0.2955 H       1  LIG1        0.1569
@<TRIPOS>BOND
     1     1     3   ar
     2     1     4   ar
     3     2     5   ar
     4     2     6   ar
     5     3     9   ar
     6     4    10   ar
     7     5    11   ar
     8     6    12   ar
     9     7     8   ar
    10     7    13   ar
    11     8    14   ar
    12     9    15   ar
    13    10    15   ar
    14    11    16   ar
    15    12    16   ar
    16    13    17   ar
    17    14    18   ar
    18    15    21    1
    19    16    21    1
    20    17    18   ar
    21    17    23    1
    22    18    24    1
    23    19    21    1
    24    19    22    2
    25    19    23    1
    26    20    24    1
    27     1    25    1
    28     2    26    1
    29     3    27    1
    30     4    28    1
    31     5    29    1
    32     6    30    1
    33     7    31    1
    34     8    32    1
    35     9    33    1
    36    10    34    1
    37    11    35    1
    38    12    36    1
    39    13    37    1
    40    14    38    1
    41    20    39    1
    42    20    40    1
    43    20    41    1
    44    21    42    1
