@<TRIPOS>MOLECULE
AE-473/30364036
 47 50 0 0 0
SMALL
USER_CHARGES

@<TRIPOS>ATOM
      1 C           0.8783    4.7210    5.1140 C.ar    1  LIG1       -0.1038
      2 C           2.0364    4.4719    5.8479 C.ar    1  LIG1       -0.1012
      3 C           0.8789    4.6183    3.7181 C.ar    1  LIG1       -0.0920
      4 C          -0.0946    2.4295   -0.3011 C.ar    1  LIG1       -0.0850
      5 C           2.2332    2.2186   -0.9128 C.ar    1  LIG1       -0.0971
      6 C           0.9522    6.4353   -0.5908 C.ar    1  LIG1       -0.0970
      7 C           3.0645    5.4012   -1.1439 C.ar    1  LIG1       -0.0850
      8 C           3.2290    4.1133    5.2129 C.ar    1  LIG1       -0.0789
      9 C          -0.3845    1.2581   -1.0005 C.ar    1  LIG1       -0.0601
     10 C           1.9433    1.0470   -1.6121 C.ar    1  LIG1       -0.0746
     11 C           1.2443    7.4928   -1.4522 C.ar    1  LIG1       -0.0746
     12 C           3.3566    6.4586   -2.0054 C.ar    1  LIG1       -0.0601
     13 C           3.7555    3.7146    1.6520 C.ar    1  LIG1       -0.0711
     14 C           2.0694    4.2583    3.0560 C.ar    1  LIG1       -0.0682
     15 C           1.2143    2.9098   -0.2573 C.ar    1  LIG1       -0.0854
     16 C           1.8623    5.3896   -0.4366 C.ar    1  LIG1       -0.0854
     17 C           2.4257    4.0650    1.6919 C.ar    1  LIG1       -0.0710
     18 C           3.2146    4.0145    3.8171 C.ar    1  LIG1       -0.0688
     19 C           0.6344    0.5668   -1.6559 C.ar    1  LIG1       -0.0190
     20 C           2.4465    7.5044   -2.1595 C.ar    1  LIG1       -0.0190
     21 C           1.4403   -1.2335   -2.9845 C.3     1  LIG1        0.0218
     22 C           3.9775    8.4844   -3.6930 C.3     1  LIG1        0.0218
     23 C           1.5372    4.2128    0.5212 C.3     1  LIG1       -0.0005
     24 N           4.2227    3.6866    2.9387 N.ar    1  LIG1       -0.3753
     25 O           0.3514   -0.5770   -2.3372 O.3     1  LIG1       -0.4211
     26 O           2.7308    8.5357   -3.0010 O.3     1  LIG1       -0.4211
     27 H          -0.0370    4.9978    5.6303 H       1  LIG1        0.1101
     28 H           2.0135    4.5575    6.9313 H       1  LIG1        0.1201
     29 H          -0.0323    4.8148    3.1604 H       1  LIG1        0.1257
     30 H          -0.8945    2.9618    0.2066 H       1  LIG1        0.1329
     31 H           3.2560    2.5854   -0.8841 H       1  LIG1        0.1219
     32 H           0.0134    6.4346   -0.0436 H       1  LIG1        0.1218
     33 H           3.7796    4.5905   -1.0299 H       1  LIG1        0.1329
     34 H           4.1302    3.9207    5.7850 H       1  LIG1        0.1182
     35 H          -1.4062    0.8888   -1.0307 H       1  LIG1        0.1268
     36 H           2.7413    0.5130   -2.1202 H       1  LIG1        0.1081
     37 H           0.5312    8.3046   -1.5683 H       1  LIG1        0.1080
     38 H           4.2945    6.4616   -2.5537 H       1  LIG1        0.1268
     39 H           4.4115    3.4811    0.8247 H       1  LIG1        0.1853
     40 H           1.0768   -2.1313   -3.4903 H       1  LIG1        0.0876
     41 H           2.1979   -1.5012   -2.2436 H       1  LIG1        0.0878
     42 H           1.8775   -0.5550   -3.7209 H       1  LIG1        0.1206
     43 H           4.0782    9.3667   -4.3299 H       1  LIG1        0.0876
     44 H           4.0212    7.5767   -4.3001 H       1  LIG1        0.1206
     45 H           4.7894    8.4709   -2.9621 H       1  LIG1        0.0878
     46 H           0.5335    4.5035    0.9148 H       1  LIG1        0.1163
     47 H           5.1703    3.4583    3.2059 H       1  LIG1        0.3250
@<TRIPOS>BOND
     1     1     2   ar
     2     1     3   ar
     3     2     8   ar
     4     3    14   ar
     5     4     9   ar
     6     4    15   ar
     7     5    10   ar
     8     5    15   ar
     9     6    11   ar
    10     6    16   ar
    11     7    12   ar
    12     7    16   ar
    13     8    18   ar
    14     9    19   ar
    15    10    19   ar
    16    11    20   ar
    17    12    20   ar
    18    13    17   ar
    19    13    24   ar
    20    14    17   ar
    21    14    18   ar
    22    15    23    1
    23    16    23    1
    24    17    23    1
    25    18    24   ar
    26    19    25    1
    27    20    26    1
    28    21    25    1
    29    22    26    1
    30     1    27    1
    31     2    28    1
    32     3    29    1
    33     4    30    1
    34     5    31    1
    35     6    32    1
    36     7    33    1
    37     8    34    1
    38     9    35    1
    39    10    36    1
    40    11    37    1
    41    12    38    1
    42    13    39    1
    43    21    40    1
    44    21    41    1
    45    21    42    1
    46    22    43    1
    47    22    44    1
    48    22    45    1
    49    23    46    1
    50    24    47    1
