@<TRIPOS>MOLECULE
AP-518/42504031
 45 47 0 0 0
SMALL
USER_CHARGES

@<TRIPOS>ATOM
      1 C           0.1989    0.6707   -1.7213 C.ar    1  LIG1       -0.1084
      2 C           1.4861    0.9531   -2.1782 C.ar    1  LIG1       -0.1059
      3 C          -0.3713    1.4513   -0.7156 C.ar    1  LIG1       -0.1049
      4 C           3.1939    4.6821    4.7894 C.ar    1  LIG1       -0.0533
      5 C           1.0068    4.0223    4.0029 C.ar    1  LIG1       -0.0620
      6 C           2.2033    2.0162   -1.6295 C.ar    1  LIG1       -0.0945
      7 C           0.3459    2.5144   -0.1669 C.ar    1  LIG1       -0.0927
      8 C           2.0015    7.6175   -2.2433 C.ar    1  LIG1       -0.1037
      9 C           3.2682    7.0682   -2.0456 C.ar    1  LIG1       -0.1004
     10 C           2.6709    4.8949    6.0649 C.ar    1  LIG1       -0.0365
     11 C           0.4839    4.2351    5.2784 C.ar    1  LIG1       -0.0419
     12 C           1.0163    5.7907   -1.0068 C.ar    1  LIG1       -0.0935
     13 C           2.3618    4.2459    3.7583 C.ar    1  LIG1        0.0273
     14 C           1.6333    2.7968   -0.6239 C.ar    1  LIG1       -0.0727
     15 C           0.8754    6.9787   -1.7239 C.ar    1  LIG1       -0.1164
     16 C           3.4091    5.8802   -1.3285 C.ar    1  LIG1       -0.1035
     17 C           2.2831    5.2414   -0.8091 C.ar    1  LIG1       -0.0718
     18 C           1.3160    4.6714    6.3094 C.ar    1  LIG1        0.0684
     19 C           2.9073    4.0240    2.4286 C.2     1  LIG1        0.1062
     20 C          -0.4788    7.5660   -1.9359 C.3     1  LIG1       -0.0440
     21 C           4.7755    5.3105   -1.1307 C.3     1  LIG1       -0.0404
     22 C           2.4113    3.9505   -0.0277 C.3     1  LIG1        0.0163
     23 N           2.0265    4.1611    1.3494 N.am    1  LIG1       -0.3275
     24 O           4.1008    3.7067    2.2807 O.2     1  LIG1       -0.4759
     25 F           0.8138    4.8756    7.5342 F       1  LIG1       -0.2618
     26 H          -0.3601   -0.1563   -2.1496 H       1  LIG1        0.1140
     27 H           1.9297    0.3461   -2.9620 H       1  LIG1        0.1138
     28 H          -1.3738    1.2324   -0.3604 H       1  LIG1        0.1160
     29 H           4.2511    4.8593    4.6100 H       1  LIG1        0.1576
     30 H           0.3494    3.6817    3.2068 H       1  LIG1        0.1386
     31 H           3.2058    2.2288   -1.9917 H       1  LIG1        0.1142
     32 H          -0.1061    3.1171    0.6163 H       1  LIG1        0.1209
     33 H           1.9012    8.5434   -2.8037 H       1  LIG1        0.1181
     34 H           4.1394    7.5733   -2.4550 H       1  LIG1        0.1208
     35 H           3.3186    5.2343    6.8678 H       1  LIG1        0.1377
     36 H          -0.5713    4.0615    5.4689 H       1  LIG1        0.1352
     37 H           0.1379    5.2936   -0.6016 H       1  LIG1        0.1139
     38 H          -0.9226    7.1786   -2.8613 H       1  LIG1        0.0567
     39 H          -1.1514    7.3281   -1.1015 H       1  LIG1        0.0525
     40 H          -0.4324    8.6608   -2.0040 H       1  LIG1        0.0541
     41 H           5.2209    5.7030   -0.2092 H       1  LIG1        0.0590
     42 H           4.7428    4.2160   -1.0646 H       1  LIG1        0.0547
     43 H           5.4345    5.5601   -1.9715 H       1  LIG1        0.0544
     44 H           3.4747    3.6824    0.0193 H       1  LIG1        0.1603
     45 H           1.0478    4.3596    1.5300 H       1  LIG1        0.3009
@<TRIPOS>BOND
     1     1     2   ar
     2     1     3   ar
     3     2     6   ar
     4     3     7   ar
     5     4    10   ar
     6     4    13   ar
     7     5    11   ar
     8     5    13   ar
     9     6    14   ar
    10     7    14   ar
    11     8     9   ar
    12     8    15   ar
    13     9    16   ar
    14    10    18   ar
    15    11    18   ar
    16    12    15   ar
    17    12    17   ar
    18    13    19    1
    19    14    22    1
    20    15    20    1
    21    16    17   ar
    22    16    21    1
    23    17    22    1
    24    18    25    1
    25    19    23   am
    26    19    24    2
    27    22    23    1
    28     1    26    1
    29     2    27    1
    30     3    28    1
    31     4    29    1
    32     5    30    1
    33     6    31    1
    34     7    32    1
    35     8    33    1
    36     9    34    1
    37    10    35    1
    38    11    36    1
    39    12    37    1
    40    20    38    1
    41    20    39    1
    42    20    40    1
    43    21    41    1
    44    21    42    1
    45    21    43    1
    46    22    44    1
    47    23    45    1
