@<TRIPOS>MOLECULE
AM-814/41091791
 43 45 0 0 0
SMALL
USER_CHARGES

@<TRIPOS>ATOM
      1 C           2.1309    7.5007   -2.5035 C.ar    1  LIG1       -0.1069
      2 C           0.3484    0.6777   -2.0060 C.ar    1  LIG1       -0.1069
      3 C           1.0068    7.2614   -1.7131 C.ar    1  LIG1       -0.1045
      4 C           3.2191    6.6296   -2.4503 C.ar    1  LIG1       -0.1045
      5 C           1.5088    1.2915   -2.4776 C.ar    1  LIG1       -0.1012
      6 C          -0.2728    1.1541   -0.8515 C.ar    1  LIG1       -0.1012
      7 C           0.9709    6.1512   -0.8695 C.ar    1  LIG1       -0.0912
      8 C           3.1832    5.5194   -1.6066 C.ar    1  LIG1       -0.0912
      9 C           2.0481    2.3816   -1.7946 C.ar    1  LIG1       -0.0778
     10 C           0.2666    2.2441   -0.1684 C.ar    1  LIG1       -0.0778
     11 C           2.0591    5.2801   -0.8162 C.ar    1  LIG1       -0.0398
     12 C           1.4270    2.8579   -0.6400 C.ar    1  LIG1       -0.0224
     13 C           1.9132    5.0115    2.3023 C.3     1  LIG1        0.0152
     14 C           3.4012    3.0516    1.7850 C.3     1  LIG1        0.0153
     15 C           2.0204    4.0578    0.1126 C.3     1  LIG1        0.1096
     16 C           2.9342    4.0194    2.8872 C.3     1  LIG1       -0.0333
     17 C           4.1273    4.8087    3.4497 C.3     1  LIG1       -0.0613
     18 C           1.8345    4.0921    5.1281 C.3     1  LIG1       -0.0712
     19 C           2.3001    3.2053    4.0266 C.3     1  LIG1       -0.0677
     20 O           1.1839    4.3876    1.2462 O.3     1  LIG1       -0.4109
     21 O           3.3644    3.7078    0.5183 O.3     1  LIG1       -0.4109
     22 H           2.1582    8.3644   -3.1614 H       1  LIG1        0.1171
     23 H          -0.0722   -0.1702   -2.5387 H       1  LIG1        0.1165
     24 H           0.1589    7.9389   -1.7552 H       1  LIG1        0.1165
     25 H           4.0940    6.8149   -3.0664 H       1  LIG1        0.1164
     26 H           1.9920    0.9215   -3.3772 H       1  LIG1        0.1165
     27 H          -1.1767    0.6771   -0.4846 H       1  LIG1        0.1164
     28 H           0.0909    5.9729   -0.2570 H       1  LIG1        0.1238
     29 H           4.0357    4.8462   -1.5717 H       1  LIG1        0.1237
     30 H           2.9527    2.8534   -2.1692 H       1  LIG1        0.1297
     31 H          -0.2241    2.6084    0.7304 H       1  LIG1        0.1297
     32 H           1.1967    5.3222    3.0624 H       1  LIG1        0.1231
     33 H           2.4013    5.9090    1.9204 H       1  LIG1        0.0938
     34 H           4.4124    2.6895    1.9730 H       1  LIG1        0.1243
     35 H           2.7447    2.1836    1.7287 H       1  LIG1        0.0935
     36 H           4.8556    4.1178    3.8658 H       1  LIG1        0.0352
     37 H           3.7813    5.4823    4.2291 H       1  LIG1        0.0379
     38 H           4.5894    5.3847    2.6526 H       1  LIG1        0.0423
     39 H           2.6893    4.6532    5.5235 H       1  LIG1        0.0341
     40 H           1.4023    3.5092    5.9484 H       1  LIG1        0.0312
     41 H           1.0926    4.8126    4.7679 H       1  LIG1        0.0300
     42 H           1.4631    2.6390    3.6207 H       1  LIG1        0.0462
     43 H           3.0412    2.5001    4.3998 H       1  LIG1        0.0422
@<TRIPOS>BOND
     1     1     3   ar
     2     1     4   ar
     3     2     5   ar
     4     2     6   ar
     5     3     7   ar
     6     4     8   ar
     7     5     9   ar
     8     6    10   ar
     9     7    11   ar
    10     8    11   ar
    11     9    12   ar
    12    10    12   ar
    13    11    15    1
    14    12    15    1
    15    13    16    1
    16    13    20    1
    17    14    16    1
    18    14    21    1
    19    15    20    1
    20    15    21    1
    21    16    17    1
    22    16    19    1
    23    18    19    1
    24     1    22    1
    25     2    23    1
    26     3    24    1
    27     4    25    1
    28     5    26    1
    29     6    27    1
    30     7    28    1
    31     8    29    1
    32     9    30    1
    33    10    31    1
    34    13    32    1
    35    13    33    1
    36    14    34    1
    37    14    35    1
    38    17    36    1
    39    17    37    1
    40    17    38    1
    41    18    39    1
    42    18    40    1
    43    18    41    1
    44    19    42    1
    45    19    43    1
