@<TRIPOS>MOLECULE
AG-205/32373020
 43 45 0 0 0
SMALL
USER_CHARGES

@<TRIPOS>ATOM
      1 C           0.1493    5.0341    8.8740 C.ar    1  LIG1       -0.1069
      2 C           1.9376    7.8072   -2.3291 C.ar    1  LIG1       -0.1037
      3 C           0.0292    0.5713   -1.7750 C.ar    1  LIG1       -0.1046
      4 C          -0.5883    4.6629    7.7499 C.ar    1  LIG1       -0.1041
      5 C           1.5307    5.2018    8.7776 C.ar    1  LIG1       -0.1048
      6 C           0.8513    7.1895   -1.7094 C.ar    1  LIG1       -0.1032
      7 C           3.2104    7.2456   -2.2278 C.ar    1  LIG1       -0.1127
      8 C           1.3322    0.7860   -2.2240 C.ar    1  LIG1       -0.1119
      9 C          -0.5062    1.3820   -0.7741 C.ar    1  LIG1       -0.1048
     10 C           0.0555    4.4591    6.5294 C.ar    1  LIG1       -0.0968
     11 C           2.1745    4.9980    7.5571 C.ar    1  LIG1       -0.0979
     12 C           1.0379    6.0103   -0.9881 C.ar    1  LIG1       -0.0766
     13 C           3.3969    6.0663   -1.5065 C.ar    1  LIG1       -0.0919
     14 C           2.0999    1.8113   -1.6719 C.ar    1  LIG1       -0.0896
     15 C           0.2616    2.4074   -0.2220 C.ar    1  LIG1       -0.0776
     16 C           1.4369    4.6268    6.4330 C.ar    1  LIG1       -0.0927
     17 C           2.3107    5.4487   -0.8867 C.ar    1  LIG1        0.0891
     18 C           1.5647    2.6220   -0.6709 C.ar    1  LIG1        0.0904
     19 C           2.1174    4.4116    5.1442 C.2     1  LIG1       -0.0947
     20 C           1.5154    4.4314    3.9444 C.2     1  LIG1       -0.1069
     21 C           2.2291    4.2038    2.7074 C.2     1  LIG1       -0.0911
     22 C           1.6416    4.2204    1.5028 C.2     1  LIG1        0.0805
     23 O           4.0257    3.5870    0.1410 O.2     1  LIG1       -0.3702
     24 P           2.5497    3.9377    0.0374 P.3     1  LIG1        0.0602
     25 H          -0.3521    5.1940    9.8240 H       1  LIG1        0.1173
     26 H           1.7921    8.7254   -2.8906 H       1  LIG1        0.1254
     27 H          -0.5685   -0.2271   -2.2050 H       1  LIG1        0.1247
     28 H          -1.6642    4.5333    7.8244 H       1  LIG1        0.1174
     29 H           2.1049    5.4920    9.6525 H       1  LIG1        0.1172
     30 H          -0.1396    7.6269   -1.7880 H       1  LIG1        0.1205
     31 H           4.0560    7.7264   -2.7107 H       1  LIG1        0.1136
     32 H           1.7491    0.1546   -3.0031 H       1  LIG1        0.1129
     33 H          -1.5210    1.2149   -0.4248 H       1  LIG1        0.1192
     34 H          -0.5331    4.1698    5.6619 H       1  LIG1        0.1226
     35 H           3.2519    5.1327    7.4980 H       1  LIG1        0.1209
     36 H           0.1890    5.5331   -0.5067 H       1  LIG1        0.1422
     37 H           4.3899    5.6325   -1.4306 H       1  LIG1        0.1080
     38 H           3.1144    1.9744   -2.0243 H       1  LIG1        0.1096
     39 H          -0.1597    3.0363    0.5570 H       1  LIG1        0.1399
     40 H           3.1840    4.2043    5.2079 H       1  LIG1        0.1276
     41 H           0.4467    4.6121    3.8628 H       1  LIG1        0.1119
     42 H           3.2968    4.0097    2.7697 H       1  LIG1        0.1204
     43 H           0.5753    4.4134    1.4266 H       1  LIG1        0.0997
@<TRIPOS>BOND
     1     1     4   ar
     2     1     5   ar
     3     2     6   ar
     4     2     7   ar
     5     3     8   ar
     6     3     9   ar
     7     4    10   ar
     8     5    11   ar
     9     6    12   ar
    10     7    13   ar
    11     8    14   ar
    12     9    15   ar
    13    10    16   ar
    14    11    16   ar
    15    12    17   ar
    16    13    17   ar
    17    14    18   ar
    18    15    18   ar
    19    16    19    1
    20    17    24    1
    21    18    24    1
    22    19    20    2
    23    20    21    1
    24    21    22    2
    25    22    24    1
    26    23    24    2
    27     1    25    1
    28     2    26    1
    29     3    27    1
    30     4    28    1
    31     5    29    1
    32     6    30    1
    33     7    31    1
    34     8    32    1
    35     9    33    1
    36    10    34    1
    37    11    35    1
    38    12    36    1
    39    13    37    1
    40    14    38    1
    41    15    39    1
    42    19    40    1
    43    20    41    1
    44    21    42    1
    45    22    43    1
