@<TRIPOS>MOLECULE
AO-080/43378345
 42 44 0 0 0
SMALL
USER_CHARGES

@<TRIPOS>ATOM
      1 C           0.3794    0.5957   -1.9165 C.ar    1  LIG1       -0.1080
      2 C           2.2083    7.5747   -2.3388 C.ar    1  LIG1       -0.1059
      3 C           1.7117    0.9485   -2.1309 C.ar    1  LIG1       -0.1065
      4 C          -0.4112    1.3503   -1.0495 C.ar    1  LIG1       -0.1023
      5 C           3.1794    6.5848   -2.4894 C.ar    1  LIG1       -0.1044
      6 C           1.1839    7.4106   -1.4063 C.ar    1  LIG1       -0.1043
      7 C           2.2536    2.0558   -1.4784 C.ar    1  LIG1       -0.0974
      8 C           0.1309    2.4576   -0.3970 C.ar    1  LIG1       -0.0919
      9 C           3.1261    5.4307   -1.7077 C.ar    1  LIG1       -0.0990
     10 C           1.1307    6.2566   -0.6246 C.ar    1  LIG1       -0.0983
     11 C           0.7989    4.6544    4.3656 C.ar    1  LIG1       -0.0426
     12 C           0.5915    4.8236    5.7300 C.ar    1  LIG1       -0.0145
     13 C           3.0834    4.1779    4.8249 C.ar    1  LIG1       -0.0073
     14 C           1.4632    2.8104   -0.6114 C.ar    1  LIG1       -0.0684
     15 C           2.1017    5.2666   -0.7752 C.ar    1  LIG1       -0.0747
     16 C           2.0657    4.3253    3.8962 C.ar    1  LIG1       -0.0199
     17 C           1.6752    4.6536    6.5766 C.ar    1  LIG1        0.0538
     18 C           1.3950    4.2694    1.4670 C.2     1  LIG1        0.1098
     19 C           2.6404    4.6301    8.7500 C.3     1  LIG1        0.0339
     20 C           2.0421    3.9943    0.0868 C.3     1  LIG1        0.0876
     21 N           2.9202    4.3342    6.1577 N.ar    1  LIG1       -0.3666
     22 N           2.3076    4.1460    2.5135 N.am    1  LIG1       -0.3079
     23 O           0.2038    4.5522    1.5611 O.2     1  LIG1       -0.4682
     24 O           1.4961    4.8158    7.9255 O.3     1  LIG1       -0.3830
     25 H          -0.0429   -0.2657   -2.4256 H       1  LIG1        0.1146
     26 H           2.2508    8.4737   -2.9466 H       1  LIG1        0.1172
     27 H           2.3269    0.3617   -2.8067 H       1  LIG1        0.1143
     28 H          -1.4488    1.0765   -0.8831 H       1  LIG1        0.1147
     29 H           3.9777    6.7127   -3.2146 H       1  LIG1        0.1175
     30 H           0.4284    8.1816   -1.2879 H       1  LIG1        0.1183
     31 H           3.2928    2.3231   -1.6514 H       1  LIG1        0.1181
     32 H          -0.4925    3.0395    0.2767 H       1  LIG1        0.1240
     33 H           3.8869    4.6646   -1.8321 H       1  LIG1        0.1178
     34 H           0.3288    6.1373    0.0992 H       1  LIG1        0.1212
     35 H          -0.0327    4.7808    3.6776 H       1  LIG1        0.1683
     36 H          -0.3906    5.0798    6.1122 H       1  LIG1        0.1443
     37 H           4.0935    3.9217    4.5195 H       1  LIG1        0.2132
     38 H           2.3660    4.7866    9.7961 H       1  LIG1        0.1223
     39 H           3.4203    5.3374    8.4571 H       1  LIG1        0.0947
     40 H           3.0096    3.6099    8.6213 H       1  LIG1        0.0946
     41 H           3.1030    3.7726    0.3326 H       1  LIG1        0.1455
     42 H           3.2666    3.9069    2.2703 H       1  LIG1        0.3255
@<TRIPOS>BOND
     1     1     3   ar
     2     1     4   ar
     3     2     5   ar
     4     2     6   ar
     5     3     7   ar
     6     4     8   ar
     7     5     9   ar
     8     6    10   ar
     9     7    14   ar
    10     8    14   ar
    11     9    15   ar
    12    10    15   ar
    13    11    12   ar
    14    11    16   ar
    15    12    17   ar
    16    13    16   ar
    17    13    21   ar
    18    14    20    1
    19    15    20    1
    20    16    22    1
    21    17    21   ar
    22    17    24    1
    23    18    20    1
    24    18    22   am
    25    18    23    2
    26    19    24    1
    27     1    25    1
    28     2    26    1
    29     3    27    1
    30     4    28    1
    31     5    29    1
    32     6    30    1
    33     7    31    1
    34     8    32    1
    35     9    33    1
    36    10    34    1
    37    11    35    1
    38    12    36    1
    39    13    37    1
    40    19    38    1
    41    19    39    1
    42    19    40    1
    43    20    41    1
    44    22    42    1
