@<TRIPOS>MOLECULE
AQ-917/42754757
 36 38 0 0 0
SMALL
USER_CHARGES

@<TRIPOS>ATOM
      1 C           1.9767    7.5664   -2.3071 C.ar    1  LIG1       -0.1093
      2 C           0.2023    0.7268   -1.8033 C.ar    1  LIG1       -0.1090
      3 C           0.8563    6.9474   -1.7532 C.ar    1  LIG1       -0.1078
      4 C           3.2444    7.0184   -2.1115 C.ar    1  LIG1       -0.1051
      5 C           1.5309    0.9468   -2.1666 C.ar    1  LIG1       -0.1068
      6 C          -0.4057    1.5462   -0.8521 C.ar    1  LIG1       -0.1039
      7 C           1.0035    5.7803   -1.0036 C.ar    1  LIG1       -0.0968
      8 C           3.3917    5.8513   -1.3620 C.ar    1  LIG1       -0.0929
      9 C           2.2516    1.9863   -1.5786 C.ar    1  LIG1       -0.0933
     10 C           0.3151    2.5857   -0.2641 C.ar    1  LIG1       -0.0890
     11 C           2.2712    5.2322   -0.8079 C.ar    1  LIG1       -0.0706
     12 C           1.6438    2.8057   -0.6274 C.ar    1  LIG1       -0.0659
     13 C           2.1073    4.1577    1.5162 C.3     1  LIG1       -0.0222
     14 C           4.4043    3.8041    1.3379 C.3     1  LIG1        0.0053
     15 C           3.4152    4.6747    2.0806 C.3     1  LIG1       -0.0439
     16 C           2.4341    3.9462    0.0183 C.3     1  LIG1        0.0333
     17 C           3.5248    4.5716    3.5902 C.3     1  LIG1       -0.0658
     18 O           3.8407    3.5672    0.0406 O.3     1  LIG1       -0.4422
     19 H           1.8618    8.4745   -2.8919 H       1  LIG1        0.1135
     20 H          -0.3593   -0.0818   -2.2622 H       1  LIG1        0.1138
     21 H          -0.1310    7.3734   -1.9062 H       1  LIG1        0.1141
     22 H           4.1169    7.4995   -2.5436 H       1  LIG1        0.1146
     23 H           2.0040    0.3096   -2.9079 H       1  LIG1        0.1147
     24 H          -1.4404    1.3758   -0.5698 H       1  LIG1        0.1151
     25 H           0.1248    5.3050   -0.5755 H       1  LIG1        0.1181
     26 H           4.3832    5.4316   -1.2146 H       1  LIG1        0.1240
     27 H           3.2864    2.1502   -1.8677 H       1  LIG1        0.1190
     28 H          -0.1667    3.2188    0.4761 H       1  LIG1        0.1256
     29 H           1.8465    3.2033    1.9945 H       1  LIG1        0.0666
     30 H           1.2717    4.8475    1.6797 H       1  LIG1        0.0673
     31 H           5.3820    4.2821    1.2272 H       1  LIG1        0.0928
     32 H           4.5476    2.8309    1.8206 H       1  LIG1        0.1162
     33 H           3.5512    5.7219    1.7806 H       1  LIG1        0.0613
     34 H           3.3921    3.5357    3.9103 H       1  LIG1        0.0352
     35 H           2.7583    5.1851    4.0689 H       1  LIG1        0.0367
     36 H           4.5060    4.9166    3.9238 H       1  LIG1        0.0369
@<TRIPOS>BOND
     1     1     3   ar
     2     1     4   ar
     3     2     5   ar
     4     2     6   ar
     5     3     7   ar
     6     4     8   ar
     7     5     9   ar
     8     6    10   ar
     9     7    11   ar
    10     8    11   ar
    11     9    12   ar
    12    10    12   ar
    13    11    16    1
    14    12    16    1
    15    13    15    1
    16    13    16    1
    17    14    15    1
    18    14    18    1
    19    15    17    1
    20    16    18    1
    21     1    19    1
    22     2    20    1
    23     3    21    1
    24     4    22    1
    25     5    23    1
    26     6    24    1
    27     7    25    1
    28     8    26    1
    29     9    27    1
    30    10    28    1
    31    13    29    1
    32    13    30    1
    33    14    31    1
    34    14    32    1
    35    15    33    1
    36    17    34    1
    37    17    35    1
    38    17    36    1
