@<TRIPOS>MOLECULE
AR-360/42760699
 42 44 0 0 0
SMALL
USER_CHARGES

@<TRIPOS>ATOM
      1 C           1.2169    4.5829    6.5447 C.ar    1  LIG1       -0.1086
      2 C           1.4593    7.0321   -2.3940 C.ar    1  LIG1       -0.1076
      3 C           0.4851    4.6950    5.3625 C.ar    1  LIG1       -0.1063
      4 C           2.6029    4.4343    6.4956 C.ar    1  LIG1       -0.1054
      5 C           0.7085    6.4284   -1.3854 C.ar    1  LIG1       -0.1039
      6 C           2.8056    6.7036   -2.5531 C.ar    1  LIG1       -0.1034
      7 C           1.1393    4.6582    4.1312 C.ar    1  LIG1       -0.0986
      8 C           3.2573    4.3975    5.2643 C.ar    1  LIG1       -0.0973
      9 C           1.3040    5.4962   -0.5357 C.ar    1  LIG1       -0.0905
     10 C           3.4011    5.7714   -1.7033 C.ar    1  LIG1       -0.0879
     11 C           1.0341    2.0227   -1.6658 C.ar    1  LIG1       -0.0517
     12 C           2.5255    4.5094    4.0820 C.ar    1  LIG1       -0.0951
     13 C           2.6503    5.1677   -0.6946 C.ar    1  LIG1       -0.0664
     14 C          -0.1795    1.5251   -1.1604 C.ar    1  LIG1       -0.0402
     15 C           1.8076    2.1915   -0.5480 C.ar    1  LIG1        0.0634
     16 C           3.2168    4.4704    2.7823 C.2     1  LIG1       -0.0948
     17 C           2.6254    4.1866    1.6091 C.2     1  LIG1       -0.0827
     18 C          -1.3889    1.1601   -1.9154 C.3     1  LIG1       -0.0170
     19 C           3.2234    2.6889   -0.3145 C.3     1  LIG1        0.0406
     20 C           3.3057    4.1430    0.2394 C.3     1  LIG1        0.0202
     21 N          -0.1602    1.3954    0.1691 N.ar    1  LIG1       -0.2616
     22 O           1.1059    1.8207    0.5533 O.2     1  LIG1       -0.2721
     23 O           4.6967    4.4560    0.4055 O.3     1  LIG1       -0.4652
     24 H           0.7076    4.6128    7.5035 H       1  LIG1        0.1146
     25 H           0.9951    7.7569   -3.0565 H       1  LIG1        0.1145
     26 H          -0.5940    4.8119    5.4006 H       1  LIG1        0.1155
     27 H           3.1729    4.3482    7.4160 H       1  LIG1        0.1158
     28 H          -0.3401    6.6833   -1.2622 H       1  LIG1        0.1169
     29 H           3.3902    7.1726   -3.3390 H       1  LIG1        0.1136
     30 H           0.5553    4.7466    3.2183 H       1  LIG1        0.1192
     31 H           4.3382    4.2811    5.2424 H       1  LIG1        0.1212
     32 H           0.7113    5.0310    0.2476 H       1  LIG1        0.1208
     33 H           4.4507    5.5216   -1.8346 H       1  LIG1        0.1271
     34 H           1.3070    2.2288   -2.6904 H       1  LIG1        0.1359
     35 H           4.2771    4.7055    2.8150 H       1  LIG1        0.1243
     36 H           1.5571    3.9738    1.5997 H       1  LIG1        0.1136
     37 H          -1.3666    0.0997   -2.2213 H       1  LIG1        0.0763
     38 H          -2.3117    1.3163   -1.3279 H       1  LIG1        0.0733
     39 H          -1.5090    1.7669   -2.8313 H       1  LIG1        0.0774
     40 H           3.7073    2.0002    0.3938 H       1  LIG1        0.1090
     41 H           3.7923    2.5978   -1.2502 H       1  LIG1        0.1110
     42 H           5.0522    3.7808    0.9994 H       1  LIG1        0.3327
@<TRIPOS>BOND
     1     1     3   ar
     2     1     4   ar
     3     2     5   ar
     4     2     6   ar
     5     3     7   ar
     6     4     8   ar
     7     5     9   ar
     8     6    10   ar
     9     7    12   ar
    10     8    12   ar
    11     9    13   ar
    12    10    13   ar
    13    11    14   ar
    14    11    15   ar
    15    12    16    1
    16    13    20    1
    17    14    18    1
    18    14    21   ar
    19    15    19    1
    20    15    22   ar
    21    16    17    2
    22    17    20    1
    23    19    20    1
    24    20    23    1
    25    21    22   ar
    26     1    24    1
    27     2    25    1
    28     3    26    1
    29     4    27    1
    30     5    28    1
    31     6    29    1
    32     7    30    1
    33     8    31    1
    34     9    32    1
    35    10    33    1
    36    11    34    1
    37    16    35    1
    38    17    36    1
    39    18    37    1
    40    18    38    1
    41    18    39    1
    42    19    40    1
    43    19    41    1
    44    23    42    1
