@<TRIPOS>MOLECULE
AE-848/33586058
 42 45 0 0 0
SMALL
USER_CHARGES

@<TRIPOS>ATOM
      1 C           1.6729    7.6755   -2.5008 C.ar    1  LIG1       -0.1068
      2 C           0.2423    0.6391   -1.9414 C.ar    1  LIG1       -0.1092
      3 C           0.7210    5.0194    5.8198 C.ar    1  LIG1       -0.0880
      4 C           2.9083    7.7937   -1.8640 C.ar    1  LIG1       -0.1045
      5 C           0.9461    6.4895   -2.3982 C.ar    1  LIG1       -0.1048
      6 C           1.7905    4.6021    6.6400 C.ar    1  LIG1       -0.0875
      7 C           1.5724    0.9665   -2.2042 C.ar    1  LIG1       -0.1015
      8 C          -0.4458    1.2868   -0.9153 C.ar    1  LIG1       -0.1008
      9 C           0.7535    4.8185    4.4375 C.ar    1  LIG1       -0.0660
     10 C           3.4169    6.7258   -1.1247 C.ar    1  LIG1       -0.0967
     11 C           1.4547    5.4215   -1.6591 C.ar    1  LIG1       -0.0979
     12 C           2.9162    3.9754    6.0950 C.ar    1  LIG1       -0.0614
     13 C           2.2145    1.9416   -1.4409 C.ar    1  LIG1       -0.0639
     14 C           0.1963    2.2618   -0.1520 C.ar    1  LIG1       -0.0623
     15 C           1.8734    4.1998    3.9269 C.ar    1  LIG1        0.0185
     16 C           2.6900    5.5396   -1.0223 C.ar    1  LIG1       -0.0795
     17 C           2.9336    3.7851    4.7292 C.ar    1  LIG1       -0.0308
     18 C           1.5264    2.5893   -0.4149 C.ar    1  LIG1       -0.0265
     19 C           2.2367    3.8399    2.5695 C.2     1  LIG1        0.1507
     20 C           3.5956    3.1780    2.6223 C.2     1  LIG1        0.1738
     21 C           3.2370    4.3896   -0.2269 C.3     1  LIG1        0.0238
     22 N           1.5638    4.0277    1.4917 N.2     1  LIG1       -0.2633
     23 N           3.9390    3.1880    3.9627 N.am    1  LIG1       -0.2909
     24 N           2.1753    3.5752    0.3570 N.pl3   1  LIG1       -0.3039
     25 O           4.1757    2.7624    1.6438 O.2     1  LIG1       -0.4408
     26 H           1.2765    8.5077   -3.0752 H       1  LIG1        0.1165
     27 H          -0.2577   -0.1204   -2.5356 H       1  LIG1        0.1060
     28 H          -0.1411    5.5021    6.2728 H       1  LIG1        0.1238
     29 H           3.4739    8.7176   -1.9428 H       1  LIG1        0.1163
     30 H          -0.0162    6.3974   -2.8930 H       1  LIG1        0.1155
     31 H           1.7354    4.7703    7.7126 H       1  LIG1        0.1379
     32 H           2.1079    0.4623   -3.0029 H       1  LIG1        0.1233
     33 H          -1.4817    1.0315   -0.7107 H       1  LIG1        0.1226
     34 H          -0.0668    5.1376    3.8061 H       1  LIG1        0.1486
     35 H           4.3804    6.8268   -0.6321 H       1  LIG1        0.1209
     36 H           0.8814    4.5011   -1.5849 H       1  LIG1        0.1153
     37 H           3.7355    3.6562    6.7286 H       1  LIG1        0.1313
     38 H           3.2512    2.1895   -1.6537 H       1  LIG1        0.1179
     39 H          -0.3500    2.7600    0.6449 H       1  LIG1        0.1207
     40 H           3.8510    3.7398   -0.8600 H       1  LIG1        0.1389
     41 H           3.8743    4.7446    0.5898 H       1  LIG1        0.1276
     42 H           4.7977    2.8186    4.3534 H       1  LIG1        0.3368
@<TRIPOS>BOND
     1     1     4   ar
     2     1     5   ar
     3     2     7   ar
     4     2     8   ar
     5     3     6   ar
     6     3     9   ar
     7     4    10   ar
     8     5    11   ar
     9     6    12   ar
    10     7    13   ar
    11     8    14   ar
    12     9    15   ar
    13    10    16   ar
    14    11    16   ar
    15    12    17   ar
    16    13    18   ar
    17    14    18   ar
    18    15    17   ar
    19    15    19    1
    20    16    21    1
    21    17    23    1
    22    18    24    1
    23    19    20    1
    24    19    22    2
    25    20    23   am
    26    20    25    2
    27    21    24    1
    28    22    24    1
    29     1    26    1
    30     2    27    1
    31     3    28    1
    32     4    29    1
    33     5    30    1
    34     6    31    1
    35     7    32    1
    36     8    33    1
    37     9    34    1
    38    10    35    1
    39    11    36    1
    40    12    37    1
    41    13    38    1
    42    14    39    1
    43    21    40    1
    44    21    41    1
    45    23    42    1
