@<TRIPOS>MOLECULE
AN-329/41145080
 44 46 0 0 0
SMALL
USER_CHARGES

@<TRIPOS>ATOM
      1 C           0.3949    0.6659   -1.6627 C.ar    1  LIG1       -0.1064
      2 C           2.1698    7.5222   -2.6641 C.ar    1  LIG1       -0.1055
      3 C           1.7245    1.0054   -1.9118 C.ar    1  LIG1       -0.1015
      4 C          -0.3896    1.4757   -0.8414 C.ar    1  LIG1       -0.1048
      5 C           1.0665    6.6693   -2.6312 C.ar    1  LIG1       -0.1044
      6 C           3.2439    7.3066   -1.8008 C.ar    1  LIG1       -0.1026
      7 C           2.2700    2.1545   -1.3395 C.ar    1  LIG1       -0.0921
      8 C           0.1558    2.6248   -0.2690 C.ar    1  LIG1       -0.0960
      9 C           1.0375    5.6008   -1.7351 C.ar    1  LIG1       -0.0979
     10 C           3.2148    6.2381   -0.9046 C.ar    1  LIG1       -0.0945
     11 C           2.9418    3.9783    5.7413 C.ar    1  LIG1       -0.0910
     12 C           0.7611    5.0086    5.5989 C.ar    1  LIG1       -0.0923
     13 C           2.8433    3.5853    4.4066 C.ar    1  LIG1       -0.0569
     14 C           0.6627    4.6156    4.2642 C.ar    1  LIG1       -0.0592
     15 C           1.9006    4.6899    6.3375 C.ar    1  LIG1       -0.1111
     16 C           1.4856    2.9643   -0.5181 C.ar    1  LIG1       -0.0660
     17 C           2.1116    5.3852   -0.8717 C.ar    1  LIG1       -0.0692
     18 C           1.7038    3.9039    3.6680 C.ar    1  LIG1        0.0214
     19 C           1.4597    4.5871    1.4528 C.2     1  LIG1        0.1908
     20 C           1.4472    4.0615    8.7221 C.3     1  LIG1       -0.0632
     21 C           2.0060    5.1106    7.7643 C.3     1  LIG1       -0.0484
     22 C           2.0804    4.2188    0.1074 C.3     1  LIG1        0.1039
     23 O           0.9466    5.6653    1.7250 O.2     1  LIG1       -0.4366
     24 O           1.6085    3.5214    2.3653 O.3     1  LIG1       -0.3043
     25 H          -0.0301   -0.2282   -2.1096 H       1  LIG1        0.1168
     26 H           2.1928    8.3532   -3.3630 H       1  LIG1        0.1176
     27 H           2.3352    0.3756   -2.5523 H       1  LIG1        0.1165
     28 H          -1.4253    1.2122   -0.6481 H       1  LIG1        0.1165
     29 H           0.2305    6.8363   -3.3041 H       1  LIG1        0.1178
     30 H           4.1035    7.9698   -1.8268 H       1  LIG1        0.1192
     31 H           3.3070    2.4111   -1.5390 H       1  LIG1        0.1233
     32 H          -0.4629    3.2496    0.3698 H       1  LIG1        0.1210
     33 H           0.1736    4.9416   -1.7164 H       1  LIG1        0.1155
     34 H           4.0563    6.0779   -0.2356 H       1  LIG1        0.1239
     35 H           3.8332    3.7257    6.3093 H       1  LIG1        0.1274
     36 H          -0.0551    5.5627    6.0553 H       1  LIG1        0.1263
     37 H           3.6580    3.0313    3.9477 H       1  LIG1        0.1331
     38 H          -0.2273    4.8671    3.6942 H       1  LIG1        0.1271
     39 H           0.4019    3.8333    8.4881 H       1  LIG1        0.0342
     40 H           1.4934    4.4170    9.7562 H       1  LIG1        0.0343
     41 H           2.0173    3.1284    8.6583 H       1  LIG1        0.0369
     42 H           3.0562    5.3154    8.0280 H       1  LIG1        0.0614
     43 H           1.4750    6.0630    7.9242 H       1  LIG1        0.0616
     44 H           3.1243    3.9898    0.3728 H       1  LIG1        0.1576
@<TRIPOS>BOND
     1     1     3   ar
     2     1     4   ar
     3     2     5   ar
     4     2     6   ar
     5     3     7   ar
     6     4     8   ar
     7     5     9   ar
     8     6    10   ar
     9     7    16   ar
    10     8    16   ar
    11     9    17   ar
    12    10    17   ar
    13    11    13   ar
    14    11    15   ar
    15    12    14   ar
    16    12    15   ar
    17    13    18   ar
    18    14    18   ar
    19    15    21    1
    20    16    22    1
    21    17    22    1
    22    18    24    1
    23    19    22    1
    24    19    23    2
    25    19    24    1
    26    20    21    1
    27     1    25    1
    28     2    26    1
    29     3    27    1
    30     4    28    1
    31     5    29    1
    32     6    30    1
    33     7    31    1
    34     8    32    1
    35     9    33    1
    36    10    34    1
    37    11    35    1
    38    12    36    1
    39    13    37    1
    40    14    38    1
    41    20    39    1
    42    20    40    1
    43    20    41    1
    44    21    42    1
    45    21    43    1
    46    22    44    1
