@<TRIPOS>MOLECULE
AE-848/32610052
 41 43 0 0 0
SMALL
USER_CHARGES

@<TRIPOS>ATOM
      1 C           1.9464    7.8320   -2.3598 C.ar    1  LIG1       -0.1001
      2 C           0.0865    0.5140   -1.7987 C.ar    1  LIG1       -0.0978
      3 C           1.9889    5.2883    6.5330 C.ar    1  LIG1       -0.0995
      4 C           0.8261    7.2120   -1.8065 C.ar    1  LIG1       -0.1007
      5 C           3.2114    7.2710   -2.1850 C.ar    1  LIG1       -0.1056
      6 C           1.4044    0.7488   -2.1907 C.ar    1  LIG1       -0.1011
      7 C          -0.5166    1.3398   -0.8500 C.ar    1  LIG1       -0.1032
      8 C           0.7509    4.9779    5.9702 C.ar    1  LIG1       -0.0935
      9 C           3.1644    4.9170    5.8802 C.ar    1  LIG1       -0.0934
     10 C           0.9709    6.0311   -1.0783 C.ar    1  LIG1       -0.0695
     11 C           3.3562    6.0901   -1.4569 C.ar    1  LIG1       -0.0768
     12 C           2.1193    1.8093   -1.6339 C.ar    1  LIG1       -0.0770
     13 C           0.1983    2.4003   -0.2932 C.ar    1  LIG1       -0.0803
     14 C           0.6884    4.2963    4.7548 C.ar    1  LIG1       -0.0049
     15 C           3.1019    4.2354    4.6649 C.ar    1  LIG1       -0.0047
     16 C           2.2360    5.4701   -0.9036 C.ar    1  LIG1        0.0910
     17 C           1.5162    2.6351   -0.6852 C.ar    1  LIG1        0.0821
     18 C           1.8639    3.9250    4.1022 C.ar    1  LIG1        0.2861
     19 N           1.7715    4.2584    1.4633 N.2     1  LIG1       -0.0932
     20 N           3.9952    3.5071    0.1414 N.3     1  LIG1       -0.3049
     21 O           0.5000    2.3799    2.5271 O.2     1  LIG1       -0.0926
     22 O           3.0165    2.2934    2.4941 O.2     1  LIG1       -0.0926
     23 P           2.4193    3.9750    0.0181 P.3     1  LIG1       -0.0223
     24 S           1.7839    3.0566    2.5607 S.O2    1  LIG1       -0.0593
     25 H           1.8335    8.7515   -2.9266 H       1  LIG1        0.1298
     26 H          -0.4699   -0.3118   -2.2322 H       1  LIG1        0.1311
     27 H           2.0382    5.8185    7.4796 H       1  LIG1        0.1292
     28 H          -0.1589    7.6489   -1.9422 H       1  LIG1        0.1220
     29 H           4.0837    7.7537   -2.6162 H       1  LIG1        0.1188
     30 H           1.8740    0.1056   -2.9291 H       1  LIG1        0.1212
     31 H          -1.5429    1.1572   -0.5451 H       1  LIG1        0.1222
     32 H          -0.1646    5.2659    6.4786 H       1  LIG1        0.1193
     33 H           4.1281    5.1582    6.3189 H       1  LIG1        0.1189
     34 H           0.0955    5.5521   -0.6489 H       1  LIG1        0.1355
     35 H           4.3434    5.6568   -1.3240 H       1  LIG1        0.1207
     36 H           3.1455    1.9879   -1.9420 H       1  LIG1        0.1271
     37 H          -0.2757    3.0410    0.4449 H       1  LIG1        0.1231
     38 H          -0.2814    4.0586    4.3258 H       1  LIG1        0.1457
     39 H           4.0239    3.9499    4.1658 H       1  LIG1        0.1453
     40 H           4.6314    4.1265    0.6419 H       1  LIG1        0.2492
     41 H           4.4743    3.2618   -0.7241 H       1  LIG1        0.2551
@<TRIPOS>BOND
     1     1     4   ar
     2     1     5   ar
     3     2     6   ar
     4     2     7   ar
     5     3     8   ar
     6     3     9   ar
     7     4    10   ar
     8     5    11   ar
     9     6    12   ar
    10     7    13   ar
    11     8    14   ar
    12     9    15   ar
    13    10    16   ar
    14    11    16   ar
    15    12    17   ar
    16    13    17   ar
    17    14    18   ar
    18    15    18   ar
    19    16    23    1
    20    17    23    1
    21    18    24    1
    22    19    23    2
    23    19    24    1
    24    20    23    1
    25    21    24    2
    26    22    24    2
    27     1    25    1
    28     2    26    1
    29     3    27    1
    30     4    28    1
    31     5    29    1
    32     6    30    1
    33     7    31    1
    34     8    32    1
    35     9    33    1
    36    10    34    1
    37    11    35    1
    38    12    36    1
    39    13    37    1
    40    14    38    1
    41    15    39    1
    42    20    40    1
    43    20    41    1
