@<TRIPOS>MOLECULE
AG-205/05218021
 46 49 0 0 0
SMALL
USER_CHARGES

@<TRIPOS>ATOM
      1 C           1.9886    7.5860   -2.3046 C.ar    1  LIG1       -0.1029
      2 C           0.2211    0.7066   -1.7872 C.ar    1  LIG1       -0.1018
      3 C           0.8654    6.9663   -1.7571 C.ar    1  LIG1       -0.1000
      4 C           3.2552    7.0369   -2.1046 C.ar    1  LIG1       -0.1088
      5 C           1.5488    0.9321   -2.1503 C.ar    1  LIG1       -0.1052
      6 C          -0.3933    1.5296   -0.8432 C.ar    1  LIG1       -0.0997
      7 C           1.0087    5.7975   -1.0093 C.ar    1  LIG1       -0.0942
      8 C           3.3985    5.8682   -1.3569 C.ar    1  LIG1       -0.1045
      9 C           2.2623    1.9806   -1.5695 C.ar    1  LIG1       -0.1022
     10 C           0.3202    2.5780   -0.2624 C.ar    1  LIG1       -0.0956
     11 C           2.2752    5.2484   -0.8093 C.ar    1  LIG1       -0.0799
     12 C           1.6480    2.8036   -0.6255 C.ar    1  LIG1       -0.0794
     13 C           2.4582    5.6501    3.5081 C.3     1  LIG1       -0.0695
     14 C           4.4394    4.8437    2.2485 C.3     1  LIG1       -0.0734
     15 C           2.4823    4.3841    4.3664 C.3     1  LIG1       -0.1022
     16 C           4.4731    3.5755    3.1016 C.3     1  LIG1       -0.1072
     17 C           2.1843    2.9696    2.3307 C.3     1  LIG1       -0.0858
     18 C           2.9946    5.3511    2.0946 C.3     1  LIG1       -0.0601
     19 C           2.0997    4.2472    1.4787 C.3     1  LIG1       -0.0345
     20 C           2.4341    3.9595    0.0155 C.3     1  LIG1        0.0114
     21 N           3.0581    3.2554    3.5367 N.4     1  LIG1        0.4042
     22 O           3.8212    3.5605    0.0310 O.3     1  LIG1       -0.4603
     23 H           1.8767    8.4954   -2.8879 H       1  LIG1        0.1272
     24 H          -0.3347   -0.1089   -2.2405 H       1  LIG1        0.1242
     25 H          -0.1210    7.3931   -1.9136 H       1  LIG1        0.1299
     26 H           4.1297    7.5185   -2.5318 H       1  LIG1        0.1214
     27 H           2.0269    0.2922   -2.8862 H       1  LIG1        0.1207
     28 H          -1.4272    1.3550   -0.5610 H       1  LIG1        0.1236
     29 H           0.1279    5.3217   -0.5863 H       1  LIG1        0.1269
     30 H           4.3892    5.4477   -1.2062 H       1  LIG1        0.1106
     31 H           3.2964    2.1487   -1.8584 H       1  LIG1        0.1139
     32 H          -0.1666    3.2140    0.4724 H       1  LIG1        0.1209
     33 H           1.4349    6.0408    3.4546 H       1  LIG1        0.0684
     34 H           3.0599    6.4321    3.9865 H       1  LIG1        0.0692
     35 H           5.0598    5.6167    2.7193 H       1  LIG1        0.0952
     36 H           4.8958    4.6496    1.2717 H       1  LIG1        0.0494
     37 H           3.1160    4.4975    5.2522 H       1  LIG1        0.0873
     38 H           1.4794    4.0801    4.6835 H       1  LIG1        0.0875
     39 H           4.8493    2.7117    2.5435 H       1  LIG1        0.0723
     40 H           5.0755    3.7020    4.0071 H       1  LIG1        0.1072
     41 H           1.2015    2.6691    2.7099 H       1  LIG1        0.0955
     42 H           2.6304    2.1193    1.8038 H       1  LIG1        0.0982
     43 H           2.9709    6.2601    1.4839 H       1  LIG1        0.0882
     44 H           1.0593    4.6000    1.4975 H       1  LIG1        0.1066
     45 H           3.0854    2.4083    4.1203 H       1  LIG1        0.1633
     46 H           3.8517    2.7540    0.5595 H       1  LIG1        0.3437
@<TRIPOS>BOND
     1     1     3   ar
     2     1     4   ar
     3     2     5   ar
     4     2     6   ar
     5     3     7   ar
     6     4     8   ar
     7     5     9   ar
     8     6    10   ar
     9     7    11   ar
    10     8    11   ar
    11     9    12   ar
    12    10    12   ar
    13    11    20    1
    14    12    20    1
    15    13    15    1
    16    13    18    1
    17    14    16    1
    18    14    18    1
    19    15    21    1
    20    16    21    1
    21    17    19    1
    22    17    21    1
    23    18    19    1
    24    19    20    1
    25    20    22    1
    26     1    23    1
    27     2    24    1
    28     3    25    1
    29     4    26    1
    30     5    27    1
    31     6    28    1
    32     7    29    1
    33     8    30    1
    34     9    31    1
    35    10    32    1
    36    13    33    1
    37    13    34    1
    38    14    35    1
    39    14    36    1
    40    15    37    1
    41    15    38    1
    42    16    39    1
    43    16    40    1
    44    17    41    1
    45    17    42    1
    46    18    43    1
    47    19    44    1
    48    21    45    1
    49    22    46    1
