@<TRIPOS>MOLECULE
AG-690/12884758
 41 44 0 0 0
SMALL
USER_CHARGES

@<TRIPOS>ATOM
      1 C           0.3426    0.8574   -2.3571 C.ar    1  LIG1       -0.1083
      2 C           1.0277    7.1077   -0.7943 C.ar    1  LIG1       -0.0889
      3 C           1.6428    7.4604   -1.9955 C.ar    1  LIG1       -0.0897
      4 C           1.7173    0.7777   -2.1353 C.ar    1  LIG1       -0.0986
      5 C          -0.4375    1.7278   -1.5956 C.ar    1  LIG1       -0.1004
      6 C           2.1916    4.3016    6.2226 C.ar    1  LIG1       -0.1036
      7 C           1.5289    6.0474   -0.0391 C.ar    1  LIG1       -0.0805
      8 C           2.7590    6.7528   -2.4415 C.ar    1  LIG1       -0.0735
      9 C           2.3122    1.5684   -1.1522 C.ar    1  LIG1       -0.0575
     10 C           0.1574    2.5184   -0.6124 C.ar    1  LIG1       -0.0616
     11 C           2.6410    3.7058    5.0088 C.ar    1  LIG1       -0.0852
     12 C           1.3733    5.3861    5.9948 C.ar    1  LIG1       -0.0425
     13 C           2.6452    5.3398   -0.4851 C.ar    1  LIG1       -0.0543
     14 C           3.2602    5.6925   -1.6863 C.ar    1  LIG1        0.0333
     15 C           1.5323    2.4387   -0.3907 C.ar    1  LIG1       -0.0266
     16 C           2.1487    4.3576    3.8994 C.ar    1  LIG1        0.0095
     17 C           2.3664    4.0676    2.5276 C.2     1  LIG1        0.0208
     18 C           3.5091    4.6748    1.7581 C.3     1  LIG1        0.0359
     19 C           3.1651    4.2091    0.3406 C.3     1  LIG1        0.0294
     20 C           4.4561    4.9493   -2.1846 C.3     1  LIG1        0.3488
     21 N           1.6275    3.2465    1.8470 N.2     1  LIG1       -0.3123
     22 N           2.1162    3.2156    0.5750 N.pl3   1  LIG1       -0.3189
     23 F           4.9346    5.4202   -3.3732 F       1  LIG1       -0.1891
     24 F           5.5189    4.9913   -1.3290 F       1  LIG1       -0.1900
     25 F           4.2009    3.6250   -2.3895 F       1  LIG1       -0.1902
     26 S           1.1495    5.6822    4.3231 S.2     1  LIG1       -0.1129
     27 H          -0.1206    0.2414   -3.1226 H       1  LIG1        0.1068
     28 H           0.1582    7.6583   -0.4478 H       1  LIG1        0.1348
     29 H           1.2517    8.2859   -2.5832 H       1  LIG1        0.1314
     30 H           2.3244    0.1000   -2.7282 H       1  LIG1        0.1235
     31 H          -1.5081    1.7896   -1.7683 H       1  LIG1        0.1236
     32 H           2.4562    3.9532    7.2125 H       1  LIG1        0.1166
     33 H           1.0414    5.7795    0.8947 H       1  LIG1        0.1320
     34 H           3.2316    7.0356   -3.3786 H       1  LIG1        0.1422
     35 H           3.3843    1.4987   -0.9872 H       1  LIG1        0.1268
     36 H          -0.4604    3.1932   -0.0253 H       1  LIG1        0.1155
     37 H           3.2922    2.8423    4.9580 H       1  LIG1        0.1306
     38 H           0.8970    6.0190    6.7303 H       1  LIG1        0.1702
     39 H           3.5548    5.7598    1.8880 H       1  LIG1        0.1065
     40 H           4.4416    4.2216    2.1119 H       1  LIG1        0.1040
     41 H           4.0375    3.7699   -0.1548 H       1  LIG1        0.1427
@<TRIPOS>BOND
     1     1     4   ar
     2     1     5   ar
     3     2     3   ar
     4     2     7   ar
     5     3     8   ar
     6     4     9   ar
     7     5    10   ar
     8     6    11   ar
     9     6    12   ar
    10     7    13   ar
    11     8    14   ar
    12     9    15   ar
    13    10    15   ar
    14    11    16   ar
    15    12    26   ar
    16    13    14   ar
    17    13    19    1
    18    14    20    1
    19    15    22    1
    20    16    17    1
    21    16    26   ar
    22    17    18    1
    23    17    21    2
    24    18    19    1
    25    19    22    1
    26    20    23    1
    27    20    24    1
    28    20    25    1
    29    21    22    1
    30     1    27    1
    31     2    28    1
    32     3    29    1
    33     4    30    1
    34     5    31    1
    35     6    32    1
    36     7    33    1
    37     8    34    1
    38     9    35    1
    39    10    36    1
    40    11    37    1
    41    12    38    1
    42    18    39    1
    43    18    40    1
    44    19    41    1
