@<TRIPOS>MOLECULE
AB-131/42301008
 42 46 0 0 0
SMALL
USER_CHARGES

@<TRIPOS>ATOM
      1 C           1.6660    4.7024    6.3156 C.ar    1  LIG1       -0.1043
      2 C           0.5625    4.2101    5.6251 C.ar    1  LIG1       -0.1042
      3 C           1.1588    7.1488   -2.1665 C.ar    1  LIG1       -0.1041
      4 C          -0.1344    1.5148   -1.5109 C.ar    1  LIG1       -0.1031
      5 C           2.4569    7.5624   -1.8933 C.ar    1  LIG1       -0.1055
      6 C           0.6810    0.7459   -0.6901 C.ar    1  LIG1       -0.1043
      7 C           2.9011    4.8071    5.6752 C.ar    1  LIG1       -0.0934
      8 C           0.6899    3.8207    4.2914 C.ar    1  LIG1       -0.0929
      9 C           4.2830    4.5185    3.6729 C.ar    1  LIG1       -0.0903
     10 C           0.7863    5.8170   -1.9598 C.ar    1  LIG1       -0.0915
     11 C           0.1930    2.8471   -1.7797 C.ar    1  LIG1       -0.0897
     12 C           3.3831    6.6465   -1.4060 C.ar    1  LIG1       -0.0989
     13 C           1.8317    1.3051   -0.1449 C.ar    1  LIG1       -0.0951
     14 C           4.4104    4.1290    2.3393 C.ar    1  LIG1       -0.0925
     15 C           2.0718    3.5319    2.2891 C.ar    1  LIG1       -0.0841
     16 C           3.0475    4.4199    4.3333 C.ar    1  LIG1       -0.0826
     17 C           1.9253    3.9193    3.6310 C.ar    1  LIG1       -0.0807
     18 C           1.7031    4.8655   -1.4764 C.ar    1  LIG1       -0.0752
     19 C           1.3437    3.4460   -1.2336 C.ar    1  LIG1       -0.0719
     20 C           3.3069    3.6367    1.6487 C.ar    1  LIG1       -0.0919
     21 C           3.0118    5.3114   -1.1829 C.ar    1  LIG1       -0.0932
     22 C           2.1757    2.6413   -0.4171 C.ar    1  LIG1       -0.0825
     23 C           4.0448    4.3295   -0.6865 C.3     1  LIG1       -0.0199
     24 C           3.4480    3.2120    0.1915 C.3     1  LIG1       -0.0096
     25 H           1.5660    5.0050    7.3538 H       1  LIG1        0.1149
     26 H          -0.3984    4.1284    6.1245 H       1  LIG1        0.1150
     27 H           0.4299    7.8615   -2.5416 H       1  LIG1        0.1160
     28 H          -1.0303    1.0807   -1.9453 H       1  LIG1        0.1167
     29 H           2.7467    8.5956   -2.0591 H       1  LIG1        0.1167
     30 H           0.4245   -0.2879   -0.4797 H       1  LIG1        0.1166
     31 H           3.7498    5.1951    6.2349 H       1  LIG1        0.1224
     32 H          -0.1862    3.4384    3.7713 H       1  LIG1        0.1228
     33 H           5.1592    4.9003    4.1933 H       1  LIG1        0.1218
     34 H          -0.2445    5.5495   -2.1774 H       1  LIG1        0.1228
     35 H          -0.4747    3.4004   -2.4350 H       1  LIG1        0.1230
     36 H           4.3977    6.9772   -1.1987 H       1  LIG1        0.1190
     37 H           2.4671    0.6938    0.4913 H       1  LIG1        0.1202
     38 H           5.3761    4.2136    1.8479 H       1  LIG1        0.1281
     39 H           1.2164    3.1454    1.7372 H       1  LIG1        0.1261
     40 H           4.5091    3.8787   -1.5742 H       1  LIG1        0.0786
     41 H           4.8401    4.8516   -0.1388 H       1  LIG1        0.0795
     42 H           4.2244    2.3857    0.2004 H       1  LIG1        0.1011
@<TRIPOS>BOND
     1     1     2   ar
     2     1     7   ar
     3     2     8   ar
     4     3     5   ar
     5     3    10   ar
     6     4     6   ar
     7     4    11   ar
     8     5    12   ar
     9     6    13   ar
    10     7    16   ar
    11     8    17   ar
    12     9    14   ar
    13     9    16   ar
    14    10    18   ar
    15    11    19   ar
    16    12    21   ar
    17    13    22   ar
    18    14    20   ar
    19    15    17   ar
    20    15    20   ar
    21    16    17   ar
    22    18    19    1
    23    18    21   ar
    24    19    22   ar
    25    20    24    1
    26    21    23    1
    27    22    24    1
    28    23    24    1
    29     1    25    1
    30     2    26    1
    31     3    27    1
    32     4    28    1
    33     5    29    1
    34     6    30    1
    35     7    31    1
    36     8    32    1
    37     9    33    1
    38    10    34    1
    39    11    35    1
    40    12    36    1
    41    13    37    1
    42    14    38    1
    43    15    39    1
    44    23    40    1
    45    23    41    1
    46    24    42    1
