@<TRIPOS>MOLECULE
AG-690/40144153
 41 44 0 0 0
SMALL
USER_CHARGES

@<TRIPOS>ATOM
      1 C           1.5270    4.3247    6.5663 C.ar    1  LIG1       -0.1031
      2 C           2.6325    3.6207    6.0889 C.ar    1  LIG1       -0.0970
      3 C           0.6981    5.0084    5.6768 C.ar    1  LIG1       -0.0983
      4 C           2.9210    6.3052   -2.9881 C.ar    1  LIG1       -0.0874
      5 C           2.9092    3.6005    4.7220 C.ar    1  LIG1       -0.0757
      6 C           0.9748    4.9882    4.3099 C.ar    1  LIG1       -0.0780
      7 C           2.0368    2.3067   -1.7406 C.ar    1  LIG1       -0.0831
      8 C           0.8106    2.1229    0.3330 C.ar    1  LIG1       -0.0843
      9 C           3.0984    5.4746   -1.8819 C.ar    1  LIG1       -0.0537
     10 C           1.9721    7.3269   -2.9483 C.ar    1  LIG1       -0.0526
     11 C           1.0775    1.5196   -2.3776 C.ar    1  LIG1       -0.0777
     12 C          -0.1487    1.3359   -0.3040 C.ar    1  LIG1       -0.0792
     13 C           1.3778    6.6870   -0.6957 C.ar    1  LIG1       -0.0028
     14 C           2.0804    4.2842    3.8323 C.ar    1  LIG1       -0.0363
     15 C           1.9034    2.6083   -0.3852 C.ar    1  LIG1       -0.0727
     16 C           2.3267    5.6653   -0.7357 C.ar    1  LIG1       -0.0162
     17 C           1.2006    7.5177   -1.8021 C.ar    1  LIG1        0.0683
     18 C          -0.0153    1.0342   -1.6594 C.ar    1  LIG1       -0.0399
     19 C           2.3689    4.2631    2.4072 C.2     1  LIG1        0.0097
     20 C           3.0524    3.0803    1.7776 C.3     1  LIG1        0.0319
     21 C           2.9312    3.4514    0.2972 C.3     1  LIG1        0.0253
     22 N           2.0965    5.2347    1.5941 N.2     1  LIG1       -0.3220
     23 N           2.5002    4.8490    0.3507 N.pl3   1  LIG1       -0.3196
     24 F           0.2905    8.5000   -1.7633 F       1  LIG1       -0.2639
     25 BR         -1.3144   -0.0325   -2.5231 Br      1  LIG1       -0.1097
     26 H           1.3116    4.3404    7.6307 H       1  LIG1        0.1206
     27 H           3.2778    3.0886    6.7817 H       1  LIG1        0.1201
     28 H          -0.1627    5.5563    6.0485 H       1  LIG1        0.1203
     29 H           3.5223    6.1572   -3.8807 H       1  LIG1        0.1386
     30 H           3.7732    3.0487    4.3607 H       1  LIG1        0.1340
     31 H           0.3222    5.5247    3.6259 H       1  LIG1        0.1293
     32 H           2.8849    2.6807   -2.3082 H       1  LIG1        0.1282
     33 H           0.6990    2.3520    1.3895 H       1  LIG1        0.1320
     34 H           3.8401    4.6813   -1.9240 H       1  LIG1        0.1213
     35 H           1.8344    7.9740   -3.8095 H       1  LIG1        0.1200
     36 H           1.1970    1.2931   -3.4341 H       1  LIG1        0.1350
     37 H          -0.9942    0.9657    0.2697 H       1  LIG1        0.1363
     38 H           0.7705    6.8447    0.1919 H       1  LIG1        0.1384
     39 H           4.0994    3.0764    2.0992 H       1  LIG1        0.1027
     40 H           2.5741    2.1373    2.0563 H       1  LIG1        0.1010
     41 H           3.8904    3.3413   -0.2196 H       1  LIG1        0.1402
@<TRIPOS>BOND
     1     1     2   ar
     2     1     3   ar
     3     2     5   ar
     4     3     6   ar
     5     4     9   ar
     6     4    10   ar
     7     5    14   ar
     8     6    14   ar
     9     7    11   ar
    10     7    15   ar
    11     8    12   ar
    12     8    15   ar
    13     9    16   ar
    14    10    17   ar
    15    11    18   ar
    16    12    18   ar
    17    13    16   ar
    18    13    17   ar
    19    14    19    1
    20    15    21    1
    21    16    23    1
    22    17    24    1
    23    18    25    1
    24    19    20    1
    25    19    22    2
    26    20    21    1
    27    21    23    1
    28    22    23    1
    29     1    26    1
    30     2    27    1
    31     3    28    1
    32     4    29    1
    33     5    30    1
    34     6    31    1
    35     7    32    1
    36     8    33    1
    37     9    34    1
    38    10    35    1
    39    11    36    1
    40    12    37    1
    41    13    38    1
    42    20    39    1
    43    20    40    1
    44    21    41    1
