@<TRIPOS>MOLECULE
AG-927/42926099
 44 46 0 0 0
SMALL
USER_CHARGES

@<TRIPOS>ATOM
      1 C           0.2214    0.7926   -1.6956 C.ar    1  LIG1       -0.1096
      2 C           0.8665    4.4853    6.0120 C.ar    1  LIG1       -0.1086
      3 C           1.6662    7.6387   -2.4867 C.ar    1  LIG1       -0.1163
      4 C           1.4903    1.2106   -2.0960 C.ar    1  LIG1       -0.1079
      5 C          -0.3473    1.3074   -0.5305 C.ar    1  LIG1       -0.1066
      6 C           0.8628    5.3390    4.9090 C.ar    1  LIG1       -0.1077
      7 C           1.8010    3.4528    6.0917 C.ar    1  LIG1       -0.1073
      8 C           3.0287    7.3437   -2.5313 C.ar    1  LIG1       -0.1097
      9 C           0.8155    6.8848   -1.6779 C.ar    1  LIG1       -0.1090
     10 C           2.1909    2.1434   -1.3313 C.ar    1  LIG1       -0.0993
     11 C           0.3532    2.2402    0.2341 C.ar    1  LIG1       -0.0974
     12 C           1.7935    5.1602    3.8856 C.ar    1  LIG1       -0.1032
     13 C           2.7318    3.2740    5.0683 C.ar    1  LIG1       -0.1021
     14 C           3.5407    6.2951   -1.7672 C.ar    1  LIG1       -0.0790
     15 C           1.3275    5.8362   -0.9139 C.ar    1  LIG1       -0.0783
     16 C           1.6223    2.6582   -0.1663 C.ar    1  LIG1       -0.0874
     17 C           2.7280    4.1277    3.9652 C.ar    1  LIG1       -0.0904
     18 C           2.6901    5.5413   -0.9585 C.ar    1  LIG1       -0.0821
     19 C           3.2583    2.9917    1.7349 C.3     1  LIG1       -0.0071
     20 C           2.3832    3.6720    0.6655 C.3     1  LIG1       -0.0207
     21 C           3.7363    3.9333    2.8568 C.3     1  LIG1        0.0028
     22 N           3.1973    4.5020   -0.2012 N.pl3   1  LIG1       -0.4034
     23 O           4.9268    3.3952    3.4377 O.3     1  LIG1       -0.4761
     24 H          -0.3245    0.0672   -2.2919 H       1  LIG1        0.1125
     25 H           0.1425    4.6256    6.8094 H       1  LIG1        0.1144
     26 H           1.2674    8.4552   -3.0818 H       1  LIG1        0.0954
     27 H           1.9328    0.8107   -3.0037 H       1  LIG1        0.1140
     28 H          -1.3358    0.9829   -0.2191 H       1  LIG1        0.1127
     29 H           0.1359    6.1437    4.8473 H       1  LIG1        0.1155
     30 H           1.8049    2.7886    6.9509 H       1  LIG1        0.1160
     31 H           3.6907    7.9305   -3.1610 H       1  LIG1        0.1160
     32 H          -0.2456    7.1146   -1.6433 H       1  LIG1        0.1171
     33 H           3.1792    2.4632   -1.6509 H       1  LIG1        0.1153
     34 H          -0.0976    2.6358    1.1404 H       1  LIG1        0.1160
     35 H           1.7830    5.8301    3.0298 H       1  LIG1        0.1132
     36 H           3.4559    2.4668    5.1389 H       1  LIG1        0.1170
     37 H           4.6040    6.0733   -1.8092 H       1  LIG1        0.1054
     38 H           0.6552    5.2557   -0.2871 H       1  LIG1        0.1063
     39 H           2.7141    2.1443    2.1743 H       1  LIG1        0.0793
     40 H           4.1458    2.5421    1.2679 H       1  LIG1        0.0684
     41 H           1.6585    4.3276    1.1616 H       1  LIG1        0.1270
     42 H           4.0141    4.9043    2.4304 H       1  LIG1        0.1411
     43 H           4.1877    4.3050   -0.2479 H       1  LIG1        0.2831
     44 H           5.5558    3.2797    2.7104 H       1  LIG1        0.3211
@<TRIPOS>BOND
     1     1     4   ar
     2     1     5   ar
     3     2     6   ar
     4     2     7   ar
     5     3     8   ar
     6     3     9   ar
     7     4    10   ar
     8     5    11   ar
     9     6    12   ar
    10     7    13   ar
    11     8    14   ar
    12     9    15   ar
    13    10    16   ar
    14    11    16   ar
    15    12    17   ar
    16    13    17   ar
    17    14    18   ar
    18    15    18   ar
    19    16    20    1
    20    17    21    1
    21    18    22    1
    22    19    20    1
    23    19    21    1
    24    20    22    1
    25    21    23    1
    26     1    24    1
    27     2    25    1
    28     3    26    1
    29     4    27    1
    30     5    28    1
    31     6    29    1
    32     7    30    1
    33     8    31    1
    34     9    32    1
    35    10    33    1
    36    11    34    1
    37    12    35    1
    38    13    36    1
    39    14    37    1
    40    15    38    1
    41    19    39    1
    42    19    40    1
    43    20    41    1
    44    21    42    1
    45    22    43    1
    46    23    44    1
