@<TRIPOS>MOLECULE
AJ-091/14841012
 46 49 0 0 0
SMALL
USER_CHARGES

@<TRIPOS>ATOM
      1 C           0.3113    0.8132   -2.5397 C.ar    1  LIG1       -0.1116
      2 C           2.6726    4.3990    6.0691 C.ar    1  LIG1       -0.1000
      3 C           1.6423    1.2186   -2.6386 C.ar    1  LIG1       -0.1030
      4 C          -0.4589    1.2088   -1.4459 C.ar    1  LIG1       -0.1012
      5 C           1.4809    5.0115    6.4568 C.ar    1  LIG1       -0.1049
      6 C           2.8938    4.0908    4.7268 C.ar    1  LIG1       -0.0700
      7 C           3.2492    5.6282   -1.8082 C.ar    1  LIG1       -0.0873
      8 C           1.4540    6.0476   -0.2467 C.ar    1  LIG1       -0.0948
      9 C           2.2032    2.0194   -1.6438 C.ar    1  LIG1       -0.0620
     10 C           0.1022    2.0095   -0.4511 C.ar    1  LIG1       -0.0578
     11 C           0.5105    5.3157    5.5022 C.ar    1  LIG1       -0.0687
     12 C           2.8034    6.6832   -2.6042 C.ar    1  LIG1       -0.0592
     13 C           1.0082    7.1027   -1.0427 C.ar    1  LIG1       -0.0697
     14 C           1.9235    4.3951    3.7722 C.ar    1  LIG1        0.0040
     15 C           2.5745    5.3102   -0.6295 C.ar    1  LIG1       -0.0810
     16 C           1.4332    2.4148   -0.5499 C.ar    1  LIG1       -0.0265
     17 C           1.6829    7.4205   -2.2215 C.ar    1  LIG1       -0.0157
     18 C           0.7316    5.0076    4.1599 C.ar    1  LIG1       -0.0071
     19 C           2.1746    4.0648    2.3763 C.2     1  LIG1        0.0195
     20 C           3.3505    4.6538    1.6487 C.3     1  LIG1        0.0294
     21 C           3.0523    4.1805    0.2236 C.3     1  LIG1        0.0188
     22 C           1.9863    8.7221   -4.1886 C.3     1  LIG1        0.0232
     23 N           1.4501    3.2482    1.6806 N.2     1  LIG1       -0.3146
     24 N           1.9837    3.2014    0.4273 N.pl3   1  LIG1       -0.3207
     25 O          -0.2278    5.3145    3.2417 O.3     1  LIG1       -0.4150
     26 O           1.2489    8.4509   -2.9977 O.3     1  LIG1       -0.4191
     27 H          -0.1253    0.1895   -3.3143 H       1  LIG1        0.1026
     28 H           3.4282    4.1622    6.8128 H       1  LIG1        0.1116
     29 H           2.2417    0.9106   -3.4900 H       1  LIG1        0.1204
     30 H          -1.4953    0.8930   -1.3691 H       1  LIG1        0.1202
     31 H           1.3090    5.2506    7.5021 H       1  LIG1        0.1254
     32 H           3.8265    3.6140    4.4362 H       1  LIG1        0.1401
     33 H           4.1229    5.0590   -2.1141 H       1  LIG1        0.1327
     34 H           0.9219    5.8070    0.6700 H       1  LIG1        0.1250
     35 H           3.2413    2.3297   -1.7301 H       1  LIG1        0.1158
     36 H          -0.5077    2.3117    0.3966 H       1  LIG1        0.1265
     37 H          -0.4157    5.7930    5.8108 H       1  LIG1        0.1105
     38 H           3.3336    6.9263   -3.5213 H       1  LIG1        0.1283
     39 H           0.1351    7.6734   -0.7390 H       1  LIG1        0.1107
     40 H           3.4049    5.7390    1.7709 H       1  LIG1        0.0984
     41 H           4.2637    4.1894    2.0364 H       1  LIG1        0.0988
     42 H           3.9362    3.7275   -0.2376 H       1  LIG1        0.1335
     43 H           1.5341    9.5670   -4.7137 H       1  LIG1        0.1224
     44 H           1.9831    7.8370   -4.8298 H       1  LIG1        0.0885
     45 H           3.0157    8.9714   -3.9204 H       1  LIG1        0.0888
     46 H          -0.9856    5.7343    3.6775 H       1  LIG1        0.3945
@<TRIPOS>BOND
     1     1     3   ar
     2     1     4   ar
     3     2     5   ar
     4     2     6   ar
     5     3     9   ar
     6     4    10   ar
     7     5    11   ar
     8     6    14   ar
     9     7    12   ar
    10     7    15   ar
    11     8    13   ar
    12     8    15   ar
    13     9    16   ar
    14    10    16   ar
    15    11    18   ar
    16    12    17   ar
    17    13    17   ar
    18    14    18   ar
    19    14    19    1
    20    15    21    1
    21    16    24    1
    22    17    26    1
    23    18    25    1
    24    19    20    1
    25    19    23    2
    26    20    21    1
    27    21    24    1
    28    22    26    1
    29    23    24    1
    30     1    27    1
    31     2    28    1
    32     3    29    1
    33     4    30    1
    34     5    31    1
    35     6    32    1
    36     7    33    1
    37     8    34    1
    38     9    35    1
    39    10    36    1
    40    11    37    1
    41    12    38    1
    42    13    39    1
    43    20    40    1
    44    20    41    1
    45    21    42    1
    46    22    43    1
    47    22    44    1
    48    22    45    1
    49    25    46    1
