@<TRIPOS>MOLECULE
AE-907/30533028
 41 44 0 0 0
SMALL
USER_CHARGES

@<TRIPOS>ATOM
      1 C           1.2153    4.2483    6.3244 C.ar    1  LIG1       -0.1078
      2 C           1.5608    7.7759   -2.4181 C.ar    1  LIG1       -0.1050
      3 C           0.4084    4.1457    5.1914 C.ar    1  LIG1       -0.1040
      4 C           2.5976    4.3759    6.1869 C.ar    1  LIG1       -0.1079
      5 C           2.8961    7.5033   -2.7151 C.ar    1  LIG1       -0.1042
      6 C           0.8673    6.9671   -1.5178 C.ar    1  LIG1       -0.1033
      7 C          -0.0032    0.6610   -1.2337 C.ar    1  LIG1       -0.0917
      8 C           0.7452    1.2873   -2.2331 C.ar    1  LIG1       -0.0955
      9 C           0.9836    4.1703    3.9208 C.ar    1  LIG1       -0.0971
     10 C           3.1729    4.4005    4.9165 C.ar    1  LIG1       -0.1032
     11 C           3.5379    6.4217   -2.1117 C.ar    1  LIG1       -0.0996
     12 C           1.5091    5.8855   -0.9144 C.ar    1  LIG1       -0.0984
     13 C           0.1461    1.0206    0.1117 C.ar    1  LIG1       -0.0617
     14 C           1.6676    2.2932   -1.9265 C.ar    1  LIG1       -0.0714
     15 C           2.3658    4.2978    3.7834 C.ar    1  LIG1       -0.0851
     16 C           2.8445    5.6129   -1.2114 C.ar    1  LIG1       -0.0845
     17 C           1.0685    2.0292    0.4378 C.ar    1  LIG1       -0.0197
     18 C           1.7996    2.6349   -0.5802 C.ar    1  LIG1       -0.0265
     19 C           2.3137    3.4707    1.4027 C.ar    1  LIG1        0.0109
     20 C           2.9939    4.3245    2.3981 C.3     1  LIG1        0.0424
     21 C           3.5362    4.4458   -0.5603 C.3     1  LIG1        0.0153
     22 N           1.4012    2.5613    1.6623 N.ar    1  LIG1       -0.3744
     23 N           2.5877    3.5526    0.0657 N.ar    1  LIG1       -0.3377
     24 H           0.7672    4.2305    7.3135 H       1  LIG1        0.1152
     25 H           1.0615    8.6188   -2.8870 H       1  LIG1        0.1193
     26 H          -0.6680    4.0474    5.2981 H       1  LIG1        0.1173
     27 H           3.2261    4.4569    7.0688 H       1  LIG1        0.1150
     28 H           3.4365    8.1336   -3.4153 H       1  LIG1        0.1186
     29 H          -0.1721    7.1797   -1.2856 H       1  LIG1        0.1182
     30 H          -0.7134   -0.1164   -1.5033 H       1  LIG1        0.1201
     31 H           0.6089    0.9876   -3.2694 H       1  LIG1        0.1242
     32 H           0.3471    4.0895    3.0436 H       1  LIG1        0.1248
     33 H           4.2507    4.5001    4.8190 H       1  LIG1        0.1121
     34 H           4.5785    6.2168   -2.3492 H       1  LIG1        0.1188
     35 H           0.9608    5.2608   -0.2143 H       1  LIG1        0.1195
     36 H          -0.4407    0.5283    0.8803 H       1  LIG1        0.1400
     37 H           2.2474    2.7795   -2.7031 H       1  LIG1        0.1218
     38 H           3.0375    5.3795    2.0583 H       1  LIG1        0.1171
     39 H           4.0639    4.0495    2.4975 H       1  LIG1        0.1309
     40 H           4.1172    3.8714   -1.2920 H       1  LIG1        0.1378
     41 H           4.2461    4.7827    0.2050 H       1  LIG1        0.1393
@<TRIPOS>BOND
     1     1     3   ar
     2     1     4   ar
     3     2     5   ar
     4     2     6   ar
     5     3     9   ar
     6     4    10   ar
     7     5    11   ar
     8     6    12   ar
     9     7     8   ar
    10     7    13   ar
    11     8    14   ar
    12     9    15   ar
    13    10    15   ar
    14    11    16   ar
    15    12    16   ar
    16    13    17   ar
    17    14    18   ar
    18    15    20    1
    19    16    21    1
    20    17    18   ar
    21    17    22   ar
    22    18    23   ar
    23    19    20    1
    24    19    22   ar
    25    19    23   ar
    26    21    23    1
    27     1    24    1
    28     2    25    1
    29     3    26    1
    30     4    27    1
    31     5    28    1
    32     6    29    1
    33     7    30    1
    34     8    31    1
    35     9    32    1
    36    10    33    1
    37    11    34    1
    38    12    35    1
    39    13    36    1
    40    14    37    1
    41    20    38    1
    42    20    39    1
    43    21    40    1
    44    21    41    1
