@<TRIPOS>MOLECULE
AG-205/33127035
 45 48 0 0 0
SMALL
USER_CHARGES

@<TRIPOS>ATOM
      1 C           0.9784    6.6822   -1.3514 C.ar    1  LIG1       -0.1017
      2 C           1.8973    7.3838   -2.1316 C.ar    1  LIG1       -0.1040
      3 C           1.6166    1.1979   -2.5914 C.ar    1  LIG1       -0.0873
      4 C           3.0579    3.9785    4.7907 C.ar    1  LIG1       -0.0653
      5 C           0.9372    4.9832    4.2159 C.ar    1  LIG1       -0.0633
      6 C           1.4031    5.6069   -0.5710 C.ar    1  LIG1       -0.0857
      7 C           2.2218    1.9680   -1.5984 C.ar    1  LIG1       -0.0498
      8 C           3.2413    7.0100   -2.1316 C.ar    1  LIG1       -0.0709
      9 C           0.2704    0.8497   -2.4806 C.ar    1  LIG1       -0.0766
     10 C           2.8455    4.2971    6.1319 C.ar    1  LIG1       -0.0658
     11 C           0.7247    5.3018    5.5572 C.ar    1  LIG1       -0.0647
     12 C           0.1347    2.0418   -0.3835 C.ar    1  LIG1       -0.0291
     13 C           2.1039    4.3216    3.8326 C.ar    1  LIG1       -0.0287
     14 C           2.7470    5.2331   -0.5709 C.ar    1  LIG1       -0.0367
     15 C           1.4809    2.3900   -0.4944 C.ar    1  LIG1       -0.0162
     16 C           3.6661    5.9347   -1.3513 C.ar    1  LIG1       -0.0071
     17 C           1.6788    4.9588    6.5152 C.ar    1  LIG1       -0.0133
     18 C          -0.4706    1.2717   -1.3767 C.ar    1  LIG1       -0.0108
     19 C           2.3250    3.9893    2.4342 C.2     1  LIG1        0.0130
     20 C           3.5179    4.5300    1.6950 C.3     1  LIG1        0.0324
     21 C           3.1840    4.0786    0.2707 C.3     1  LIG1        0.0305
     22 C           5.3874    4.6242   -2.3390 C.3     1  LIG1        0.0240
     23 N           1.5584    3.2087    1.7403 N.2     1  LIG1       -0.3203
     24 N           2.0758    3.1460    0.4809 N.pl3   1  LIG1       -0.3186
     25 O           4.9821    5.5820   -1.3632 O.3     1  LIG1       -0.4164
     26 CL          1.4161    5.3504    8.1698 Cl      1  LIG1       -0.1408
     27 CL         -2.1311    0.8408   -1.2403 Cl      1  LIG1       -0.1383
     28 H          -0.0684    6.9726   -1.3515 H       1  LIG1        0.1120
     29 H           1.5661    8.2203   -2.7397 H       1  LIG1        0.1256
     30 H           2.1942    0.8692   -3.4504 H       1  LIG1        0.1353
     31 H           3.9708    3.4633    4.5029 H       1  LIG1        0.1416
     32 H           0.1870    5.2552    3.4780 H       1  LIG1        0.1460
     33 H           0.6790    5.0658    0.0323 H       1  LIG1        0.1309
     34 H           3.2712    2.2341   -1.6944 H       1  LIG1        0.1330
     35 H           3.9525    7.5603   -2.7416 H       1  LIG1        0.1127
     36 H          -0.1883    0.2491   -3.2620 H       1  LIG1        0.1216
     37 H           3.5970    4.0233    6.8679 H       1  LIG1        0.1366
     38 H          -0.1890    5.8177    5.8409 H       1  LIG1        0.1363
     39 H          -0.4393    2.3728    0.4794 H       1  LIG1        0.1326
     40 H           3.6212    5.6111    1.8224 H       1  LIG1        0.1024
     41 H           4.4140    4.0239    2.0701 H       1  LIG1        0.1004
     42 H           4.0422    3.5901   -0.2026 H       1  LIG1        0.1422
     43 H           6.4585    4.4326   -2.2396 H       1  LIG1        0.0897
     44 H           5.1659    5.0055   -3.3390 H       1  LIG1        0.1224
     45 H           4.8365    3.6950   -2.1752 H       1  LIG1        0.0895
@<TRIPOS>BOND
     1     1     2   ar
     2     1     6   ar
     3     2     8   ar
     4     3     7   ar
     5     3     9   ar
     6     4    10   ar
     7     4    13   ar
     8     5    11   ar
     9     5    13   ar
    10     6    14   ar
    11     7    15   ar
    12     8    16   ar
    13     9    18   ar
    14    10    17   ar
    15    11    17   ar
    16    12    15   ar
    17    12    18   ar
    18    13    19    1
    19    14    16   ar
    20    14    21    1
    21    15    24    1
    22    16    25    1
    23    17    26    1
    24    18    27    1
    25    19    20    1
    26    19    23    2
    27    20    21    1
    28    21    24    1
    29    22    25    1
    30    23    24    1
    31     1    28    1
    32     2    29    1
    33     3    30    1
    34     4    31    1
    35     5    32    1
    36     6    33    1
    37     7    34    1
    38     8    35    1
    39     9    36    1
    40    10    37    1
    41    11    38    1
    42    12    39    1
    43    20    40    1
    44    20    41    1
    45    21    42    1
    46    22    43    1
    47    22    44    1
    48    22    45    1
