@<TRIPOS>MOLECULE
AK-918/41777589
 39 41 0 0 0
SMALL
USER_CHARGES

@<TRIPOS>ATOM
      1 C           0.2069    0.6633   -1.8677 C.ar    1  LIG1       -0.1067
      2 C           2.0297    7.6015   -2.0613 C.ar    1  LIG1       -0.1063
      3 C           1.4995    0.9812   -2.2845 C.ar    1  LIG1       -0.1039
      4 C          -0.3881    1.3818   -0.8307 C.ar    1  LIG1       -0.1041
      5 C           3.0059    6.6763   -2.4311 C.ar    1  LIG1       -0.1023
      6 C           1.1605    7.3151   -1.0085 C.ar    1  LIG1       -0.1037
      7 C           2.1972    2.0175   -1.6641 C.ar    1  LIG1       -0.0945
      8 C           0.3097    2.4182   -0.2103 C.ar    1  LIG1       -0.0941
      9 C           3.1130    5.4648   -1.7483 C.ar    1  LIG1       -0.0896
     10 C           1.2675    6.1035   -0.3257 C.ar    1  LIG1       -0.0923
     11 C           0.5152    4.8530    5.1740 C.ar    1  LIG1       -0.0417
     12 C           1.3545    4.6067    6.2604 C.ar    1  LIG1       -0.0573
     13 C           3.1966    4.2115    4.7478 C.ar    1  LIG1       -0.0265
     14 C           2.3571    4.4578    3.6613 C.ar    1  LIG1        0.0844
     15 C           1.6023    2.7360   -0.6270 C.ar    1  LIG1       -0.0653
     16 C           2.2438    5.1783   -0.6954 C.ar    1  LIG1       -0.0612
     17 C           1.0165    4.7784    3.8743 C.ar    1  LIG1        0.0129
     18 C           2.6953    4.2860    6.0474 C.ar    1  LIG1       -0.0007
     19 C           2.8997    4.3725    2.3125 C.2     1  LIG1        0.1987
     20 C           2.3595    3.8613    0.0472 C.3     1  LIG1        0.0747
     21 O           4.0750    4.6193    2.0157 O.2     1  LIG1       -0.4349
     22 O           0.1801    5.0204    2.8258 O.3     1  LIG1       -0.4151
     23 O           1.9464    3.9833    1.4126 O.3     1  LIG1       -0.3221
     24 CL          3.7313    3.9841    7.3880 Cl      1  LIG1       -0.1379
     25 H          -0.3368   -0.1428   -2.3518 H       1  LIG1        0.1168
     26 H           1.9473    8.5454   -2.5923 H       1  LIG1        0.1170
     27 H           1.9625    0.4226   -3.0927 H       1  LIG1        0.1174
     28 H          -1.3948    1.1353   -0.5067 H       1  LIG1        0.1162
     29 H           3.6834    6.8997   -3.2500 H       1  LIG1        0.1173
     30 H           0.4011    8.0356   -0.7197 H       1  LIG1        0.1180
     31 H           3.2041    2.2581   -1.9953 H       1  LIG1        0.1212
     32 H          -0.1618    2.9724    0.5969 H       1  LIG1        0.1224
     33 H           3.8765    4.7499   -2.0435 H       1  LIG1        0.1262
     34 H           0.5860    5.8889    0.4932 H       1  LIG1        0.1210
     35 H          -0.5285    5.1018    5.3461 H       1  LIG1        0.1460
     36 H           0.9504    4.6696    7.2674 H       1  LIG1        0.1525
     37 H           4.2418    3.9606    4.5792 H       1  LIG1        0.1635
     38 H           3.4196    3.5829    0.1069 H       1  LIG1        0.1608
     39 H           0.6605    4.9341    1.9878 H       1  LIG1        0.3734
@<TRIPOS>BOND
     1     1     3   ar
     2     1     4   ar
     3     2     5   ar
     4     2     6   ar
     5     3     7   ar
     6     4     8   ar
     7     5     9   ar
     8     6    10   ar
     9     7    15   ar
    10     8    15   ar
    11     9    16   ar
    12    10    16   ar
    13    11    12   ar
    14    11    17   ar
    15    12    18   ar
    16    13    14   ar
    17    13    18   ar
    18    14    17   ar
    19    14    19    1
    20    15    20    1
    21    16    20    1
    22    17    22    1
    23    18    24    1
    24    19    21    2
    25    19    23    1
    26    20    23    1
    27     1    25    1
    28     2    26    1
    29     3    27    1
    30     4    28    1
    31     5    29    1
    32     6    30    1
    33     7    31    1
    34     8    32    1
    35     9    33    1
    36    10    34    1
    37    11    35    1
    38    12    36    1
    39    13    37    1
    40    20    38    1
    41    22    39    1
