@<TRIPOS>MOLECULE
AK-968/36802051
 39 41 0 0 0
SMALL
USER_CHARGES

@<TRIPOS>ATOM
      1 C           0.2351    0.5625   -1.7768 C.ar    1  LIG1       -0.1025
      2 C           2.3866    7.5443   -2.2017 C.ar    1  LIG1       -0.0830
      3 C           1.5535    0.8427   -2.1361 C.ar    1  LIG1       -0.1000
      4 C          -0.4191    1.3662   -0.8430 C.ar    1  LIG1       -0.0996
      5 C           1.1223    7.1006   -1.7809 C.ar    1  LIG1       -0.0826
      6 C           3.5321    6.8101   -1.8957 C.ar    1  LIG1       -0.0640
      7 C           2.2177    1.9264   -1.5616 C.ar    1  LIG1       -0.0867
      8 C           0.2451    2.4499   -0.2685 C.ar    1  LIG1       -0.0848
      9 C           0.9889    5.9155   -1.0504 C.ar    1  LIG1       -0.0673
     10 C           3.3663    5.6420   -1.1734 C.ar    1  LIG1        0.0488
     11 C           1.5634    2.7301   -0.6278 C.ar    1  LIG1       -0.0302
     12 C           2.1303    5.1864   -0.7559 C.ar    1  LIG1       -0.0011
     13 C           4.3909    4.7148   -0.7260 C.2     1  LIG1        0.2096
     14 C           2.2878    3.9128   -0.0003 C.3     1  LIG1        0.1460
     15 C           1.8686    3.9460    5.6624 C.3     1  LIG1       -0.0722
     16 C           2.2807    3.7557    4.2115 C.3     1  LIG1       -0.0694
     17 C           2.4279    5.0933    3.4918 C.3     1  LIG1       -0.0430
     18 C           2.8822    4.9092    2.0509 C.3     1  LIG1        0.0124
     19 O           5.5877    4.8040   -0.9139 O.2     1  LIG1       -0.4074
     20 O           3.7340    3.7200   -0.0536 O.3     1  LIG1       -0.2799
     21 O           1.9099    4.1376    1.3576 O.3     1  LIG1       -0.4034
     22 H          -0.2824   -0.2806   -2.2252 H       1  LIG1        0.1225
     23 H           2.4710    8.4680   -2.7674 H       1  LIG1        0.1349
     24 H           2.0626    0.2177   -2.8639 H       1  LIG1        0.1210
     25 H          -1.4458    1.1490   -0.5639 H       1  LIG1        0.1215
     26 H           0.2396    7.6857   -2.0246 H       1  LIG1        0.1414
     27 H           4.5106    7.1504   -2.2147 H       1  LIG1        0.1496
     28 H           3.2448    2.1370   -1.8475 H       1  LIG1        0.1228
     29 H          -0.2725    3.0704    0.4581 H       1  LIG1        0.1306
     30 H           0.0098    5.5797   -0.7252 H       1  LIG1        0.1418
     31 H           0.9223    4.4917    5.7332 H       1  LIG1        0.0308
     32 H           1.7478    2.9813    6.1657 H       1  LIG1        0.0307
     33 H           2.6311    4.5170    6.2013 H       1  LIG1        0.0319
     34 H           3.2293    3.2075    4.1761 H       1  LIG1        0.0412
     35 H           1.5306    3.1392    3.7027 H       1  LIG1        0.0409
     36 H           1.4762    5.6390    3.5057 H       1  LIG1        0.0561
     37 H           3.1467    5.7319    4.0205 H       1  LIG1        0.0562
     38 H           2.9836    5.8756    1.5468 H       1  LIG1        0.0940
     39 H           3.8406    4.3820    2.0075 H       1  LIG1        0.0923
@<TRIPOS>BOND
     1     1     3   ar
     2     1     4   ar
     3     2     5   ar
     4     2     6   ar
     5     3     7   ar
     6     4     8   ar
     7     5     9   ar
     8     6    10   ar
     9     7    11   ar
    10     8    11   ar
    11     9    12   ar
    12    10    12   ar
    13    10    13    1
    14    11    14    1
    15    12    14    1
    16    13    19    2
    17    13    20    1
    18    14    20    1
    19    14    21    1
    20    15    16    1
    21    16    17    1
    22    17    18    1
    23    18    21    1
    24     1    22    1
    25     2    23    1
    26     3    24    1
    27     4    25    1
    28     5    26    1
    29     6    27    1
    30     7    28    1
    31     8    29    1
    32     9    30    1
    33    15    31    1
    34    15    32    1
    35    15    33    1
    36    16    34    1
    37    16    35    1
    38    17    36    1
    39    17    37    1
    40    18    38    1
    41    18    39    1
