@<TRIPOS>MOLECULE
AG-690/08559008
 43 46 0 0 0
SMALL
USER_CHARGES

@<TRIPOS>ATOM
      1 C           0.3821    0.6571   -1.9856 C.ar    1  LIG1       -0.1047
      2 C           2.1735    7.5049   -2.3963 C.ar    1  LIG1       -0.1041
      3 C          -0.3711    1.8152   -1.7931 C.ar    1  LIG1       -0.1002
      4 C           1.6839    0.5813   -1.4901 C.ar    1  LIG1       -0.1037
      5 C           1.0583    7.2530   -1.5974 C.ar    1  LIG1       -0.1029
      6 C           3.2594    6.6296   -2.3743 C.ar    1  LIG1       -0.0986
      7 C           0.1774    2.8976   -1.1052 C.ar    1  LIG1       -0.0870
      8 C           2.2323    1.6637   -0.8021 C.ar    1  LIG1       -0.0925
      9 C           1.0290    6.1257   -0.7762 C.ar    1  LIG1       -0.0894
     10 C           3.2301    5.5025   -1.5532 C.ar    1  LIG1       -0.0823
     11 C           3.1386    4.2020    4.8790 C.ar    1  LIG1       -0.0487
     12 C           2.9142    4.3659    6.2480 C.ar    1  LIG1       -0.0431
     13 C           0.7925    4.6408    4.3981 C.ar    1  LIG1       -0.0219
     14 C           1.4791    2.8219   -0.6097 C.ar    1  LIG1       -0.0423
     15 C           2.1149    5.2505   -0.7542 C.ar    1  LIG1       -0.0380
     16 C           2.0839    4.3387    3.9594 C.ar    1  LIG1       -0.0374
     17 C           1.6299    4.6638    6.6551 C.ar    1  LIG1        0.0316
     18 C           0.5976    4.7977    5.7551 C.ar    1  LIG1        0.0367
     19 C           1.4229    4.2654    1.5239 C.2     1  LIG1        0.1416
     20 C          -0.1793    5.1287    7.7473 C.3     1  LIG1        0.1116
     21 C           2.0835    4.0128    0.1473 C.3     1  LIG1        0.1274
     22 N           2.3307    4.1717    2.5959 N.am    1  LIG1       -0.3008
     23 O           0.2194    4.4883    1.6345 O.2     1  LIG1       -0.4563
     24 O           1.2243    4.8582    7.9395 O.3     1  LIG1       -0.3802
     25 O          -0.5837    5.0924    6.3632 O.3     1  LIG1       -0.3765
     26 O           3.4286    3.7176    0.5749 O.3     1  LIG1       -0.4358
     27 H          -0.0456   -0.1860   -2.5201 H       1  LIG1        0.1186
     28 H           2.1957    8.3819   -3.0366 H       1  LIG1        0.1199
     29 H          -1.3850    1.8740   -2.1779 H       1  LIG1        0.1186
     30 H           2.2702   -0.3205   -1.6388 H       1  LIG1        0.1181
     31 H           0.2123    7.9338   -1.6151 H       1  LIG1        0.1189
     32 H           4.1274    6.8249   -2.9971 H       1  LIG1        0.1198
     33 H          -0.4168    3.7960   -0.9601 H       1  LIG1        0.1259
     34 H           3.2473    1.5958   -0.4197 H       1  LIG1        0.1163
     35 H           0.1560    5.9376   -0.1569 H       1  LIG1        0.1195
     36 H           4.0808    4.8261   -1.5425 H       1  LIG1        0.1327
     37 H           4.1418    3.9659    4.5314 H       1  LIG1        0.1495
     38 H           3.7243    4.2606    6.9605 H       1  LIG1        0.1478
     39 H          -0.0314    4.7496    3.7007 H       1  LIG1        0.1469
     40 H          -0.7594    4.3821    8.3017 H       1  LIG1        0.2032
     41 H          -0.4046    6.1216    8.1531 H       1  LIG1        0.1689
     42 H           3.3000    3.9521    2.3417 H       1  LIG1        0.3310
     43 H           3.9244    3.5383   -0.2335 H       1  LIG1        0.3420
@<TRIPOS>BOND
     1     1     3   ar
     2     1     4   ar
     3     2     5   ar
     4     2     6   ar
     5     3     7   ar
     6     4     8   ar
     7     5     9   ar
     8     6    10   ar
     9     7    14   ar
    10     8    14   ar
    11     9    15   ar
    12    10    15   ar
    13    11    12   ar
    14    11    16   ar
    15    12    17   ar
    16    13    16   ar
    17    13    18   ar
    18    14    21    1
    19    15    21    1
    20    16    22    1
    21    17    18   ar
    22    17    24    1
    23    18    25    1
    24    19    21    1
    25    19    22   am
    26    19    23    2
    27    20    24    1
    28    20    25    1
    29    21    26    1
    30     1    27    1
    31     2    28    1
    32     3    29    1
    33     4    30    1
    34     5    31    1
    35     6    32    1
    36     7    33    1
    37     8    34    1
    38     9    35    1
    39    10    36    1
    40    11    37    1
    41    12    38    1
    42    13    39    1
    43    20    40    1
    44    20    41    1
    45    22    42    1
    46    26    43    1
