@<TRIPOS>MOLECULE
AE-562/12222379
 40 42 0 0 0
SMALL
USER_CHARGES

@<TRIPOS>ATOM
      1 C           0.6840    1.0545   -2.0860 C.ar    1  LIG1       -0.1093
      2 C           2.2227    6.9522   -2.6831 C.ar    1  LIG1       -0.1076
      3 C           1.6607    3.7197    6.0102 C.ar    1  LIG1       -0.1081
      4 C          -0.3453    1.7671   -1.4709 C.ar    1  LIG1       -0.1055
      5 C           1.9964    1.1956   -1.6350 C.ar    1  LIG1       -0.1066
      6 C           0.9990    6.9308   -2.0141 C.ar    1  LIG1       -0.1074
      7 C           3.3353    6.3252   -2.1221 C.ar    1  LIG1       -0.1017
      8 C           0.5734    4.3785    5.4362 C.ar    1  LIG1       -0.1059
      9 C           2.9058    3.7508    5.3821 C.ar    1  LIG1       -0.1067
     10 C          -0.0622    2.6211   -0.4049 C.ar    1  LIG1       -0.0946
     11 C           2.2795    2.0497   -0.5691 C.ar    1  LIG1       -0.0974
     12 C           0.8879    6.2826   -0.7840 C.ar    1  LIG1       -0.0972
     13 C           3.2242    5.6770   -0.8920 C.ar    1  LIG1       -0.0907
     14 C           0.7312    5.0683    4.2341 C.ar    1  LIG1       -0.0985
     15 C           3.0635    4.4405    4.1800 C.ar    1  LIG1       -0.0986
     16 C           1.2503    2.7624    0.0460 C.ar    1  LIG1       -0.0889
     17 C           2.0005    5.6557   -0.2229 C.ar    1  LIG1       -0.0828
     18 C           1.9763    5.0993    3.6060 C.ar    1  LIG1       -0.0776
     19 C           1.5460    3.6528    1.1575 C.2     1  LIG1       -0.0794
     20 C           1.8831    4.9672    1.0836 C.2     1  LIG1       -0.0609
     21 C           2.1484    5.8483    2.2996 C.3     1  LIG1        0.0222
     22 O           1.2994    6.9987    2.3321 O.3     1  LIG1       -0.4673
     23 H           0.4634    0.3886   -2.9150 H       1  LIG1        0.1131
     24 H           2.3090    7.4557   -3.6415 H       1  LIG1        0.1134
     25 H           1.5380    3.1839    6.9468 H       1  LIG1        0.1143
     26 H          -1.3675    1.6564   -1.8211 H       1  LIG1        0.1127
     27 H           2.7977    0.6399   -2.1130 H       1  LIG1        0.1135
     28 H           0.1322    7.4179   -2.4512 H       1  LIG1        0.1160
     29 H           4.2880    6.3407   -2.6434 H       1  LIG1        0.1161
     30 H          -0.3959    4.3555    5.9257 H       1  LIG1        0.1152
     31 H           3.7528    3.2389    5.8292 H       1  LIG1        0.1154
     32 H          -0.8752    3.1700    0.0643 H       1  LIG1        0.1278
     33 H           3.3076    2.1491   -0.2290 H       1  LIG1        0.1195
     34 H          -0.0727    6.2746   -0.2744 H       1  LIG1        0.1190
     35 H           4.1006    5.1930   -0.4677 H       1  LIG1        0.1208
     36 H          -0.1216    5.5785    3.7941 H       1  LIG1        0.1142
     37 H           4.0373    4.4592    3.6977 H       1  LIG1        0.1178
     38 H           1.4987    3.1757    2.1404 H       1  LIG1        0.1325
     39 H           3.1680    6.2498    2.2460 H       1  LIG1        0.1621
     40 H           1.5893    7.5286    3.0890 H       1  LIG1        0.3269
@<TRIPOS>BOND
     1     1     4   ar
     2     1     5   ar
     3     2     6   ar
     4     2     7   ar
     5     3     8   ar
     6     3     9   ar
     7     4    10   ar
     8     5    11   ar
     9     6    12   ar
    10     7    13   ar
    11     8    14   ar
    12     9    15   ar
    13    10    16   ar
    14    11    16   ar
    15    12    17   ar
    16    13    17   ar
    17    14    18   ar
    18    15    18   ar
    19    16    19    1
    20    17    20    1
    21    18    21    1
    22    19    20    2
    23    20    21    1
    24    21    22    1
    25     1    23    1
    26     2    24    1
    27     3    25    1
    28     4    26    1
    29     5    27    1
    30     6    28    1
    31     7    29    1
    32     8    30    1
    33     9    31    1
    34    10    32    1
    35    11    33    1
    36    12    34    1
    37    13    35    1
    38    14    36    1
    39    15    37    1
    40    19    38    1
    41    21    39    1
    42    22    40    1
