@<TRIPOS>MOLECULE
AG-205/07774042
 41 44 0 0 0
SMALL
USER_CHARGES

@<TRIPOS>ATOM
      1 C          -0.0154    1.0335   -1.6583 C.ar    1  LIG1       -0.1056
      2 C           1.0769    1.5189   -2.3772 C.ar    1  LIG1       -0.1030
      3 C          -0.1484    1.3356   -0.3031 C.ar    1  LIG1       -0.1045
      4 C           2.9214    6.3054   -2.9882 C.ar    1  LIG1       -0.0877
      5 C           2.9093    3.6006    4.7216 C.ar    1  LIG1       -0.0648
      6 C           0.9746    4.9878    4.3096 C.ar    1  LIG1       -0.0626
      7 C           2.0364    2.3063   -1.7408 C.ar    1  LIG1       -0.0963
      8 C           0.8111    2.1231    0.3334 C.ar    1  LIG1       -0.0977
      9 C           3.0980    5.4745   -1.8818 C.ar    1  LIG1       -0.0510
     10 C           1.9731    7.3276   -2.9485 C.ar    1  LIG1       -0.0840
     11 C           2.6326    3.6207    6.0886 C.ar    1  LIG1       -0.0736
     12 C           0.6979    5.0080    5.6767 C.ar    1  LIG1       -0.0723
     13 C           1.3776    6.6878   -0.6961 C.ar    1  LIG1       -0.0332
     14 C           2.0803    4.2842    3.8321 C.ar    1  LIG1       -0.0278
     15 C           1.9035    2.6085   -0.3856 C.ar    1  LIG1       -0.0818
     16 C           2.3260    5.6656   -0.7357 C.ar    1  LIG1       -0.0153
     17 C           1.5270    4.3244    6.5662 C.ar    1  LIG1       -0.0382
     18 C           1.2012    7.5187   -1.8024 C.ar    1  LIG1       -0.0342
     19 C           2.3687    4.2633    2.4070 C.2     1  LIG1        0.0133
     20 C           3.0524    3.0807    1.7773 C.3     1  LIG1        0.0314
     21 C           2.9311    3.4516    0.2968 C.3     1  LIG1        0.0221
     22 N           2.0961    5.2348    1.5939 N.2     1  LIG1       -0.3201
     23 N           2.4997    4.8492    0.3505 N.pl3   1  LIG1       -0.3192
     24 BR          1.1522    4.3516    8.4183 Br      1  LIG1       -0.1084
     25 BR         -0.0836    8.9039   -1.7495 Br      1  LIG1       -0.1057
     26 H          -0.7632    0.4215   -2.1542 H       1  LIG1        0.1174
     27 H           1.1800    1.2847   -3.4327 H       1  LIG1        0.1165
     28 H          -0.9993    0.9588    0.2568 H       1  LIG1        0.1178
     29 H           3.5224    6.1566   -3.8804 H       1  LIG1        0.1349
     30 H           3.7735    3.0491    4.3604 H       1  LIG1        0.1406
     31 H           0.3220    5.5239    3.6254 H       1  LIG1        0.1451
     32 H           2.8842    2.6800   -2.3088 H       1  LIG1        0.1169
     33 H           0.6994    2.3532    1.3896 H       1  LIG1        0.1198
     34 H           3.8398    4.6811   -1.9236 H       1  LIG1        0.1272
     35 H           1.8481    7.9661   -3.8191 H       1  LIG1        0.1236
     36 H           3.2886    3.0829    6.7684 H       1  LIG1        0.1384
     37 H          -0.1676    5.5609    6.0324 H       1  LIG1        0.1383
     38 H           0.7784    6.8322    0.2004 H       1  LIG1        0.1428
     39 H           4.0995    3.0769    2.0987 H       1  LIG1        0.1011
     40 H           2.5744    2.1375    2.0560 H       1  LIG1        0.1016
     41 H           3.8903    3.3420   -0.2200 H       1  LIG1        0.1377
@<TRIPOS>BOND
     1     1     2   ar
     2     1     3   ar
     3     2     7   ar
     4     3     8   ar
     5     4     9   ar
     6     4    10   ar
     7     5    11   ar
     8     5    14   ar
     9     6    12   ar
    10     6    14   ar
    11     7    15   ar
    12     8    15   ar
    13     9    16   ar
    14    10    18   ar
    15    11    17   ar
    16    12    17   ar
    17    13    16   ar
    18    13    18   ar
    19    14    19    1
    20    15    21    1
    21    16    23    1
    22    17    24    1
    23    18    25    1
    24    19    20    1
    25    19    22    2
    26    20    21    1
    27    21    23    1
    28    22    23    1
    29     1    26    1
    30     2    27    1
    31     3    28    1
    32     4    29    1
    33     5    30    1
    34     6    31    1
    35     7    32    1
    36     8    33    1
    37     9    34    1
    38    10    35    1
    39    11    36    1
    40    12    37    1
    41    13    38    1
    42    20    39    1
    43    20    40    1
    44    21    41    1
