@<TRIPOS>MOLECULE
AN-652/13447009
 44 46 0 0 0
SMALL
USER_CHARGES

@<TRIPOS>ATOM
      1 C           1.4333    4.5906    6.2106 C.ar    1  LIG1       -0.0979
      2 C           0.1346    0.7034   -1.9999 C.ar    1  LIG1       -0.1024
      3 C           1.9547    7.5805   -1.8006 C.ar    1  LIG1       -0.1044
      4 C           2.7701    4.3217    5.9171 C.ar    1  LIG1       -0.0914
      5 C           0.5399    4.8894    5.1819 C.ar    1  LIG1       -0.0932
      6 C           1.4406    0.9642   -2.4147 C.ar    1  LIG1       -0.0997
      7 C          -0.4117    1.4114   -0.9295 C.ar    1  LIG1       -0.0982
      8 C           1.1138    7.1785   -0.7630 C.ar    1  LIG1       -0.1017
      9 C           2.9672    6.7310   -2.2468 C.ar    1  LIG1       -0.0982
     10 C           3.2136    4.3516    4.5950 C.ar    1  LIG1       -0.0631
     11 C           0.9833    4.9194    3.8597 C.ar    1  LIG1       -0.0651
     12 C           2.2001    1.9332   -1.7591 C.ar    1  LIG1       -0.0853
     13 C           0.3478    2.3804   -0.2739 C.ar    1  LIG1       -0.0819
     14 C           1.2854    5.9270   -0.1713 C.ar    1  LIG1       -0.0885
     15 C           3.1387    5.4796   -1.6551 C.ar    1  LIG1       -0.0818
     16 C           2.3202    4.6505    3.5663 C.ar    1  LIG1        0.0414
     17 C           1.6538    2.6413   -0.6886 C.ar    1  LIG1       -0.0269
     18 C           2.2978    5.0775   -0.6174 C.ar    1  LIG1       -0.0285
     19 C           2.7827    4.6817    2.1877 C.2     1  LIG1        0.1954
     20 C           3.9612    3.3298    0.2023 C.2     1  LIG1        0.2146
     21 C           5.4207    1.7671    1.2285 C.3     1  LIG1        0.0366
     22 C           2.4867    3.7044    0.0314 C.3     1  LIG1        0.1891
     23 O           3.6679    5.4362    1.7630 O.2     1  LIG1       -0.4411
     24 O           4.9035    3.9690   -0.2500 O.2     1  LIG1       -0.4336
     25 O           2.1182    3.7704    1.4133 O.3     1  LIG1       -0.2816
     26 O           4.0817    2.1982    0.9653 O.3     1  LIG1       -0.3507
     27 H           1.0880    4.5673    7.2400 H       1  LIG1        0.1297
     28 H          -0.4572   -0.0502   -2.5113 H       1  LIG1        0.1221
     29 H           1.8201    8.5544   -2.2621 H       1  LIG1        0.1211
     30 H           3.4657    4.0891    6.7182 H       1  LIG1        0.1247
     31 H          -0.5011    5.0985    5.4103 H       1  LIG1        0.1233
     32 H           1.8659    0.4138   -3.2488 H       1  LIG1        0.1219
     33 H          -1.4289    1.2094   -0.6070 H       1  LIG1        0.1218
     34 H           0.3247    7.8394   -0.4162 H       1  LIG1        0.1166
     35 H           3.6213    7.0432   -3.0554 H       1  LIG1        0.1166
     36 H           4.2575    4.1404    4.3775 H       1  LIG1        0.1445
     37 H           0.2783    5.1535    3.0662 H       1  LIG1        0.1423
     38 H           3.2169    2.1296   -2.0890 H       1  LIG1        0.1261
     39 H          -0.0862    2.9270    0.5592 H       1  LIG1        0.1353
     40 H           0.6255    5.6223    0.6367 H       1  LIG1        0.1276
     41 H           3.9303    4.8244   -2.0092 H       1  LIG1        0.1430
     42 H           5.3992    0.8624    1.8409 H       1  LIG1        0.1259
     43 H           5.9638    2.5597    1.7493 H       1  LIG1        0.0975
     44 H           5.9174    1.5504    0.2798 H       1  LIG1        0.0982
@<TRIPOS>BOND
     1     1     4   ar
     2     1     5   ar
     3     2     6   ar
     4     2     7   ar
     5     3     8   ar
     6     3     9   ar
     7     4    10   ar
     8     5    11   ar
     9     6    12   ar
    10     7    13   ar
    11     8    14   ar
    12     9    15   ar
    13    10    16   ar
    14    11    16   ar
    15    12    17   ar
    16    13    17   ar
    17    14    18   ar
    18    15    18   ar
    19    16    19    1
    20    17    22    1
    21    18    22    1
    22    19    23    2
    23    19    25    1
    24    20    22    1
    25    20    24    2
    26    20    26    1
    27    21    26    1
    28    22    25    1
    29     1    27    1
    30     2    28    1
    31     3    29    1
    32     4    30    1
    33     5    31    1
    34     6    32    1
    35     7    33    1
    36     8    34    1
    37     9    35    1
    38    10    36    1
    39    11    37    1
    40    12    38    1
    41    13    39    1
    42    14    40    1
    43    15    41    1
    44    21    42    1
    45    21    43    1
    46    21    44    1
