@<TRIPOS>MOLECULE
AP-263/13581480
 39 41 0 0 0
SMALL
USER_CHARGES

@<TRIPOS>ATOM
      1 C           0.3763    0.5966   -1.9148 C.ar    1  LIG1       -0.1079
      2 C           2.2053    7.5756   -2.3376 C.ar    1  LIG1       -0.1056
      3 C           1.7077    0.9493   -2.1351 C.ar    1  LIG1       -0.1063
      4 C          -0.4100    1.3504   -1.0433 C.ar    1  LIG1       -0.1022
      5 C           3.1754    6.5856   -2.4940 C.ar    1  LIG1       -0.1043
      6 C           1.1852    7.4107   -1.4006 C.ar    1  LIG1       -0.1041
      7 C           0.5775    4.8244    5.7085 C.ar    1  LIG1       -0.0909
      8 C           1.6207    4.6703    6.6216 C.ar    1  LIG1       -0.0942
      9 C           2.2530    2.0557   -1.4838 C.ar    1  LIG1       -0.0972
     10 C           0.1354    2.4568   -0.3921 C.ar    1  LIG1       -0.0917
     11 C           3.1254    5.4306   -1.7134 C.ar    1  LIG1       -0.0991
     12 C           1.1353    6.2558   -0.6200 C.ar    1  LIG1       -0.0985
     13 C           0.8126    4.6488    4.3448 C.ar    1  LIG1       -0.0558
     14 C           2.8989    4.3405    6.1710 C.ar    1  LIG1       -0.0458
     15 C           1.4669    2.8095   -0.6123 C.ar    1  LIG1       -0.0682
     16 C           2.1053    5.2657   -0.7763 C.ar    1  LIG1       -0.0750
     17 C           2.0908    4.3191    3.8942 C.ar    1  LIG1       -0.0023
     18 C           3.1339    4.1649    4.8073 C.ar    1  LIG1        0.0897
     19 C           1.4087    4.2661    1.4681 C.2     1  LIG1        0.1122
     20 C           2.0494    3.9925    0.0846 C.3     1  LIG1        0.0880
     21 N           2.3262    4.1413    2.5102 N.am    1  LIG1       -0.3024
     22 O           0.2181    4.5491    1.5681 O.2     1  LIG1       -0.4654
     23 F           4.3668    3.8480    4.3859 F       1  LIG1       -0.2669
     24 H          -0.0486   -0.2641   -2.4230 H       1  LIG1        0.1148
     25 H           2.2451    8.4753   -2.9446 H       1  LIG1        0.1176
     26 H           2.3196    0.3631   -2.8144 H       1  LIG1        0.1145
     27 H          -1.4469    1.0768   -0.8724 H       1  LIG1        0.1150
     28 H           3.9703    6.7141   -3.2227 H       1  LIG1        0.1177
     29 H           0.4304    8.1817   -1.2778 H       1  LIG1        0.1186
     30 H          -0.4173    5.0819    6.0597 H       1  LIG1        0.1276
     31 H           1.4378    4.8075    7.6833 H       1  LIG1        0.1262
     32 H           3.2914    2.3229   -1.6614 H       1  LIG1        0.1183
     33 H          -0.4847    3.0382    0.2852 H       1  LIG1        0.1243
     34 H           3.8853    4.6644   -1.8421 H       1  LIG1        0.1178
     35 H           0.3367    6.1359    0.1075 H       1  LIG1        0.1211
     36 H          -0.0080    4.7718    3.6426 H       1  LIG1        0.1532
     37 H           3.7108    4.2207    6.8818 H       1  LIG1        0.1349
     38 H           3.1114    3.7702    0.3252 H       1  LIG1        0.1458
     39 H           3.2841    3.9022    2.2623 H       1  LIG1        0.3271
@<TRIPOS>BOND
     1     1     3   ar
     2     1     4   ar
     3     2     5   ar
     4     2     6   ar
     5     3     9   ar
     6     4    10   ar
     7     5    11   ar
     8     6    12   ar
     9     7     8   ar
    10     7    13   ar
    11     8    14   ar
    12     9    15   ar
    13    10    15   ar
    14    11    16   ar
    15    12    16   ar
    16    13    17   ar
    17    14    18   ar
    18    15    20    1
    19    16    20    1
    20    17    18   ar
    21    17    21    1
    22    18    23    1
    23    19    20    1
    24    19    21   am
    25    19    22    2
    26     1    24    1
    27     2    25    1
    28     3    26    1
    29     4    27    1
    30     5    28    1
    31     6    29    1
    32     7    30    1
    33     8    31    1
    34     9    32    1
    35    10    33    1
    36    11    34    1
    37    12    35    1
    38    13    36    1
    39    14    37    1
    40    20    38    1
    41    21    39    1
