@<TRIPOS>MOLECULE
AG-690/40144152
 41 44 0 0 0
SMALL
USER_CHARGES

@<TRIPOS>ATOM
      1 C          -0.0155    1.0339   -1.6584 C.ar    1  LIG1       -0.1056
      2 C           1.0770    1.5190   -2.3773 C.ar    1  LIG1       -0.1030
      3 C          -0.1485    1.3360   -0.3032 C.ar    1  LIG1       -0.1044
      4 C           2.9211    6.3056   -2.9883 C.ar    1  LIG1       -0.0871
      5 C           2.9092    3.6004    4.7217 C.ar    1  LIG1       -0.0647
      6 C           0.9748    4.9880    4.3096 C.ar    1  LIG1       -0.0626
      7 C           2.0366    2.3062   -1.7408 C.ar    1  LIG1       -0.0963
      8 C           0.8111    2.1233    0.3333 C.ar    1  LIG1       -0.0975
      9 C           3.0984    5.4748   -1.8820 C.ar    1  LIG1       -0.0529
     10 C           1.9722    7.3273   -2.9483 C.ar    1  LIG1       -0.0527
     11 C           2.6324    3.6206    6.0887 C.ar    1  LIG1       -0.0734
     12 C           0.6980    5.0082    5.6766 C.ar    1  LIG1       -0.0723
     13 C           1.3779    6.6872   -0.6958 C.ar    1  LIG1       -0.0029
     14 C           2.0804    4.2841    3.8321 C.ar    1  LIG1       -0.0277
     15 C           1.9036    2.6084   -0.3856 C.ar    1  LIG1       -0.0816
     16 C           2.3268    5.6655   -0.7357 C.ar    1  LIG1       -0.0153
     17 C           1.2006    7.5180   -1.8021 C.ar    1  LIG1        0.0681
     18 C           1.5268    4.3245    6.5661 C.ar    1  LIG1       -0.0381
     19 C           2.3690    4.2632    2.4070 C.2     1  LIG1        0.0134
     20 C           3.0525    3.0805    1.7774 C.3     1  LIG1        0.0317
     21 C           2.9313    3.4514    0.2969 C.3     1  LIG1        0.0228
     22 N           2.0966    5.2347    1.5939 N.2     1  LIG1       -0.3198
     23 N           2.5003    4.8490    0.3505 N.pl3   1  LIG1       -0.3186
     24 F           0.2906    8.5001   -1.7633 F       1  LIG1       -0.2641
     25 BR          1.1519    4.3518    8.4182 Br      1  LIG1       -0.1082
     26 H          -0.7633    0.4220   -2.1544 H       1  LIG1        0.1174
     27 H           1.1801    1.2848   -3.4327 H       1  LIG1        0.1165
     28 H          -0.9996    0.9594    0.2565 H       1  LIG1        0.1179
     29 H           3.5224    6.1576   -3.8807 H       1  LIG1        0.1386
     30 H           3.7733    3.0488    4.3606 H       1  LIG1        0.1408
     31 H           0.3224    5.5242    3.6253 H       1  LIG1        0.1451
     32 H           2.8845    2.6798   -2.3087 H       1  LIG1        0.1168
     33 H           0.6993    2.3535    1.3895 H       1  LIG1        0.1201
     34 H           3.8402    4.6815   -1.9242 H       1  LIG1        0.1227
     35 H           1.8344    7.9743   -3.8095 H       1  LIG1        0.1200
     36 H           3.2882    3.0826    6.7685 H       1  LIG1        0.1386
     37 H          -0.1674    5.5614    6.0322 H       1  LIG1        0.1383
     38 H           0.7706    6.8448    0.1918 H       1  LIG1        0.1381
     39 H           4.0995    3.0764    2.0989 H       1  LIG1        0.1014
     40 H           2.5743    2.1373    2.0560 H       1  LIG1        0.1020
     41 H           3.8906    3.3416   -0.2198 H       1  LIG1        0.1385
@<TRIPOS>BOND
     1     1     2   ar
     2     1     3   ar
     3     2     7   ar
     4     3     8   ar
     5     4     9   ar
     6     4    10   ar
     7     5    11   ar
     8     5    14   ar
     9     6    12   ar
    10     6    14   ar
    11     7    15   ar
    12     8    15   ar
    13     9    16   ar
    14    10    17   ar
    15    11    18   ar
    16    12    18   ar
    17    13    16   ar
    18    13    17   ar
    19    14    19    1
    20    15    21    1
    21    16    23    1
    22    17    24    1
    23    18    25    1
    24    19    20    1
    25    19    22    2
    26    20    21    1
    27    21    23    1
    28    22    23    1
    29     1    26    1
    30     2    27    1
    31     3    28    1
    32     4    29    1
    33     5    30    1
    34     6    31    1
    35     7    32    1
    36     8    33    1
    37     9    34    1
    38    10    35    1
    39    11    36    1
    40    12    37    1
    41    13    38    1
    42    20    39    1
    43    20    40    1
    44    21    41    1
