@<TRIPOS>MOLECULE
AF-399/41012267
 50 51 0 0 0
SMALL
USER_CHARGES

@<TRIPOS>ATOM
      1 C           1.0652    4.6529    6.4358 C.ar    1  LIG1       -0.1078
      2 C           2.4140    4.2977    6.4529 C.ar    1  LIG1       -0.1059
      3 C           0.4057    4.8292    5.2195 C.ar    1  LIG1       -0.1038
      4 C           3.1033    4.1190    5.2535 C.ar    1  LIG1       -0.0967
      5 C           1.0949    4.6506    4.0201 C.ar    1  LIG1       -0.0936
      6 C          -0.6165    1.6726   -0.9260 C.ar    1  LIG1       -0.0753
      7 C           1.2678    0.8146   -2.1713 C.ar    1  LIG1       -0.0719
      8 C           0.2179    2.6001   -0.3023 C.ar    1  LIG1       -0.0844
      9 C           2.1022    1.7422   -1.5476 C.ar    1  LIG1       -0.0795
     10 C           2.4437    4.2954    4.0370 C.ar    1  LIG1       -0.0778
     11 C          -0.0916    0.7798   -1.8605 C.ar    1  LIG1       -0.0713
     12 C           1.5773    2.6349   -0.6131 C.ar    1  LIG1        0.1068
     13 C           3.4860    5.7799   -2.2557 C.3     1  LIG1       -0.0741
     14 C           1.5394    7.3090   -1.9232 C.3     1  LIG1       -0.0752
     15 C          -2.3490   -0.2028   -2.1751 C.3     1  LIG1       -0.0346
     16 C          -0.4017   -1.0808   -3.4736 C.3     1  LIG1       -0.0343
     17 C           3.1846    4.1036    2.7463 C.3     1  LIG1        0.0516
     18 C           2.0701    5.8944   -1.6827 C.3     1  LIG1       -0.0277
     19 C           2.0509    5.4792   -0.2014 C.3     1  LIG1        0.1822
     20 N          -0.9352   -0.1584   -2.4911 N.pl3   1  LIG1       -0.4213
     21 O           4.1121    3.6645   -0.0814 O.2     1  LIG1       -0.3480
     22 O           2.8717    6.3395    0.5796 O.3     1  LIG1       -0.4852
     23 O           2.2787    3.6525    1.7560 O.3     1  LIG1       -0.3018
     24 P           2.6339    3.8096    0.1754 P.3     1  LIG1        0.1932
     25 H           0.5283    4.7907    7.3698 H       1  LIG1        0.1158
     26 H           2.9274    4.1593    7.3999 H       1  LIG1        0.1139
     27 H          -0.6447    5.1047    5.2059 H       1  LIG1        0.1164
     28 H           4.1541    3.8425    5.2763 H       1  LIG1        0.1200
     29 H           0.5730    4.7904    3.0772 H       1  LIG1        0.1275
     30 H          -1.6743    1.6545   -0.6764 H       1  LIG1        0.1122
     31 H           1.6877    0.1229   -2.8970 H       1  LIG1        0.1155
     32 H          -0.1948    3.2930    0.4252 H       1  LIG1        0.1278
     33 H           3.1601    1.7659   -1.7931 H       1  LIG1        0.1386
     34 H           4.1845    6.4489   -1.7419 H       1  LIG1        0.0374
     35 H           3.4952    6.0378   -3.3202 H       1  LIG1        0.0372
     36 H           3.8625    4.7560   -2.1596 H       1  LIG1        0.0316
     37 H           2.1486    8.0435   -1.3849 H       1  LIG1        0.0331
     38 H           0.5064    7.4213   -1.5788 H       1  LIG1        0.0330
     39 H           1.5791    7.5732   -2.9834 H       1  LIG1        0.0360
     40 H          -2.8395   -0.9877   -2.7568 H       1  LIG1        0.0804
     41 H          -2.8192    0.7557   -2.4106 H       1  LIG1        0.0942
     42 H          -2.4921   -0.4116   -1.1115 H       1  LIG1        0.0939
     43 H          -1.1971   -1.7282   -3.8520 H       1  LIG1        0.0817
     44 H           0.3754   -1.7045   -3.0236 H       1  LIG1        0.0936
     45 H           0.0328   -0.5301   -4.3122 H       1  LIG1        0.0944
     46 H           3.6402    5.0423    2.4129 H       1  LIG1        0.1323
     47 H           3.9846    3.3648    2.8647 H       1  LIG1        0.1155
     48 H           1.4285    5.2017   -2.2404 H       1  LIG1        0.0418
     49 H           1.0267    5.5721    0.1774 H       1  LIG1        0.1352
     50 H           2.5263    7.2437    0.4915 H       1  LIG1        0.3142
@<TRIPOS>BOND
     1     1     2   ar
     2     1     3   ar
     3     2     4   ar
     4     3     5   ar
     5     4    10   ar
     6     5    10   ar
     7     6     8   ar
     8     6    11   ar
     9     7     9   ar
    10     7    11   ar
    11     8    12   ar
    12     9    12   ar
    13    10    17    1
    14    11    20    1
    15    12    24    1
    16    13    18    1
    17    14    18    1
    18    15    20    1
    19    16    20    1
    20    17    23    1
    21    18    19    1
    22    19    22    1
    23    19    24    1
    24    21    24    2
    25    23    24    1
    26     1    25    1
    27     2    26    1
    28     3    27    1
    29     4    28    1
    30     5    29    1
    31     6    30    1
    32     7    31    1
    33     8    32    1
    34     9    33    1
    35    13    34    1
    36    13    35    1
    37    13    36    1
    38    14    37    1
    39    14    38    1
    40    14    39    1
    41    15    40    1
    42    15    41    1
    43    15    42    1
    44    16    43    1
    45    16    44    1
    46    16    45    1
    47    17    46    1
    48    17    47    1
    49    18    48    1
    50    19    49    1
    51    22    50    1
