@<TRIPOS>MOLECULE
AO-476/41144912
 44 48 0 0 0
SMALL
USER_CHARGES

@<TRIPOS>ATOM
      1 C           0.2999    0.8318   -2.6123 C.ar    1  LIG1       -0.1094
      2 C           0.8276    4.2862    5.7458 C.ar    1  LIG1       -0.0960
      3 C           1.7375    5.1429    6.3639 C.ar    1  LIG1       -0.1019
      4 C           1.4074    1.6212   -2.9218 C.ar    1  LIG1       -0.0992
      5 C          -0.2314    0.8506   -1.3225 C.ar    1  LIG1       -0.1018
      6 C           1.3259    7.0371   -1.4580 C.ar    1  LIG1       -0.0710
      7 C           1.0093    3.9139    4.4146 C.ar    1  LIG1       -0.0726
      8 C           2.8317    5.6372    5.6513 C.ar    1  LIG1       -0.0953
      9 C           1.5899    5.9081   -0.6908 C.ar    1  LIG1       -0.0830
     10 C           1.9837    2.4293   -1.9418 C.ar    1  LIG1       -0.0577
     11 C           0.3449    1.6587   -0.3426 C.ar    1  LIG1       -0.0627
     12 C           2.3704    7.5871   -2.1833 C.ar    1  LIG1       -0.0436
     13 C           3.8476    5.9954   -1.4334 C.ar    1  LIG1       -0.0316
     14 C           2.1085    4.4057    3.7057 C.ar    1  LIG1       -0.0304
     15 C           2.8723    5.3709   -0.6727 C.ar    1  LIG1       -0.0460
     16 C           3.0242    5.2855    4.3090 C.ar    1  LIG1       -0.0841
     17 C           1.4525    2.4480   -0.6521 C.ar    1  LIG1       -0.0278
     18 C           2.3177    4.0190    2.3029 C.2     1  LIG1        0.0138
     19 C           4.2255    5.8206    3.5647 C.3     1  LIG1       -0.0331
     20 C           4.0240    5.8010    2.0458 C.3     1  LIG1       -0.0361
     21 C           3.1925    4.1387    0.1541 C.3     1  LIG1        0.0263
     22 C           3.5970    4.4077    1.6140 C.3     1  LIG1        0.0245
     23 N           3.6290    7.0937   -2.1909 N.ar    1  LIG1       -0.4003
     24 N           1.4880    3.3331    1.5820 N.2     1  LIG1       -0.3195
     25 N           2.0284    3.2561    0.3280 N.pl3   1  LIG1       -0.3224
     26 H          -0.1487    0.2024   -3.3754 H       1  LIG1        0.1055
     27 H          -0.0226    3.9050    6.3040 H       1  LIG1        0.1206
     28 H           1.5953    5.4262    7.4029 H       1  LIG1        0.1209
     29 H           1.8208    1.6064   -3.9257 H       1  LIG1        0.1232
     30 H          -1.0939    0.2357   -1.0817 H       1  LIG1        0.1222
     31 H           0.3338    7.4729   -1.4874 H       1  LIG1        0.1257
     32 H           0.2927    3.2403    3.9536 H       1  LIG1        0.1355
     33 H           3.5323    6.3019    6.1505 H       1  LIG1        0.1205
     34 H           0.7911    5.4536   -0.1109 H       1  LIG1        0.1369
     35 H           2.8465    3.0406   -2.1933 H       1  LIG1        0.1261
     36 H          -0.0778    1.6653    0.6590 H       1  LIG1        0.1133
     37 H           2.2160    8.4685   -2.7972 H       1  LIG1        0.1982
     38 H           4.8665    5.6216   -1.4589 H       1  LIG1        0.1980
     39 H           4.4286    6.8521    3.8767 H       1  LIG1        0.0727
     40 H           5.0986    5.2131    3.8326 H       1  LIG1        0.0728
     41 H           3.2585    6.5435    1.7862 H       1  LIG1        0.0615
     42 H           4.9521    6.0929    1.5424 H       1  LIG1        0.0574
     43 H           4.0138    3.5919   -0.3661 H       1  LIG1        0.1414
     44 H           4.3529    3.6675    1.9127 H       1  LIG1        0.1094
@<TRIPOS>BOND
     1     1     4   ar
     2     1     5   ar
     3     2     3   ar
     4     2     7   ar
     5     3     8   ar
     6     4    10   ar
     7     5    11   ar
     8     6     9   ar
     9     6    12   ar
    10     7    14   ar
    11     8    16   ar
    12     9    15   ar
    13    10    17   ar
    14    11    17   ar
    15    12    23   ar
    16    13    15   ar
    17    13    23   ar
    18    14    16   ar
    19    14    18    1
    20    15    21    1
    21    16    19    1
    22    17    25    1
    23    18    22    1
    24    18    24    2
    25    19    20    1
    26    20    22    1
    27    21    22    1
    28    21    25    1
    29    24    25    1
    30     1    26    1
    31     2    27    1
    32     3    28    1
    33     4    29    1
    34     5    30    1
    35     6    31    1
    36     7    32    1
    37     8    33    1
    38     9    34    1
    39    10    35    1
    40    11    36    1
    41    12    37    1
    42    13    38    1
    43    19    39    1
    44    19    40    1
    45    20    41    1
    46    20    42    1
    47    21    43    1
    48    22    44    1
