@<TRIPOS>MOLECULE
AP-518/12245702
 44 46 0 0 0
SMALL
USER_CHARGES

@<TRIPOS>ATOM
      1 C           0.3844    0.6115   -1.8791 C.ar    1  LIG1       -0.1078
      2 C           2.1987    7.5575   -2.4029 C.ar    1  LIG1       -0.1060
      3 C           1.7168    0.9614   -2.0976 C.ar    1  LIG1       -0.1021
      4 C          -0.4048    1.3742   -1.0181 C.ar    1  LIG1       -0.1063
      5 C           1.1005    6.6996   -2.4614 C.ar    1  LIG1       -0.1044
      6 C           3.2533    7.2819   -1.5325 C.ar    1  LIG1       -0.1044
      7 C           0.5761    4.8102    5.7229 C.ar    1  LIG1       -0.0907
      8 C           1.6171    4.6273    6.6330 C.ar    1  LIG1       -0.0817
      9 C           2.2602    2.0738   -1.4549 C.ar    1  LIG1       -0.0919
     10 C           0.1386    2.4866   -0.3755 C.ar    1  LIG1       -0.0974
     11 C           1.0568    5.5662   -1.6495 C.ar    1  LIG1       -0.0989
     12 C           3.2096    6.1486   -0.7207 C.ar    1  LIG1       -0.0984
     13 C           0.8091    4.6550    4.3564 C.ar    1  LIG1       -0.0667
     14 C           3.1242    4.1344    4.8102 C.ar    1  LIG1       -0.0407
     15 C           2.8912    4.2895    6.1767 C.ar    1  LIG1       -0.0062
     16 C           1.4710    2.8364   -0.5939 C.ar    1  LIG1       -0.0686
     17 C           2.1114    5.2907   -0.7791 C.ar    1  LIG1       -0.0748
     18 C           2.0831    4.3172    3.9000 C.ar    1  LIG1       -0.0452
     19 C           3.9756    4.0992    7.1267 C.2     1  LIG1        0.0690
     20 C           1.4055    4.3132    1.4720 C.2     1  LIG1        0.1114
     21 C           5.0585    3.1273    6.7575 C.3     1  LIG1        0.0329
     22 C           2.0641    4.0519    0.1088 C.3     1  LIG1        0.0874
     23 N           2.3160    4.1619    2.5332 N.am    1  LIG1       -0.3092
     24 O           4.0708    4.6719    8.2144 O.2     1  LIG1       -0.4652
     25 O           0.2204    4.6177    1.5740 O.2     1  LIG1       -0.4641
     26 H          -0.0389   -0.2539   -2.3807 H       1  LIG1        0.1149
     27 H           2.2332    8.4393   -3.0361 H       1  LIG1        0.1171
     28 H           2.3312    0.3683   -2.7688 H       1  LIG1        0.1149
     29 H          -1.4425    1.1027   -0.8487 H       1  LIG1        0.1144
     30 H           0.2797    6.9134   -3.1398 H       1  LIG1        0.1175
     31 H           4.1091    7.9491   -1.4875 H       1  LIG1        0.1182
     32 H          -0.4162    5.0728    6.0781 H       1  LIG1        0.1276
     33 H           1.4238    4.7519    7.6953 H       1  LIG1        0.1314
     34 H           3.2994    2.3388   -1.6310 H       1  LIG1        0.1240
     35 H          -0.4838    3.0748    0.2937 H       1  LIG1        0.1181
     36 H           0.1969    4.9035   -1.7018 H       1  LIG1        0.1180
     37 H           4.0359    5.9419   -0.0455 H       1  LIG1        0.1210
     38 H          -0.0097    4.8004    3.6558 H       1  LIG1        0.1319
     39 H           4.1184    3.8720    4.4540 H       1  LIG1        0.1614
     40 H           5.8975    3.5813    6.2068 H       1  LIG1        0.0768
     41 H           4.6927    2.2777    6.1604 H       1  LIG1        0.0775
     42 H           5.5421    2.6604    7.6341 H       1  LIG1        0.0760
     43 H           3.1123    3.8053    0.3408 H       1  LIG1        0.1451
     44 H           3.2745    3.9131    2.2635 H       1  LIG1        0.3246
@<TRIPOS>BOND
     1     1     3   ar
     2     1     4   ar
     3     2     5   ar
     4     2     6   ar
     5     3     9   ar
     6     4    10   ar
     7     5    11   ar
     8     6    12   ar
     9     7     8   ar
    10     7    13   ar
    11     8    15   ar
    12     9    16   ar
    13    10    16   ar
    14    11    17   ar
    15    12    17   ar
    16    13    18   ar
    17    14    15   ar
    18    14    18   ar
    19    15    19    1
    20    16    22    1
    21    17    22    1
    22    18    23    1
    23    19    21    1
    24    19    24    2
    25    20    22    1
    26    20    23   am
    27    20    25    2
    28     1    26    1
    29     2    27    1
    30     3    28    1
    31     4    29    1
    32     5    30    1
    33     6    31    1
    34     7    32    1
    35     8    33    1
    36     9    34    1
    37    10    35    1
    38    11    36    1
    39    12    37    1
    40    13    38    1
    41    14    39    1
    42    21    40    1
    43    21    41    1
    44    21    42    1
    45    22    43    1
    46    23    44    1
