@<TRIPOS>MOLECULE
AK-968/11492125
 38 41 0 0 0
SMALL
USER_CHARGES

@<TRIPOS>ATOM
      1 C           1.7724    4.5475    6.5735 C.ar    1  LIG1       -0.1087
      2 C           3.0167    4.4458    5.9515 C.ar    1  LIG1       -0.0988
      3 C           0.6104    4.6020    5.8038 C.ar    1  LIG1       -0.1012
      4 C           1.2808    1.0371   -2.2670 C.ar    1  LIG1       -0.1040
      5 C           1.4333    6.1991   -0.3791 C.ar    1  LIG1       -0.0766
      6 C           3.0991    4.3987    4.5599 C.ar    1  LIG1       -0.0582
      7 C           0.6927    4.5548    4.4121 C.ar    1  LIG1       -0.0630
      8 C           1.0168    7.2028   -1.2535 C.ar    1  LIG1       -0.0626
      9 C           2.0971    1.8978   -1.4778 C.ar    1  LIG1       -0.0848
     10 C           2.8537    6.6767   -2.7322 C.ar    1  LIG1       -0.0386
     11 C          -0.0198    0.9993   -1.8147 C.ar    1  LIG1       -0.0423
     12 C           2.5601    5.4342   -0.6810 C.ar    1  LIG1       -0.0521
     13 C           1.9371    4.4532    3.7902 C.ar    1  LIG1       -0.0301
     14 C           1.7270    7.4415   -2.4301 C.ar    1  LIG1       -0.0016
     15 C           3.2703    5.6730   -1.8576 C.ar    1  LIG1        0.0046
     16 C           1.3891    2.4853   -0.4523 C.ar    1  LIG1        0.0135
     17 C           1.8458    3.3961    0.5382 C.2     1  LIG1        0.0303
     18 C           3.1672    4.9260    1.6967 C.3     1  LIG1        0.0175
     19 C           2.9751    4.3702    0.2833 C.3     1  LIG1        0.0481
     20 N           1.3296    3.4614    1.7279 N.2     1  LIG1       -0.3102
     21 N           2.0178    4.4067    2.4195 N.pl3   1  LIG1       -0.3258
     22 S          -0.2526    1.9987   -0.4439 S.2     1  LIG1       -0.1106
     23 CL          1.2119    8.6787   -3.5097 Cl      1  LIG1       -0.1295
     24 CL          4.6698    4.7479   -2.2639 Cl      1  LIG1       -0.1235
     25 H           1.7084    4.5844    7.6571 H       1  LIG1        0.1066
     26 H           3.9212    4.4035    6.5508 H       1  LIG1        0.1237
     27 H          -0.3586    4.6812    6.2883 H       1  LIG1        0.1242
     28 H           1.6301    0.4734   -3.1222 H       1  LIG1        0.1161
     29 H           0.8739    6.0224    0.5361 H       1  LIG1        0.1388
     30 H           4.0735    4.3196    4.0850 H       1  LIG1        0.1263
     31 H          -0.2197    4.5978    3.8226 H       1  LIG1        0.1157
     32 H           0.1367    7.7905   -1.0058 H       1  LIG1        0.1422
     33 H           3.1502    2.0738   -1.6580 H       1  LIG1        0.1302
     34 H           3.4071    6.8647   -3.6499 H       1  LIG1        0.1509
     35 H          -0.8439    0.4317   -2.2233 H       1  LIG1        0.1690
     36 H           4.0930    4.5237    2.1270 H       1  LIG1        0.1186
     37 H           3.2116    6.0201    1.7410 H       1  LIG1        0.1174
     38 H           3.8670    3.8613   -0.0883 H       1  LIG1        0.1289
@<TRIPOS>BOND
     1     1     2   ar
     2     1     3   ar
     3     2     6   ar
     4     3     7   ar
     5     4     9   ar
     6     4    11   ar
     7     5     8   ar
     8     5    12   ar
     9     6    13   ar
    10     7    13   ar
    11     8    14   ar
    12     9    16   ar
    13    10    14   ar
    14    10    15   ar
    15    11    22   ar
    16    12    15   ar
    17    12    19    1
    18    13    21    1
    19    14    23    1
    20    15    24    1
    21    16    17    1
    22    16    22   ar
    23    17    19    1
    24    17    20    2
    25    18    19    1
    26    18    21    1
    27    20    21    1
    28     1    25    1
    29     2    26    1
    30     3    27    1
    31     4    28    1
    32     5    29    1
    33     6    30    1
    34     7    31    1
    35     8    32    1
    36     9    33    1
    37    10    34    1
    38    11    35    1
    39    18    36    1
    40    18    37    1
    41    19    38    1
