@<TRIPOS>MOLECULE
AK-918/42979669
 40 43 0 0 0
SMALL
USER_CHARGES

@<TRIPOS>ATOM
      1 C           1.8886    7.6583   -1.7957 C.ar    1  LIG1       -0.1040
      2 C           0.0554    0.6920   -1.6965 C.ar    1  LIG1       -0.1040
      3 C           1.0339    5.3719    5.5766 C.ar    1  LIG1       -0.0898
      4 C           2.9001    7.4859   -0.8509 C.ar    1  LIG1       -0.1016
      5 C           1.1294    6.5647   -2.2122 C.ar    1  LIG1       -0.1028
      6 C           1.2718    0.9503   -2.3282 C.ar    1  LIG1       -0.1036
      7 C          -0.3146    1.4254   -0.5691 C.ar    1  LIG1       -0.1012
      8 C           1.9101    4.4817    6.1945 C.ar    1  LIG1       -0.0841
      9 C           0.9736    5.4406    4.1856 C.ar    1  LIG1       -0.0640
     10 C           3.1526    6.2198   -0.3226 C.ar    1  LIG1       -0.0929
     11 C           1.3820    5.2987   -1.6840 C.ar    1  LIG1       -0.0955
     12 C           2.1184    1.9419   -1.8326 C.ar    1  LIG1       -0.0972
     13 C           0.5320    2.4170   -0.0734 C.ar    1  LIG1       -0.0923
     14 C           2.7297    3.6565    5.4225 C.ar    1  LIG1       -0.0526
     15 C           1.7967    4.6121    3.4158 C.ar    1  LIG1        0.0523
     16 C           2.3935    5.1263   -0.7392 C.ar    1  LIG1       -0.0721
     17 C           1.7485    2.6754   -0.7052 C.ar    1  LIG1       -0.0725
     18 C           2.6816    3.7125    4.0251 C.ar    1  LIG1       -0.0119
     19 C           3.4504    2.9445    1.9935 C.ar    1  LIG1        0.0530
     20 C           1.7467    4.6716    1.9367 C.ar    1  LIG1        0.1420
     21 C           2.6671    3.7519   -0.1665 C.3     1  LIG1        0.0441
     22 N           3.5215    2.8666    3.2814 N.ar    1  LIG1       -0.3624
     23 N           2.6168    3.7921    1.2868 N.ar    1  LIG1       -0.2570
     24 O           0.9801    5.4544    1.3839 O.2     1  LIG1       -0.4614
     25 H           1.6912    8.6444   -2.2059 H       1  LIG1        0.1199
     26 H          -0.6043   -0.0792   -2.0833 H       1  LIG1        0.1194
     27 H           0.3974    6.0132    6.1797 H       1  LIG1        0.1238
     28 H           3.4906    8.3375   -0.5256 H       1  LIG1        0.1198
     29 H           0.3410    6.6988   -2.9469 H       1  LIG1        0.1200
     30 H           1.5595    0.3802   -3.2067 H       1  LIG1        0.1186
     31 H          -1.2621    1.2254   -0.0776 H       1  LIG1        0.1200
     32 H           1.9560    4.4295    7.2786 H       1  LIG1        0.1367
     33 H           0.2835    6.1406    3.7232 H       1  LIG1        0.1450
     34 H           3.9428    6.0949    0.4130 H       1  LIG1        0.1245
     35 H           0.7855    4.4524   -2.0145 H       1  LIG1        0.1181
     36 H           3.0643    2.1362   -2.3312 H       1  LIG1        0.1129
     37 H           0.2355    2.9834    0.8055 H       1  LIG1        0.1261
     38 H           3.4080    2.9675    5.9204 H       1  LIG1        0.1441
     39 H           4.0855    2.3045    1.3609 H       1  LIG1        0.3064
     40 H           3.7012    3.4643   -0.3972 H       1  LIG1        0.1764
@<TRIPOS>BOND
     1     1     4   ar
     2     1     5   ar
     3     2     6   ar
     4     2     7   ar
     5     3     8   ar
     6     3     9   ar
     7     4    10   ar
     8     5    11   ar
     9     6    12   ar
    10     7    13   ar
    11     8    14   ar
    12     9    15   ar
    13    10    16   ar
    14    11    16   ar
    15    12    17   ar
    16    13    17   ar
    17    14    18   ar
    18    15    18   ar
    19    15    20   ar
    20    16    21    1
    21    17    21    1
    22    18    22   ar
    23    19    22   ar
    24    19    23   ar
    25    20    23   ar
    26    20    24    2
    27    21    23    1
    28     1    25    1
    29     2    26    1
    30     3    27    1
    31     4    28    1
    32     5    29    1
    33     6    30    1
    34     7    31    1
    35     8    32    1
    36     9    33    1
    37    10    34    1
    38    11    35    1
    39    12    36    1
    40    13    37    1
    41    14    38    1
    42    19    39    1
    43    21    40    1
