@<TRIPOS>MOLECULE
AE-534/30057022
 40 42 0 0 0
SMALL
USER_CHARGES

@<TRIPOS>ATOM
      1 C           0.4823    1.2125   -2.2573 C.ar    1  LIG1       -0.1082
      2 C           1.4762    4.1869    5.8590 C.ar    1  LIG1       -0.1021
      3 C           1.8492    1.2270   -1.9801 C.ar    1  LIG1       -0.1018
      4 C          -0.4072    1.8808   -1.4159 C.ar    1  LIG1       -0.1015
      5 C           0.5438    4.5755    4.8971 C.ar    1  LIG1       -0.0945
      6 C           2.8353    4.1677    5.5452 C.ar    1  LIG1       -0.0943
      7 C           1.0163    6.1343   -0.4127 C.ar    1  LIG1       -0.0591
      8 C           3.2511    5.4784   -1.0551 C.ar    1  LIG1       -0.0686
      9 C           2.3266    1.9098   -0.8614 C.ar    1  LIG1       -0.0743
     10 C           0.0703    2.5635   -0.2972 C.ar    1  LIG1       -0.0730
     11 C           0.9703    4.9448    3.6214 C.ar    1  LIG1       -0.0552
     12 C           3.2618    4.5370    4.2696 C.ar    1  LIG1       -0.0554
     13 C           0.9401    6.9678   -1.5285 C.ar    1  LIG1       -0.0480
     14 C           3.1749    6.3118   -2.1709 C.ar    1  LIG1       -0.0601
     15 C           2.1718    5.3896   -0.1759 C.ar    1  LIG1        0.0120
     16 C           1.4372    2.5780   -0.0199 C.ar    1  LIG1       -0.0476
     17 C           2.3293    4.9256    3.3076 C.ar    1  LIG1        0.0308
     18 C           2.0194    7.0566   -2.4077 C.ar    1  LIG1       -0.0081
     19 C           2.2513    4.5205    0.9873 C.2     1  LIG1        0.1053
     20 C           3.0853    7.9128   -4.3536 C.3     1  LIG1        0.0259
     21 N           1.9177    3.2654    1.1071 N.2     1  LIG1       -0.3623
     22 O           2.7578    5.2945    2.0268 O.3     1  LIG1       -0.3132
     23 O           1.9455    7.8699   -3.4965 O.3     1  LIG1       -0.4135
     24 H           0.1107    0.6808   -3.1284 H       1  LIG1        0.1103
     25 H           1.1445    3.8999    6.8526 H       1  LIG1        0.1197
     26 H           2.5418    0.7069   -2.6354 H       1  LIG1        0.1187
     27 H          -1.4715    1.8694   -1.6320 H       1  LIG1        0.1196
     28 H          -0.5145    4.5904    5.1412 H       1  LIG1        0.1245
     29 H           3.5607    3.8652    6.2948 H       1  LIG1        0.1232
     30 H           0.1688    6.0729    0.2652 H       1  LIG1        0.1510
     31 H           4.1558    4.9020   -0.8796 H       1  LIG1        0.1441
     32 H           3.3932    1.9155   -0.6527 H       1  LIG1        0.1161
     33 H          -0.6307    3.0812    0.3526 H       1  LIG1        0.1214
     34 H           0.2388    5.2451    2.8762 H       1  LIG1        0.1317
     35 H           4.3215    4.5184    4.0301 H       1  LIG1        0.1286
     36 H           0.0374    7.5455   -1.7075 H       1  LIG1        0.1342
     37 H           4.0190    6.3772   -2.8521 H       1  LIG1        0.1182
     38 H           2.8936    8.5991   -5.1819 H       1  LIG1        0.0907
     39 H           3.2918    6.9104   -4.7372 H       1  LIG1        0.0909
     40 H           3.9467    8.2666   -3.7821 H       1  LIG1        0.1236
@<TRIPOS>BOND
     1     1     3   ar
     2     1     4   ar
     3     2     5   ar
     4     2     6   ar
     5     3     9   ar
     6     4    10   ar
     7     5    11   ar
     8     6    12   ar
     9     7    13   ar
    10     7    15   ar
    11     8    14   ar
    12     8    15   ar
    13     9    16   ar
    14    10    16   ar
    15    11    17   ar
    16    12    17   ar
    17    13    18   ar
    18    14    18   ar
    19    15    19    1
    20    16    21    1
    21    17    22    1
    22    18    23    1
    23    19    21    2
    24    19    22    1
    25    20    23    1
    26     1    24    1
    27     2    25    1
    28     3    26    1
    29     4    27    1
    30     5    28    1
    31     6    29    1
    32     7    30    1
    33     8    31    1
    34     9    32    1
    35    10    33    1
    36    11    34    1
    37    12    35    1
    38    13    36    1
    39    14    37    1
    40    20    38    1
    41    20    39    1
    42    20    40    1
