@<TRIPOS>MOLECULE
AI-597/32227057
 43 45 0 0 0
SMALL
USER_CHARGES

@<TRIPOS>ATOM
      1 C           1.5639    4.5962    6.3987 C.ar    1  LIG1       -0.1027
      2 C           0.6048    1.5475   -2.0205 C.ar    1  LIG1       -0.1107
      3 C           2.8711    4.5854    5.9120 C.ar    1  LIG1       -0.0981
      4 C           0.4971    4.3361    5.5384 C.ar    1  LIG1       -0.0991
      5 C           1.2255    0.5882   -1.2205 C.ar    1  LIG1       -0.1042
      6 C           0.4070    2.8397   -1.5335 C.ar    1  LIG1       -0.1038
      7 C           3.1114    4.3144    4.5649 C.ar    1  LIG1       -0.0807
      8 C           0.7376    4.0652    4.1914 C.ar    1  LIG1       -0.0817
      9 C           1.8718    6.5826   -0.3624 C.ar    1  LIG1       -0.0789
     10 C           2.9634    5.4530   -2.1980 C.ar    1  LIG1       -0.0820
     11 C           1.3363    7.5128   -1.2532 C.ar    1  LIG1       -0.0976
     12 C           2.4278    6.3832   -3.0889 C.ar    1  LIG1       -0.0997
     13 C           1.6483    0.9209    0.0665 C.ar    1  LIG1       -0.0747
     14 C           0.8299    3.1723   -0.2466 C.ar    1  LIG1       -0.0740
     15 C           2.0447    4.0543    3.7046 C.ar    1  LIG1       -0.0410
     16 C           2.6853    5.5527   -0.8348 C.ar    1  LIG1       -0.0086
     17 C           1.6142    7.4131   -2.6164 C.ar    1  LIG1       -0.1156
     18 C           1.4505    2.2129    0.5535 C.ar    1  LIG1       -0.0662
     19 C           2.9212    4.7213    1.5575 C.2     1  LIG1        0.0161
     20 C           2.2948    3.7719    2.2998 C.2     1  LIG1       -0.0321
     21 C           3.2548    4.5629    0.1114 C.2     1  LIG1        0.0844
     22 C           1.0405    8.4073   -3.5688 C.3     1  LIG1       -0.0411
     23 N           1.8725    2.5453    1.8377 N.pl3   1  LIG1       -0.3574
     24 O           3.9925    3.6793   -0.3090 O.2     1  LIG1       -0.4686
     25 H           1.3769    4.8059    7.4477 H       1  LIG1        0.1220
     26 H           0.2754    1.2883   -3.0224 H       1  LIG1        0.1040
     27 H           3.7020    4.7867    6.5819 H       1  LIG1        0.1190
     28 H          -0.5206    4.3434    5.9174 H       1  LIG1        0.1201
     29 H           1.3793   -0.4177   -1.5996 H       1  LIG1        0.1204
     30 H          -0.0764    3.5866   -2.1567 H       1  LIG1        0.1217
     31 H           4.1359    4.3096    4.2002 H       1  LIG1        0.1292
     32 H          -0.1045    3.8644    3.5333 H       1  LIG1        0.1305
     33 H           1.6489    6.6691    0.6979 H       1  LIG1        0.1357
     34 H           3.5961    4.6548   -2.5774 H       1  LIG1        0.1308
     35 H           0.7032    8.3117   -0.8765 H       1  LIG1        0.1186
     36 H           2.6492    6.2976   -4.1496 H       1  LIG1        0.1182
     37 H           2.1309    0.1660    0.6819 H       1  LIG1        0.1124
     38 H           0.6705    4.1824    0.1221 H       1  LIG1        0.1148
     39 H           3.2222    5.6528    2.0299 H       1  LIG1        0.1306
     40 H           1.7211    9.2592   -3.6875 H       1  LIG1        0.0594
     41 H           0.8678    7.9596   -4.5560 H       1  LIG1        0.0554
     42 H           0.0710    8.7828   -3.2163 H       1  LIG1        0.0555
     43 H           1.8804    1.8203    2.5329 H       1  LIG1        0.3199
@<TRIPOS>BOND
     1     1     3   ar
     2     1     4   ar
     3     2     5   ar
     4     2     6   ar
     5     3     7   ar
     6     4     8   ar
     7     5    13   ar
     8     6    14   ar
     9     7    15   ar
    10     8    15   ar
    11     9    11   ar
    12     9    16   ar
    13    10    12   ar
    14    10    16   ar
    15    11    17   ar
    16    12    17   ar
    17    13    18   ar
    18    14    18   ar
    19    15    20    1
    20    16    21    1
    21    17    22    1
    22    18    23    1
    23    19    20    2
    24    19    21    1
    25    20    23    1
    26    21    24    2
    27     1    25    1
    28     2    26    1
    29     3    27    1
    30     4    28    1
    31     5    29    1
    32     6    30    1
    33     7    31    1
    34     8    32    1
    35     9    33    1
    36    10    34    1
    37    11    35    1
    38    12    36    1
    39    13    37    1
    40    14    38    1
    41    19    39    1
    42    22    40    1
    43    22    41    1
    44    22    42    1
    45    23    43    1
