@<TRIPOS>MOLECULE
AG-690/11629373
 48 50 0 0 0
SMALL
USER_CHARGES

@<TRIPOS>ATOM
      1 C           2.0599    3.6927    6.6375 C.ar    1  LIG1       -0.1116
      2 C           0.9907    4.5861    6.5752 C.ar    1  LIG1       -0.1066
      3 C           2.9215    3.5589    5.5486 C.ar    1  LIG1       -0.1038
      4 C          -0.3605    1.8017   -1.8197 C.ar    1  LIG1       -0.1022
      5 C           1.6955    0.5954   -1.4264 C.ar    1  LIG1       -0.0989
      6 C           1.0637    7.2905   -1.8093 C.ar    1  LIG1       -0.0998
      7 C           3.2812    6.6468   -2.5203 C.ar    1  LIG1       -0.1041
      8 C           0.1713    2.9185   -1.1751 C.ar    1  LIG1       -0.0871
      9 C           2.2273    1.7123   -0.7818 C.ar    1  LIG1       -0.0811
     10 C           1.0106    6.1789   -0.9684 C.ar    1  LIG1       -0.0852
     11 C           3.2281    5.5352   -1.6793 C.ar    1  LIG1       -0.0907
     12 C           0.7828    5.3459    5.4240 C.ar    1  LIG1       -0.0752
     13 C           2.7136    4.3186    4.3974 C.ar    1  LIG1       -0.0706
     14 C           0.4015    0.6402   -1.9454 C.ar    1  LIG1       -0.1172
     15 C           2.1989    7.5244   -2.5854 C.ar    1  LIG1       -0.1183
     16 C           1.4653    2.8738   -0.6561 C.ar    1  LIG1       -0.0361
     17 C           2.0928    5.3013   -0.9032 C.ar    1  LIG1       -0.0402
     18 C           1.6442    5.2121    4.3351 C.ar    1  LIG1       -0.0608
     19 C           1.3703    4.4327    1.3939 C.2     1  LIG1        0.1437
     20 C          -0.1662   -0.5541   -2.6348 C.3     1  LIG1       -0.0430
     21 C           2.2566    8.7127   -3.4845 C.3     1  LIG1       -0.0435
     22 C           2.0339    4.0688    0.0316 C.3     1  LIG1        0.1261
     23 N           1.4362    5.9740    3.1804 N.pl3   1  LIG1       -0.3559
     24 N           1.9405    5.5508    1.9848 N.am    1  LIG1       -0.2965
     25 O           0.4354    3.8015    1.8874 O.2     1  LIG1       -0.4749
     26 O           3.3838    3.8256    0.5231 O.3     1  LIG1       -0.4435
     27 H           2.2216    3.1009    7.5339 H       1  LIG1        0.1008
     28 H           0.3200    4.6900    7.4228 H       1  LIG1        0.1226
     29 H           3.7541    2.8631    5.5973 H       1  LIG1        0.1247
     30 H          -1.3698    1.8456   -2.2208 H       1  LIG1        0.1183
     31 H           2.2966   -0.3050   -1.5211 H       1  LIG1        0.1185
     32 H           0.2156    7.9688   -1.8539 H       1  LIG1        0.1165
     33 H           4.1701    6.8223   -3.1204 H       1  LIG1        0.1159
     34 H          -0.4291    3.8196   -1.0835 H       1  LIG1        0.1225
     35 H           3.2364    1.6691   -0.3802 H       1  LIG1        0.1355
     36 H           0.1227    6.0057   -0.3662 H       1  LIG1        0.1288
     37 H           4.0757    4.8563   -1.6345 H       1  LIG1        0.1232
     38 H          -0.0534    6.0391    5.3855 H       1  LIG1        0.1017
     39 H           3.3915    4.2061    3.5552 H       1  LIG1        0.1127
     40 H           0.0600   -0.5193   -3.7076 H       1  LIG1        0.0526
     41 H           0.2446   -1.4849   -2.2228 H       1  LIG1        0.0566
     42 H          -1.2558   -0.6055   -2.5104 H       1  LIG1        0.0568
     43 H           2.6779    9.5743   -2.9522 H       1  LIG1        0.0524
     44 H           2.8757    8.5137   -4.3690 H       1  LIG1        0.0560
     45 H           1.2578    8.9843   -3.8506 H       1  LIG1        0.0560
     46 H           1.0115    6.8911    3.2235 H       1  LIG1        0.3656
     47 H           2.7102    6.0399    1.5412 H       1  LIG1        0.3781
     48 H           3.6441    4.6510    0.9411 H       1  LIG1        0.3608
@<TRIPOS>BOND
     1     1     2   ar
     2     1     3   ar
     3     2    12   ar
     4     3    13   ar
     5     4     8   ar
     6     4    14   ar
     7     5     9   ar
     8     5    14   ar
     9     6    10   ar
    10     6    15   ar
    11     7    11   ar
    12     7    15   ar
    13     8    16   ar
    14     9    16   ar
    15    10    17   ar
    16    11    17   ar
    17    12    18   ar
    18    13    18   ar
    19    14    20    1
    20    15    21    1
    21    16    22    1
    22    17    22    1
    23    18    23    1
    24    19    22    1
    25    19    24   am
    26    19    25    2
    27    22    26    1
    28    23    24    1
    29     1    27    1
    30     2    28    1
    31     3    29    1
    32     4    30    1
    33     5    31    1
    34     6    32    1
    35     7    33    1
    36     8    34    1
    37     9    35    1
    38    10    36    1
    39    11    37    1
    40    12    38    1
    41    13    39    1
    42    20    40    1
    43    20    41    1
    44    20    42    1
    45    21    43    1
    46    21    44    1
    47    21    45    1
    48    23    46    1
    49    24    47    1
    50    26    48    1
