@<TRIPOS>MOLECULE
AE-848/32002005
 39 41 0 0 0
SMALL
USER_CHARGES

@<TRIPOS>ATOM
      1 C          -0.1742    0.6950   -1.4930 C.ar    1  LIG1       -0.1089
      2 C           2.0473    7.7304   -2.1766 C.ar    1  LIG1       -0.1052
      3 C           1.1007    0.5869   -2.0485 C.ar    1  LIG1       -0.1070
      4 C          -0.4142    1.6139   -0.4713 C.ar    1  LIG1       -0.1055
      5 C           3.3031    7.1451   -2.0164 C.ar    1  LIG1       -0.0988
      6 C           0.9501    7.2302   -1.4754 C.ar    1  LIG1       -0.0995
      7 C           2.1357    1.3975   -1.5822 C.ar    1  LIG1       -0.0982
      8 C           0.6207    2.4245   -0.0051 C.ar    1  LIG1       -0.0958
      9 C           3.4619    6.0594   -1.1553 C.ar    1  LIG1       -0.0698
     10 C           1.1088    6.1444   -0.6142 C.ar    1  LIG1       -0.0711
     11 C           2.9479    4.4238    5.1188 C.ar    1  LIG1       -0.0481
     12 C           0.7118    4.5189    4.2386 C.ar    1  LIG1       -0.0502
     13 C           2.3913    4.4386    6.3876 C.ar    1  LIG1       -0.0389
     14 C           0.2552    4.5293    5.5467 C.ar    1  LIG1       -0.0398
     15 C           2.0853    4.4650    4.0292 C.ar    1  LIG1       -0.0343
     16 C           1.8956    2.3163   -0.5605 C.ar    1  LIG1       -0.0766
     17 C           2.3647    5.5591   -0.4541 C.ar    1  LIG1       -0.0430
     18 C           2.6242    4.4512    2.6589 C.2     1  LIG1        0.0140
     19 C           3.0019    3.1832   -0.0612 C.3     1  LIG1        0.0201
     20 N           1.0625    4.4905    6.6305 N.ar    1  LIG1       -0.4055
     21 N           1.8548    4.4993    1.6184 N.2     1  LIG1       -0.3246
     22 N           2.5260    4.4544    0.4225 N.pl3   1  LIG1       -0.3301
     23 H          -0.9803    0.0647   -1.8572 H       1  LIG1        0.1143
     24 H           1.9237    8.5758   -2.8474 H       1  LIG1        0.1146
     25 H           1.2876   -0.1277   -2.8447 H       1  LIG1        0.1132
     26 H          -1.4069    1.6991   -0.0394 H       1  LIG1        0.1138
     27 H           4.1572    7.5346   -2.5624 H       1  LIG1        0.1228
     28 H          -0.0279    7.6861   -1.6003 H       1  LIG1        0.1224
     29 H           3.1259    1.3062   -2.0208 H       1  LIG1        0.1162
     30 H           0.4244    3.1374    0.7914 H       1  LIG1        0.1216
     31 H           4.4447    5.6104   -1.0376 H       1  LIG1        0.1223
     32 H           0.2466    5.7633   -0.0729 H       1  LIG1        0.1188
     33 H           4.0244    4.3800    4.9912 H       1  LIG1        0.1376
     34 H           0.0114    4.5514    3.4108 H       1  LIG1        0.1332
     35 H           3.0209    4.4070    7.2706 H       1  LIG1        0.1988
     36 H          -0.8068    4.5711    5.7637 H       1  LIG1        0.1997
     37 H           3.7252    4.4072    2.5589 H       1  LIG1        0.1834
     38 H           3.5438    2.6985    0.7628 H       1  LIG1        0.1408
     39 H           3.7399    3.3882   -0.8489 H       1  LIG1        0.1431
@<TRIPOS>BOND
     1     1     3   ar
     2     1     4   ar
     3     2     5   ar
     4     2     6   ar
     5     3     7   ar
     6     4     8   ar
     7     5     9   ar
     8     6    10   ar
     9     7    16   ar
    10     8    16   ar
    11     9    17   ar
    12    10    17   ar
    13    11    13   ar
    14    11    15   ar
    15    12    14   ar
    16    12    15   ar
    17    13    20   ar
    18    14    20   ar
    19    15    18    1
    20    16    19    1
    21    17    22    1
    22    18    21    2
    23    19    22    1
    24    21    22    1
    25     1    23    1
    26     2    24    1
    27     3    25    1
    28     4    26    1
    29     5    27    1
    30     6    28    1
    31     7    29    1
    32     8    30    1
    33     9    31    1
    34    10    32    1
    35    11    33    1
    36    12    34    1
    37    13    35    1
    38    14    36    1
    39    18    37    1
    40    19    38    1
    41    19    39    1
