@<TRIPOS>MOLECULE
ZINC04198872
 43 45 0 0 0
SMALL
USER_CHARGES

@<TRIPOS>ATOM
      1 C           1.8881    7.6237   -2.0323 C.ar    1  LIG1       -0.1012
      2 C           1.5001    4.8022    6.0841 C.ar    1  LIG1       -0.0986
      3 C           0.8763    7.0808   -1.2404 C.ar    1  LIG1       -0.0998
      4 C           3.0805    6.9238   -2.2170 C.ar    1  LIG1       -0.1013
      5 C           2.7468    5.2258    5.6235 C.ar    1  LIG1       -0.0908
      6 C           0.6617    4.0645    5.2483 C.ar    1  LIG1       -0.0863
      7 C           1.0570    5.8382   -0.6330 C.ar    1  LIG1       -0.0953
      8 C           3.2612    5.6811   -1.6097 C.ar    1  LIG1       -0.0967
      9 C           3.1549    4.9119    4.3272 C.ar    1  LIG1       -0.0567
     10 C           1.0698    3.7507    3.9520 C.ar    1  LIG1       -0.0511
     11 C           2.2494    5.1383   -0.8177 C.ar    1  LIG1       -0.1002
     12 C           2.3164    4.1742    3.4913 C.ar    1  LIG1       -0.0389
     13 C           4.0062    3.6333    1.6057 C.2     1  LIG1       -0.0380
     14 C           2.4482    3.7758   -0.1518 C.3     1  LIG1       -0.1033
     15 C           0.6178    0.0317   -1.5361 C.3     1  LIG1       -0.0737
     16 C           1.9564    2.6606   -1.0828 C.3     1  LIG1       -0.0442
     17 C          -0.0416    1.3524   -1.9002 C.3     1  LIG1       -0.0750
     18 C           0.4402    2.4870   -0.9965 C.3     1  LIG1       -0.0596
     19 N           3.8216    3.5295    0.2244 N.am    1  LIG1       -0.3546
     20 N           1.7433    3.7090    1.1536 N.3     1  LIG1        0.4164
     21 N           2.7339    3.8533    2.1659 N.am    1  LIG1       -0.4341
     22 S           5.5165    3.4469    2.2789 S.2     1  LIG1       -0.3275
     23 H           1.7468    8.5907   -2.5062 H       1  LIG1        0.1234
     24 H           1.1824    5.0458    7.0937 H       1  LIG1        0.1233
     25 H          -0.0525    7.6251   -1.0973 H       1  LIG1        0.1234
     26 H           3.8681    7.3456   -2.8344 H       1  LIG1        0.1238
     27 H           3.4002    5.7994    6.2742 H       1  LIG1        0.1243
     28 H          -0.3086    3.7339    5.6076 H       1  LIG1        0.1276
     29 H           0.2632    5.4231   -0.0174 H       1  LIG1        0.1200
     30 H           4.1935    5.1431   -1.7591 H       1  LIG1        0.1222
     31 H           4.1286    5.2473    3.9792 H       1  LIG1        0.1382
     32 H           0.4079    3.1751    3.3095 H       1  LIG1        0.1468
     33 H           1.7076    0.1040   -1.6093 H       1  LIG1        0.0290
     34 H           0.2836   -0.7589   -2.2152 H       1  LIG1        0.0292
     35 H           0.3608   -0.2666   -0.5147 H       1  LIG1        0.0299
     36 H           2.2461    2.8985   -2.1129 H       1  LIG1        0.0823
     37 H           2.4547    1.7220   -0.8140 H       1  LIG1        0.0765
     38 H          -1.1296    1.2461   -1.8169 H       1  LIG1        0.0390
     39 H           0.1821    1.5894   -2.9470 H       1  LIG1        0.0373
     40 H          -0.0540    3.4225   -1.2859 H       1  LIG1        0.0417
     41 H           0.1527    2.2777    0.0410 H       1  LIG1        0.0515
     42 H           4.5838    3.4037   -0.4349 H       1  LIG1        0.3512
     43 H           1.0983    4.4936    1.2474 H       1  LIG1        0.0695
@<TRIPOS>BOND
     1     1     3   ar
     2     1     4   ar
     3     2     5   ar
     4     2     6   ar
     5     3     7   ar
     6     4     8   ar
     7     5     9   ar
     8     6    10   ar
     9     7    11   ar
    10     8    11   ar
    11     9    12   ar
    12    10    12   ar
    13    11    14    1
    14    12    21    1
    15    13    19    1
    16    13    21    1
    17    13    22    2
    18    14    16    1
    19    14    19    1
    20    14    20    1
    21    15    17    1
    22    16    18    1
    23    17    18    1
    24    20    21    1
    25     1    23    1
    26     2    24    1
    27     3    25    1
    28     4    26    1
    29     5    27    1
    30     6    28    1
    31     7    29    1
    32     8    30    1
    33     9    31    1
    34    10    32    1
    35    15    33    1
    36    15    34    1
    37    15    35    1
    38    16    36    1
    39    16    37    1
    40    17    38    1
    41    17    39    1
    42    18    40    1
    43    18    41    1
    44    19    42    1
    45    20    43    1
