@<TRIPOS>MOLECULE
AH-034/36850039
 47 50 0 0 0
SMALL
USER_CHARGES

@<TRIPOS>ATOM
      1 C           1.5270    4.3244    6.5662 C.ar    1  LIG1       -0.1041
      2 C          -0.0154    1.0340   -1.6584 C.ar    1  LIG1       -0.1065
      3 C           2.6325    3.6205    6.0887 C.ar    1  LIG1       -0.0990
      4 C           0.6980    5.0081    5.6768 C.ar    1  LIG1       -0.0979
      5 C           1.0770    1.5192   -2.3773 C.ar    1  LIG1       -0.1053
      6 C          -0.1484    1.3360   -0.3032 C.ar    1  LIG1       -0.1034
      7 C           2.9092    3.6005    4.7218 C.ar    1  LIG1       -0.0783
      8 C           0.9747    4.9880    4.3098 C.ar    1  LIG1       -0.0761
      9 C           2.0365    2.3066   -1.7408 C.ar    1  LIG1       -0.0976
     10 C           0.8111    2.1234    0.3333 C.ar    1  LIG1       -0.0957
     11 C           2.9214    6.3052   -2.9882 C.ar    1  LIG1       -0.0986
     12 C           3.0984    5.4746   -1.8815 C.ar    1  LIG1       -0.0599
     13 C           1.3775    6.6874   -0.6962 C.ar    1  LIG1       -0.0556
     14 C           2.0803    4.2842    3.8322 C.ar    1  LIG1       -0.0373
     15 C           1.9036    2.6086   -0.3855 C.ar    1  LIG1       -0.0811
     16 C           1.9725    7.3269   -2.9488 C.ar    1  LIG1       -0.1186
     17 C           1.2006    7.5180   -1.8028 C.ar    1  LIG1       -0.1097
     18 C           2.3265    5.6657   -0.7357 C.ar    1  LIG1       -0.0257
     19 C           2.3688    4.2632    2.4070 C.2     1  LIG1        0.0086
     20 C           3.0525    3.0806    1.7774 C.3     1  LIG1        0.0295
     21 C           2.9312    3.4518    0.2970 C.3     1  LIG1        0.0210
     22 C           1.8019    8.2038   -4.1455 C.3     1  LIG1       -0.0480
     23 C           0.1797    8.6060   -1.7370 C.3     1  LIG1       -0.0405
     24 N           2.0963    5.2349    1.5941 N.2     1  LIG1       -0.3233
     25 N           2.5001    4.8494    0.3506 N.pl3   1  LIG1       -0.3231
     26 H           1.3116    4.3399    7.6306 H       1  LIG1        0.1192
     27 H          -0.7632    0.4221   -2.1546 H       1  LIG1        0.1163
     28 H           3.2779    3.0884    6.7815 H       1  LIG1        0.1196
     29 H          -0.1629    5.5558    6.0485 H       1  LIG1        0.1193
     30 H           1.1802    1.2851   -3.4328 H       1  LIG1        0.1169
     31 H          -0.9994    0.9592    0.2565 H       1  LIG1        0.1156
     32 H           3.7733    3.0488    4.3604 H       1  LIG1        0.1285
     33 H           0.3220    5.5244    3.6259 H       1  LIG1        0.1331
     34 H           2.8845    2.6801   -2.3088 H       1  LIG1        0.1189
     35 H           0.6994    2.3535    1.3895 H       1  LIG1        0.1171
     36 H           3.5279    6.1490   -3.8762 H       1  LIG1        0.1238
     37 H           3.8418    4.6823   -1.9229 H       1  LIG1        0.1164
     38 H           0.7760    6.8373    0.1975 H       1  LIG1        0.1265
     39 H           4.0995    3.0767    2.0990 H       1  LIG1        0.0986
     40 H           2.5743    2.1375    2.0560 H       1  LIG1        0.0991
     41 H           3.8904    3.3419   -0.2198 H       1  LIG1        0.1350
     42 H           1.0488    7.7821   -4.8213 H       1  LIG1        0.0517
     43 H           1.4851    9.2132   -3.8553 H       1  LIG1        0.0529
     44 H           2.7448    8.3111   -4.6959 H       1  LIG1        0.0490
     45 H           0.6307    9.5272   -1.3503 H       1  LIG1        0.0574
     46 H          -0.2434    8.8130   -2.7277 H       1  LIG1        0.0531
     47 H          -0.6568    8.3257   -1.0849 H       1  LIG1        0.0578
@<TRIPOS>BOND
     1     1     3   ar
     2     1     4   ar
     3     2     5   ar
     4     2     6   ar
     5     3     7   ar
     6     4     8   ar
     7     5     9   ar
     8     6    10   ar
     9     7    14   ar
    10     8    14   ar
    11     9    15   ar
    12    10    15   ar
    13    11    12   ar
    14    11    16   ar
    15    12    18   ar
    16    13    17   ar
    17    13    18   ar
    18    14    19    1
    19    15    21    1
    20    16    17   ar
    21    16    22    1
    22    17    23    1
    23    18    25    1
    24    19    20    1
    25    19    24    2
    26    20    21    1
    27    21    25    1
    28    24    25    1
    29     1    26    1
    30     2    27    1
    31     3    28    1
    32     4    29    1
    33     5    30    1
    34     6    31    1
    35     7    32    1
    36     8    33    1
    37     9    34    1
    38    10    35    1
    39    11    36    1
    40    12    37    1
    41    13    38    1
    42    20    39    1
    43    20    40    1
    44    21    41    1
    45    22    42    1
    46    22    43    1
    47    22    44    1
    48    23    45    1
    49    23    46    1
    50    23    47    1
