@<TRIPOS>MOLECULE
AG-680/20240026
 48 50 0 0 0
SMALL
USER_CHARGES

@<TRIPOS>ATOM
      1 C           1.9732    7.5575   -2.3053 C.ar    1  LIG1       -0.1036
      2 C           0.1923    0.7319   -1.8066 C.ar    1  LIG1       -0.1035
      3 C           1.0850    7.2747   -1.2677 C.ar    1  LIG1       -0.0976
      4 C           3.0142    6.6746   -2.5924 C.ar    1  LIG1       -0.1065
      5 C           1.5199    0.9492   -2.1751 C.ar    1  LIG1       -0.1052
      6 C          -0.4084    1.5492   -0.8490 C.ar    1  LIG1       -0.1009
      7 C           1.2379    6.1090   -0.5170 C.ar    1  LIG1       -0.0854
      8 C           3.1671    5.5089   -1.8417 C.ar    1  LIG1       -0.0984
      9 C           2.2470    1.9836   -1.5861 C.ar    1  LIG1       -0.1011
     10 C           0.3187    2.5835   -0.2598 C.ar    1  LIG1       -0.0944
     11 C           2.2790    5.2261   -0.8040 C.ar    1  LIG1       -0.0710
     12 C           1.6463    2.8009   -0.6283 C.ar    1  LIG1       -0.0789
     13 C           0.7604    4.4539    6.0394 C.3     1  LIG1       -0.0687
     14 C           0.5270    5.7366    5.2483 C.3     1  LIG1       -0.0749
     15 C           2.2023    3.9765    5.9046 C.3     1  LIG1       -0.0741
     16 C           0.9445    5.5847    3.7927 C.3     1  LIG1       -0.1050
     17 C           2.6141    3.8313    4.4466 C.3     1  LIG1       -0.1039
     18 C           2.0649    4.0626    1.5307 C.3     1  LIG1       -0.0337
     19 C           2.8888    5.0894    2.3113 C.3     1  LIG1       -0.0931
     20 C           2.4482    3.9424    0.0224 C.3     1  LIG1        0.0078
     21 N           2.3866    5.1401    3.7280 N.4     1  LIG1        0.4027
     22 O           3.8423    3.5746    0.0399 O.3     1  LIG1       -0.4650
     23 H           1.8531    8.4645   -2.8906 H       1  LIG1        0.1216
     24 H          -0.3740   -0.0727   -2.2664 H       1  LIG1        0.1218
     25 H           0.2737    7.9615   -1.0447 H       1  LIG1        0.1231
     26 H           3.7052    6.8939   -3.4009 H       1  LIG1        0.1178
     27 H           1.9875    0.3137   -2.9216 H       1  LIG1        0.1183
     28 H          -1.4422    1.3810   -0.5626 H       1  LIG1        0.1217
     29 H           0.5412    5.8970    0.2898 H       1  LIG1        0.1324
     30 H           3.9812    4.8270   -2.0725 H       1  LIG1        0.1084
     31 H           3.2809    2.1454   -1.8792 H       1  LIG1        0.1117
     32 H          -0.1575    3.2151    0.4855 H       1  LIG1        0.1267
     33 H           0.5218    4.6204    7.0958 H       1  LIG1        0.0505
     34 H           0.0813    3.6726    5.6763 H       1  LIG1        0.0593
     35 H          -0.5320    6.0131    5.3004 H       1  LIG1        0.0737
     36 H           1.0928    6.5559    5.7093 H       1  LIG1        0.0563
     37 H           2.8702    4.6882    6.4059 H       1  LIG1        0.0742
     38 H           2.3209    3.0148    6.4162 H       1  LIG1        0.0564
     39 H           0.3403    4.8343    3.2706 H       1  LIG1        0.0860
     40 H           0.8719    6.5435    3.2690 H       1  LIG1        0.0850
     41 H           3.6799    3.5932    4.3679 H       1  LIG1        0.0886
     42 H           2.0271    3.0624    3.9318 H       1  LIG1        0.0871
     43 H           2.2289    3.0849    2.0080 H       1  LIG1        0.0752
     44 H           0.9979    4.2795    1.6596 H       1  LIG1        0.0731
     45 H           2.7927    6.1020    1.9126 H       1  LIG1        0.0937
     46 H           3.9458    4.8158    2.3704 H       1  LIG1        0.0921
     47 H           2.9489    5.8553    4.2096 H       1  LIG1        0.1605
     48 H           3.8913    2.7684    0.5682 H       1  LIG1        0.3395
@<TRIPOS>BOND
     1     1     3   ar
     2     1     4   ar
     3     2     5   ar
     4     2     6   ar
     5     3     7   ar
     6     4     8   ar
     7     5     9   ar
     8     6    10   ar
     9     7    11   ar
    10     8    11   ar
    11     9    12   ar
    12    10    12   ar
    13    11    20    1
    14    12    20    1
    15    13    14    1
    16    13    15    1
    17    14    16    1
    18    15    17    1
    19    16    21    1
    20    17    21    1
    21    18    19    1
    22    18    20    1
    23    19    21    1
    24    20    22    1
    25     1    23    1
    26     2    24    1
    27     3    25    1
    28     4    26    1
    29     5    27    1
    30     6    28    1
    31     7    29    1
    32     8    30    1
    33     9    31    1
    34    10    32    1
    35    13    33    1
    36    13    34    1
    37    14    35    1
    38    14    36    1
    39    15    37    1
    40    15    38    1
    41    16    39    1
    42    16    40    1
    43    17    41    1
    44    17    42    1
    45    18    43    1
    46    18    44    1
    47    19    45    1
    48    19    46    1
    49    21    47    1
    50    22    48    1
