@<TRIPOS>MOLECULE
AP-518/42402986
 49 51 0 0 0
SMALL
USER_CHARGES

@<TRIPOS>ATOM
      1 C           0.9983    0.4867   -1.5970 C.ar    1  LIG1       -0.1086
      2 C          -0.0052    1.3589   -2.0190 C.ar    1  LIG1       -0.1068
      3 C           1.9342    0.9057   -0.6515 C.ar    1  LIG1       -0.1047
      4 C           1.0818    4.6990    6.1734 C.ar    1  LIG1       -0.0976
      5 C           0.4480    4.6180    4.9336 C.ar    1  LIG1       -0.0734
      6 C          -0.0724    2.6501   -1.4958 C.ar    1  LIG1       -0.0954
      7 C           1.8670    2.1969   -0.1282 C.ar    1  LIG1       -0.0929
      8 C           2.8054    7.3999   -2.4081 C.ar    1  LIG1       -0.1044
      9 C           1.4471    7.5508   -2.1288 C.ar    1  LIG1       -0.1017
     10 C           2.4543    4.4704    6.2714 C.ar    1  LIG1       -0.0675
     11 C           2.5593    4.0798    3.8895 C.ar    1  LIG1       -0.0212
     12 C           2.8443    5.3584   -1.1168 C.ar    1  LIG1       -0.0907
     13 C           1.1867    4.3084    3.7916 C.ar    1  LIG1        0.0311
     14 C           0.8637    3.0691   -0.5503 C.ar    1  LIG1       -0.0737
     15 C           3.5039    6.3036   -1.9023 C.ar    1  LIG1       -0.1153
     16 C           0.7875    6.6055   -1.3433 C.ar    1  LIG1       -0.1052
     17 C           1.4860    5.5093   -0.8373 C.ar    1  LIG1       -0.0721
     18 C           3.1931    4.1608    5.1295 C.ar    1  LIG1       -0.0042
     19 C           0.5264    4.2241    2.4984 C.2     1  LIG1        0.1120
     20 C           4.9561    6.1428   -2.2007 C.3     1  LIG1       -0.0446
     21 C          -0.6667    6.7889   -1.0566 C.3     1  LIG1       -0.0410
     22 C           5.1164    4.0368    6.5228 C.3     1  LIG1        0.0238
     23 C           0.7913    4.4705    0.0179 C.3     1  LIG1        0.0153
     24 N           1.3071    4.4909    1.3678 N.am    1  LIG1       -0.3246
     25 O          -0.6837    3.9462    2.4246 O.2     1  LIG1       -0.4731
     26 O           4.5323    3.9378    5.2247 O.3     1  LIG1       -0.4170
     27 H           1.0496   -0.5192   -2.0035 H       1  LIG1        0.1137
     28 H          -0.7348    1.0324   -2.7544 H       1  LIG1        0.1134
     29 H           2.7149    0.2265   -0.3219 H       1  LIG1        0.1160
     30 H           0.5066    4.9401    7.0625 H       1  LIG1        0.1285
     31 H          -0.6216    4.7990    4.8682 H       1  LIG1        0.1204
     32 H          -0.8576    3.3228   -1.8307 H       1  LIG1        0.1153
     33 H           2.6006    2.5148    0.6079 H       1  LIG1        0.1202
     34 H           3.3113    8.1416   -3.0206 H       1  LIG1        0.1183
     35 H           0.9119    8.4088   -2.5271 H       1  LIG1        0.1177
     36 H           2.9424    4.5350    7.2401 H       1  LIG1        0.1190
     37 H           3.1401    3.8387    3.0020 H       1  LIG1        0.1529
     38 H           3.3895    4.5036   -0.7233 H       1  LIG1        0.1276
     39 H           5.5614    6.6400   -1.4327 H       1  LIG1        0.0557
     40 H           5.2409    5.0832   -2.2360 H       1  LIG1        0.0529
     41 H           5.2121    6.5730   -3.1778 H       1  LIG1        0.0524
     42 H          -1.2709    6.2974   -1.8281 H       1  LIG1        0.0566
     43 H          -0.9346    6.3660   -0.0806 H       1  LIG1        0.0541
     44 H          -0.9340    7.8525   -1.0280 H       1  LIG1        0.0546
     45 H           6.1886    3.8362    6.4568 H       1  LIG1        0.1229
     46 H           4.6406    3.3168    7.1933 H       1  LIG1        0.0895
     47 H           4.9603    5.0478    6.9066 H       1  LIG1        0.0894
     48 H          -0.2616    4.7635    0.1221 H       1  LIG1        0.1575
     49 H           2.2740    4.7744    1.4882 H       1  LIG1        0.3048
@<TRIPOS>BOND
     1     1     2   ar
     2     1     3   ar
     3     2     6   ar
     4     3     7   ar
     5     4     5   ar
     6     4    10   ar
     7     5    13   ar
     8     6    14   ar
     9     7    14   ar
    10     8     9   ar
    11     8    15   ar
    12     9    16   ar
    13    10    18   ar
    14    11    13   ar
    15    11    18   ar
    16    12    15   ar
    17    12    17   ar
    18    13    19    1
    19    14    23    1
    20    15    20    1
    21    16    17   ar
    22    16    21    1
    23    17    23    1
    24    18    26    1
    25    19    24   am
    26    19    25    2
    27    22    26    1
    28    23    24    1
    29     1    27    1
    30     2    28    1
    31     3    29    1
    32     4    30    1
    33     5    31    1
    34     6    32    1
    35     7    33    1
    36     8    34    1
    37     9    35    1
    38    10    36    1
    39    11    37    1
    40    12    38    1
    41    20    39    1
    42    20    40    1
    43    20    41    1
    44    21    42    1
    45    21    43    1
    46    21    44    1
    47    22    45    1
    48    22    46    1
    49    22    47    1
    50    23    48    1
    51    24    49    1
