@<TRIPOS>MOLECULE
AE-842/32998051
 42 46 0 0 0
SMALL
USER_CHARGES

@<TRIPOS>ATOM
      1 C           1.8515    7.4827   -2.6181 C.ar    1  LIG1       -0.1061
      2 C           0.0852    0.7975   -1.4842 C.ar    1  LIG1       -0.1076
      3 C           1.1328    7.2744   -1.4409 C.ar    1  LIG1       -0.1047
      4 C           2.8193    6.5606   -3.0168 C.ar    1  LIG1       -0.1022
      5 C          -0.4769    1.9863   -1.0192 C.ar    1  LIG1       -0.1054
      6 C           1.4718    0.6567   -1.5402 C.ar    1  LIG1       -0.1021
      7 C           1.3820    6.1442   -0.6624 C.ar    1  LIG1       -0.0941
      8 C           3.0685    5.4304   -2.2382 C.ar    1  LIG1       -0.0907
      9 C           0.3477    3.0345   -0.6102 C.ar    1  LIG1       -0.0927
     10 C           2.2964    1.7048   -1.1313 C.ar    1  LIG1       -0.0875
     11 C           2.3498    5.2222   -1.0610 C.ar    1  LIG1       -0.0657
     12 C           1.7343    2.8938   -0.6663 C.ar    1  LIG1       -0.0626
     13 C           0.8720    3.0071    2.8685 C.3     1  LIG1       -0.0664
     14 C           2.0093    2.2129    3.5671 C.3     1  LIG1       -0.0644
     15 C           2.6265    4.4447    3.5538 C.3     1  LIG1       -0.0594
     16 C           1.5468    4.3324    2.4360 C.3     1  LIG1       -0.0596
     17 C           3.2535    3.0723    3.2309 C.3     1  LIG1       -0.0444
     18 C           2.5443    4.2320    1.2824 C.3     1  LIG1       -0.0072
     19 C           3.3350    3.0092    1.7040 C.3     1  LIG1        0.0362
     20 C           2.6167    4.0143   -0.2294 C.3     1  LIG1        0.0722
     21 N           4.5201    3.1932    0.8864 N.2     1  LIG1       -0.2808
     22 N           4.1073    3.5874   -0.2602 N.2     1  LIG1       -0.2577
     23 H           1.6563    8.3620   -3.2250 H       1  LIG1        0.1170
     24 H          -0.5570   -0.0190   -1.8013 H       1  LIG1        0.1153
     25 H           0.3784    7.9917   -1.1309 H       1  LIG1        0.1176
     26 H           3.3782    6.7219   -3.9338 H       1  LIG1        0.1183
     27 H          -1.5565    2.0958   -0.9745 H       1  LIG1        0.1154
     28 H           1.9098   -0.2692   -1.9012 H       1  LIG1        0.1170
     29 H           0.8172    5.9902    0.2534 H       1  LIG1        0.1184
     30 H           3.8244    4.7176   -2.5566 H       1  LIG1        0.1226
     31 H          -0.0991    3.9572   -0.2495 H       1  LIG1        0.1182
     32 H           3.3756    1.5862   -1.1786 H       1  LIG1        0.1290
     33 H           0.4578    2.4652    2.0127 H       1  LIG1        0.0503
     34 H           0.0613    3.1938    3.5814 H       1  LIG1        0.0469
     35 H           1.8389    2.1726    4.6497 H       1  LIG1        0.0472
     36 H           2.0758    1.1825    3.2028 H       1  LIG1        0.0499
     37 H           3.3287    5.2762    3.4304 H       1  LIG1        0.0595
     38 H           2.1952    4.5086    4.5601 H       1  LIG1        0.0514
     39 H           0.8711    5.1869    2.3702 H       1  LIG1        0.0828
     40 H           4.1540    2.8006    3.7816 H       1  LIG1        0.0894
     41 H           3.1577    5.1483    1.4008 H       1  LIG1        0.0619
     42 H           2.8995    2.0541    1.3739 H       1  LIG1        0.1251
@<TRIPOS>BOND
     1     1     3   ar
     2     1     4   ar
     3     2     5   ar
     4     2     6   ar
     5     3     7   ar
     6     4     8   ar
     7     5     9   ar
     8     6    10   ar
     9     7    11   ar
    10     8    11   ar
    11     9    12   ar
    12    10    12   ar
    13    11    20    1
    14    12    20    1
    15    13    14    1
    16    13    16    1
    17    14    17    1
    18    15    16    1
    19    15    17    1
    20    16    18    1
    21    17    19    1
    22    18    19    1
    23    18    20    1
    24    19    21    1
    25    20    22    1
    26    21    22    2
    27     1    23    1
    28     2    24    1
    29     3    25    1
    30     4    26    1
    31     5    27    1
    32     6    28    1
    33     7    29    1
    34     8    30    1
    35     9    31    1
    36    10    32    1
    37    13    33    1
    38    13    34    1
    39    14    35    1
    40    14    36    1
    41    15    37    1
    42    15    38    1
    43    16    39    1
    44    17    40    1
    45    18    41    1
    46    19    42    1
