@<TRIPOS>MOLECULE
AA-504/07998058
 39 42 0 0 0
SMALL
USER_CHARGES

@<TRIPOS>ATOM
      1 C           0.2719    0.9587   -2.1443 C.ar    1  LIG1       -0.1017
      2 C           1.9573    7.2440   -2.7952 C.ar    1  LIG1       -0.1018
      3 C           1.2068    4.5910    6.4263 C.ar    1  LIG1       -0.1067
      4 C          -0.3900    2.0448   -1.5718 C.ar    1  LIG1       -0.0961
      5 C           1.5807    0.6606   -1.7650 C.ar    1  LIG1       -0.0969
      6 C           0.8731    6.5740   -2.2285 C.ar    1  LIG1       -0.0962
      7 C           3.2270    7.1184   -2.2313 C.ar    1  LIG1       -0.0962
      8 C           0.6702    5.1875    5.2854 C.ar    1  LIG1       -0.1024
      9 C           2.3723    3.8303    6.3332 C.ar    1  LIG1       -0.1027
     10 C           0.2569    2.8329   -0.6199 C.ar    1  LIG1       -0.0748
     11 C           2.2276    1.4487   -0.8131 C.ar    1  LIG1       -0.0756
     12 C           1.0584    5.7784   -1.0979 C.ar    1  LIG1       -0.0747
     13 C           3.4123    6.3228   -1.1007 C.ar    1  LIG1       -0.0741
     14 C           1.2990    5.0231    4.0511 C.ar    1  LIG1       -0.0874
     15 C           3.0011    3.6659    5.0990 C.ar    1  LIG1       -0.0877
     16 C           1.5657    2.5349   -0.2406 C.ar    1  LIG1       -0.0208
     17 C           2.3281    5.6528   -0.5340 C.ar    1  LIG1       -0.0203
     18 C           2.4645    4.2623    3.9580 C.ar    1  LIG1       -0.0601
     19 C           2.2443    3.3615    0.7576 C.2     1  LIG1        0.0488
     20 C           2.5225    4.8184    0.6518 C.2     1  LIG1        0.0474
     21 C           3.1469    4.0835    2.6195 C.3     1  LIG1        0.0591
     22 N           2.6406    2.8911    1.8981 N.2     1  LIG1       -0.3652
     23 N           3.0034    5.2843    1.7611 N.2     1  LIG1       -0.3679
     24 H          -0.2318    0.3451   -2.8854 H       1  LIG1        0.1215
     25 H           1.8130    7.8635   -3.6755 H       1  LIG1        0.1223
     26 H           0.7178    4.7203    7.3875 H       1  LIG1        0.1174
     27 H          -1.4089    2.2768   -1.8674 H       1  LIG1        0.1222
     28 H           2.0960   -0.1853   -2.2105 H       1  LIG1        0.1214
     29 H          -0.1155    6.6721   -2.6676 H       1  LIG1        0.1211
     30 H           4.0713    7.6398   -2.6728 H       1  LIG1        0.1203
     31 H          -0.2366    5.7808    5.3579 H       1  LIG1        0.1173
     32 H           2.7910    3.3667    7.2215 H       1  LIG1        0.1171
     33 H          -0.2682    3.6770   -0.1801 H       1  LIG1        0.1288
     34 H           3.2475    1.2071   -0.5252 H       1  LIG1        0.1283
     35 H           0.2066    5.2608   -0.6644 H       1  LIG1        0.1314
     36 H           4.4061    6.2322   -0.6698 H       1  LIG1        0.1334
     37 H           0.8737    5.4914    3.1674 H       1  LIG1        0.1298
     38 H           3.9087    3.0713    5.0359 H       1  LIG1        0.1296
     39 H           4.2211    3.9321    2.8205 H       1  LIG1        0.1925
@<TRIPOS>BOND
     1     1     4   ar
     2     1     5   ar
     3     2     6   ar
     4     2     7   ar
     5     3     8   ar
     6     3     9   ar
     7     4    10   ar
     8     5    11   ar
     9     6    12   ar
    10     7    13   ar
    11     8    14   ar
    12     9    15   ar
    13    10    16   ar
    14    11    16   ar
    15    12    17   ar
    16    13    17   ar
    17    14    18   ar
    18    15    18   ar
    19    16    19    1
    20    17    20    1
    21    18    21    1
    22    19    20    1
    23    19    22    2
    24    20    23    2
    25    21    22    1
    26    21    23    1
    27     1    24    1
    28     2    25    1
    29     3    26    1
    30     4    27    1
    31     5    28    1
    32     6    29    1
    33     7    30    1
    34     8    31    1
    35     9    32    1
    36    10    33    1
    37    11    34    1
    38    12    35    1
    39    13    36    1
    40    14    37    1
    41    15    38    1
    42    21    39    1
