@<TRIPOS>MOLECULE
AK-968/12971217
 41 44 0 0 0
SMALL
USER_CHARGES

@<TRIPOS>ATOM
      1 C           1.5270    4.3247    6.5661 C.ar    1  LIG1       -0.1036
      2 C          -0.0158    1.0340   -1.6586 C.ar    1  LIG1       -0.1061
      3 C           2.6326    3.6208    6.0887 C.ar    1  LIG1       -0.0986
      4 C           0.6980    5.0081    5.6765 C.ar    1  LIG1       -0.0975
      5 C           1.3134    0.6132   -1.6141 C.ar    1  LIG1       -0.1047
      6 C          -0.3851    2.2418   -1.0667 C.ar    1  LIG1       -0.1039
      7 C           2.9093    3.6006    4.7217 C.ar    1  LIG1       -0.0777
      8 C           0.9746    4.9879    4.3096 C.ar    1  LIG1       -0.0756
      9 C           2.2731    1.4001   -0.9774 C.ar    1  LIG1       -0.0980
     10 C           0.5746    3.0287   -0.4301 C.ar    1  LIG1       -0.0969
     11 C           1.9728    7.3279   -2.9479 C.ar    1  LIG1        0.0397
     12 C           2.0803    4.2841    3.8321 C.ar    1  LIG1       -0.0358
     13 C           1.9037    2.6079   -0.3854 C.ar    1  LIG1       -0.0827
     14 C           2.3264    5.6650   -0.7360 C.ar    1  LIG1        0.1139
     15 C           3.2231    6.7657   -2.6909 C.ar    1  LIG1        0.1560
     16 C           0.8992    7.0588   -2.0989 C.ar    1  LIG1        0.1574
     17 C           3.3999    5.9342   -1.5850 C.ar    1  LIG1        0.1923
     18 C           1.0760    6.2273   -0.9930 C.ar    1  LIG1        0.1955
     19 C           2.3689    4.2630    2.4069 C.2     1  LIG1        0.0113
     20 C           3.0526    3.0803    1.7774 C.3     1  LIG1        0.0315
     21 C           2.9313    3.4513    0.2969 C.3     1  LIG1        0.0192
     22 N           2.0963    5.2345    1.5938 N.2     1  LIG1       -0.3231
     23 N           2.5000    4.8488    0.3504 N.pl3   1  LIG1       -0.3110
     24 F           4.2541    7.0247   -3.5057 F       1  LIG1       -0.2389
     25 F          -0.3018    7.5983   -2.3459 F       1  LIG1       -0.2388
     26 F           4.6065    5.4006   -1.3467 F       1  LIG1       -0.2289
     27 F           0.0371    5.9746   -0.1844 F       1  LIG1       -0.2243
     28 H           1.3116    4.3404    7.6304 H       1  LIG1        0.1197
     29 H          -0.7626    0.4218   -2.1557 H       1  LIG1        0.1175
     30 H           3.2781    3.0889    6.7815 H       1  LIG1        0.1199
     31 H          -0.1630    5.5559    6.0482 H       1  LIG1        0.1194
     32 H           1.6013   -0.3268   -2.0759 H       1  LIG1        0.1174
     33 H          -1.4196    2.5704   -1.1022 H       1  LIG1        0.1164
     34 H           3.7734    3.0490    4.3604 H       1  LIG1        0.1293
     35 H           0.3219    5.5242    3.6256 H       1  LIG1        0.1334
     36 H           3.3062    1.0641   -0.9474 H       1  LIG1        0.1200
     37 H           0.2776    3.9683    0.0285 H       1  LIG1        0.1199
     38 H           1.8351    7.9754   -3.8087 H       1  LIG1        0.1752
     39 H           4.0996    3.0766    2.0990 H       1  LIG1        0.1021
     40 H           2.5745    2.1372    2.0561 H       1  LIG1        0.1015
     41 H           3.8905    3.3414   -0.2198 H       1  LIG1        0.1372
@<TRIPOS>BOND
     1     1     3   ar
     2     1     4   ar
     3     2     5   ar
     4     2     6   ar
     5     3     7   ar
     6     4     8   ar
     7     5     9   ar
     8     6    10   ar
     9     7    12   ar
    10     8    12   ar
    11     9    13   ar
    12    10    13   ar
    13    11    15   ar
    14    11    16   ar
    15    12    19    1
    16    13    21    1
    17    14    17   ar
    18    14    18   ar
    19    14    23    1
    20    15    17   ar
    21    15    24    1
    22    16    18   ar
    23    16    25    1
    24    17    26    1
    25    18    27    1
    26    19    20    1
    27    19    22    2
    28    20    21    1
    29    21    23    1
    30    22    23    1
    31     1    28    1
    32     2    29    1
    33     3    30    1
    34     4    31    1
    35     5    32    1
    36     6    33    1
    37     7    34    1
    38     8    35    1
    39     9    36    1
    40    10    37    1
    41    11    38    1
    42    20    39    1
    43    20    40    1
    44    21    41    1
