@<TRIPOS>MOLECULE
AE-848/30701030
 43 46 0 0 0
SMALL
USER_CHARGES

@<TRIPOS>ATOM
      1 C           1.5269    4.3244    6.5663 C.ar    1  LIG1       -0.1019
      2 C          -0.0154    1.0342   -1.6585 C.ar    1  LIG1       -0.1043
      3 C           2.6324    3.6204    6.0888 C.ar    1  LIG1       -0.0971
      4 C           0.6980    5.0082    5.6768 C.ar    1  LIG1       -0.0960
      5 C           1.0771    1.5194   -2.3773 C.ar    1  LIG1       -0.1033
      6 C          -0.1485    1.3362   -0.3033 C.ar    1  LIG1       -0.1027
      7 C           2.9092    3.6004    4.7219 C.ar    1  LIG1       -0.0772
      8 C           0.9748    4.9881    4.3098 C.ar    1  LIG1       -0.0751
      9 C           2.0366    2.3066   -1.7408 C.ar    1  LIG1       -0.0976
     10 C           0.8112    2.1235    0.3333 C.ar    1  LIG1       -0.0975
     11 C           3.0988    5.4749   -1.8816 C.ar    1  LIG1       -0.0280
     12 C           1.3777    6.6871   -0.6960 C.ar    1  LIG1       -0.0312
     13 C           2.9212    6.3052   -2.9883 C.ar    1  LIG1       -0.0378
     14 C           1.2002    7.5174   -1.8027 C.ar    1  LIG1       -0.0391
     15 C           2.0804    4.2842    3.8323 C.ar    1  LIG1       -0.0344
     16 C           1.9037    2.6087   -0.3855 C.ar    1  LIG1       -0.0832
     17 C           2.3269    5.6658   -0.7356 C.ar    1  LIG1       -0.0065
     18 C           1.9720    7.3265   -2.9489 C.ar    1  LIG1        0.0644
     19 C           2.3690    4.2632    2.4071 C.2     1  LIG1        0.0110
     20 C           3.0525    3.0805    1.7774 C.3     1  LIG1        0.0334
     21 C           2.9314    3.4517    0.2970 C.3     1  LIG1        0.0238
     22 N           2.0966    5.2349    1.5942 N.2     1  LIG1       -0.3203
     23 N           2.5003    4.8494    0.3507 N.pl3   1  LIG1       -0.3148
     24 N           1.7940    8.1754   -4.0732 N.pl3   1  LIG1       -0.0606
     25 O           2.5012    7.9899   -5.0929 O.2     1  LIG1       -0.1674
     26 O           0.9345    9.0877   -4.0162 O.2     1  LIG1       -0.2561
     27 H           1.3115    4.3400    7.6306 H       1  LIG1        0.1224
     28 H          -0.7632    0.4224   -2.1547 H       1  LIG1        0.1195
     29 H           3.2777    3.0883    6.7816 H       1  LIG1        0.1214
     30 H          -0.1628    5.5560    6.0485 H       1  LIG1        0.1211
     31 H           1.1803    1.2852   -3.4328 H       1  LIG1        0.1198
     32 H          -0.9995    0.9596    0.2564 H       1  LIG1        0.1176
     33 H           3.7732    3.0486    4.3605 H       1  LIG1        0.1305
     34 H           0.3221    5.5246    3.6259 H       1  LIG1        0.1350
     35 H           2.8847    2.6801   -2.3087 H       1  LIG1        0.1212
     36 H           0.6994    2.3536    1.3895 H       1  LIG1        0.1159
     37 H           3.8405    4.6814   -1.9238 H       1  LIG1        0.1484
     38 H           0.7712    6.8442    0.1923 H       1  LIG1        0.1396
     39 H           3.5296    6.1459   -3.8753 H       1  LIG1        0.1692
     40 H           0.4581    8.3107   -1.7575 H       1  LIG1        0.1697
     41 H           4.0995    3.0766    2.0991 H       1  LIG1        0.1037
     42 H           2.5743    2.1375    2.0560 H       1  LIG1        0.1043
     43 H           3.8906    3.3418   -0.2196 H       1  LIG1        0.1401
@<TRIPOS>BOND
     1     1     3   ar
     2     1     4   ar
     3     2     5   ar
     4     2     6   ar
     5     3     7   ar
     6     4     8   ar
     7     5     9   ar
     8     6    10   ar
     9     7    15   ar
    10     8    15   ar
    11     9    16   ar
    12    10    16   ar
    13    11    13   ar
    14    11    17   ar
    15    12    14   ar
    16    12    17   ar
    17    13    18   ar
    18    14    18   ar
    19    15    19    1
    20    16    21    1
    21    17    23    1
    22    18    24    1
    23    19    20    1
    24    19    22    2
    25    20    21    1
    26    21    23    1
    27    22    23    1
    28    24    25    1
    29    24    26    2
    30     1    27    1
    31     2    28    1
    32     3    29    1
    33     4    30    1
    34     5    31    1
    35     6    32    1
    36     7    33    1
    37     8    34    1
    38     9    35    1
    39    10    36    1
    40    11    37    1
    41    12    38    1
    42    13    39    1
    43    14    40    1
    44    20    41    1
    45    20    42    1
    46    21    43    1
