@<TRIPOS>MOLECULE
AN-329/40887405
 41 43 0 0 0
SMALL
USER_CHARGES

@<TRIPOS>ATOM
      1 C           0.2775    0.6277   -2.2488 C.ar    1  LIG1       -0.1063
      2 C           2.1195    7.5627   -1.9660 C.ar    1  LIG1       -0.1053
      3 C           1.5928    1.0051   -2.5194 C.ar    1  LIG1       -0.1015
      4 C          -0.4349    1.2622   -1.2312 C.ar    1  LIG1       -0.1045
      5 C           3.0568    6.5919   -2.3190 C.ar    1  LIG1       -0.1045
      6 C           1.1850    7.2986   -0.9648 C.ar    1  LIG1       -0.1023
      7 C           2.1956    2.0171   -1.7724 C.ar    1  LIG1       -0.0919
      8 C           0.1680    2.2742   -0.4841 C.ar    1  LIG1       -0.0956
      9 C           3.0597    5.3569   -1.6705 C.ar    1  LIG1       -0.0981
     10 C           1.1878    6.0636   -0.3163 C.ar    1  LIG1       -0.0943
     11 C           0.9173    5.5110    5.2919 C.ar    1  LIG1       -0.0835
     12 C           1.2925    5.3417    3.9593 C.ar    1  LIG1       -0.0452
     13 C           2.6036    3.9188    5.9690 C.ar    1  LIG1       -0.0703
     14 C           1.4833    2.6517   -0.7547 C.ar    1  LIG1       -0.0653
     15 C           2.1251    5.0928   -0.6692 C.ar    1  LIG1       -0.0689
     16 C           1.5729    4.7996    6.2969 C.ar    1  LIG1       -0.1023
     17 C           2.3232    4.4609    3.6314 C.ar    1  LIG1        0.0450
     18 C           2.9788    3.7495    4.6362 C.ar    1  LIG1        0.0061
     19 C           1.6200    3.8543    1.4932 C.2     1  LIG1        0.1952
     20 C           1.1708    4.9813    7.7213 C.3     1  LIG1       -0.0380
     21 C           2.1274    3.7336    0.0446 C.3     1  LIG1        0.1052
     22 O           0.4822    3.6185    1.8800 O.2     1  LIG1       -0.4330
     23 O           2.6731    4.3133    2.2873 O.3     1  LIG1       -0.2948
     24 BR          4.3824    2.5432    4.2272 Br      1  LIG1       -0.0944
     25 H          -0.1922   -0.1594   -2.8315 H       1  LIG1        0.1168
     26 H           2.1183    8.5248   -2.4701 H       1  LIG1        0.1178
     27 H           2.1472    0.5120   -3.3124 H       1  LIG1        0.1164
     28 H          -1.4593    0.9693   -1.0210 H       1  LIG1        0.1165
     29 H           3.7853    6.7978   -3.0978 H       1  LIG1        0.1178
     30 H           0.4558    8.0546   -0.6890 H       1  LIG1        0.1196
     31 H           3.2209    2.3045   -1.9901 H       1  LIG1        0.1232
     32 H          -0.3947    2.7629    0.3069 H       1  LIG1        0.1211
     33 H           3.7935    4.6063   -1.9522 H       1  LIG1        0.1152
     34 H           0.4558    5.8667    0.4625 H       1  LIG1        0.1241
     35 H           0.1129    6.1996    5.5371 H       1  LIG1        0.1370
     36 H           0.7771    5.8995    3.1818 H       1  LIG1        0.1432
     37 H           3.1096    3.3685    6.7593 H       1  LIG1        0.1423
     38 H           0.3854    4.2646    7.9911 H       1  LIG1        0.0620
     39 H           2.0227    4.8346    8.3978 H       1  LIG1        0.0581
     40 H           0.7927    5.9960    7.9024 H       1  LIG1        0.0590
     41 H           3.1964    3.4760    0.2025 H       1  LIG1        0.1583
@<TRIPOS>BOND
     1     1     3   ar
     2     1     4   ar
     3     2     5   ar
     4     2     6   ar
     5     3     7   ar
     6     4     8   ar
     7     5     9   ar
     8     6    10   ar
     9     7    14   ar
    10     8    14   ar
    11     9    15   ar
    12    10    15   ar
    13    11    12   ar
    14    11    16   ar
    15    12    17   ar
    16    13    16   ar
    17    13    18   ar
    18    14    21    1
    19    15    21    1
    20    16    20    1
    21    17    18   ar
    22    17    23    1
    23    18    24    1
    24    19    21    1
    25    19    22    2
    26    19    23    1
    27     1    25    1
    28     2    26    1
    29     3    27    1
    30     4    28    1
    31     5    29    1
    32     6    30    1
    33     7    31    1
    34     8    32    1
    35     9    33    1
    36    10    34    1
    37    11    35    1
    38    12    36    1
    39    13    37    1
    40    20    38    1
    41    20    39    1
    42    20    40    1
    43    21    41    1
