@<TRIPOS>MOLECULE
AN-329/40887418
 41 43 0 0 0
SMALL
USER_CHARGES

@<TRIPOS>ATOM
      1 C           0.2793    0.6271   -2.2488 C.ar    1  LIG1       -0.1050
      2 C           2.1211    7.5624   -1.9713 C.ar    1  LIG1       -0.1059
      3 C           1.5951    1.0041   -2.5169 C.ar    1  LIG1       -0.1044
      4 C          -0.4354    1.2631   -1.2336 C.ar    1  LIG1       -0.1019
      5 C           3.0592    6.5910   -2.3207 C.ar    1  LIG1       -0.1017
      6 C           1.1843    7.2997   -0.9718 C.ar    1  LIG1       -0.1042
      7 C           2.1964    2.0171   -1.7699 C.ar    1  LIG1       -0.0985
      8 C           0.1659    2.2761   -0.4866 C.ar    1  LIG1       -0.0942
      9 C           3.0604    5.3569   -1.6706 C.ar    1  LIG1       -0.0927
     10 C           1.1856    6.0656   -0.3216 C.ar    1  LIG1       -0.0956
     11 C           1.2824    5.3458    3.9709 C.ar    1  LIG1       -0.0457
     12 C           0.9170    5.5079    5.3072 C.ar    1  LIG1       -0.0700
     13 C           2.6107    3.9147    5.9634 C.ar    1  LIG1       -0.0691
     14 C           1.4818    2.6531   -0.7547 C.ar    1  LIG1       -0.0693
     15 C           2.1236    5.0943   -0.6711 C.ar    1  LIG1       -0.0661
     16 C           2.9760    3.7527    4.6270 C.ar    1  LIG1       -0.0600
     17 C           2.3119    4.4682    3.6308 C.ar    1  LIG1        0.0314
     18 C           1.5812    4.7924    6.3035 C.ar    1  LIG1       -0.0352
     19 C           1.6135    3.8587    1.4919 C.2     1  LIG1        0.1932
     20 C           4.0797    2.8085    4.2809 C.3     1  LIG1       -0.0302
     21 C           2.1242    3.7360    0.0446 C.3     1  LIG1        0.1045
     22 O           0.4747    3.6235    1.8764 O.2     1  LIG1       -0.4345
     23 O           2.6648    4.3188    2.2877 O.3     1  LIG1       -0.2984
     24 BR          1.0857    5.0127    8.1143 Br      1  LIG1       -0.1053
     25 H          -0.1892   -0.1607   -2.8315 H       1  LIG1        0.1182
     26 H           2.1211    8.5238   -2.4767 H       1  LIG1        0.1173
     27 H           2.1514    0.5098   -3.3080 H       1  LIG1        0.1183
     28 H          -1.4603    0.9706   -1.0254 H       1  LIG1        0.1200
     29 H           3.7894    6.7958   -3.0982 H       1  LIG1        0.1168
     30 H           0.4546    8.0561   -0.6987 H       1  LIG1        0.1171
     31 H           3.2222    2.3041   -1.9857 H       1  LIG1        0.1140
     32 H          -0.3986    2.7658    0.3025 H       1  LIG1        0.1243
     33 H           3.7949    4.6060   -1.9496 H       1  LIG1        0.1222
     34 H           0.4518    5.8698    0.4558 H       1  LIG1        0.1212
     35 H           0.7607    5.9054    3.1993 H       1  LIG1        0.1423
     36 H           0.1133    6.1962    5.5553 H       1  LIG1        0.1420
     37 H           3.1323    3.3546    6.7363 H       1  LIG1        0.1434
     38 H           3.6783    1.8047    4.0987 H       1  LIG1        0.0620
     39 H           4.6168    3.1383    3.3828 H       1  LIG1        0.0625
     40 H           4.8183    2.7480    5.0900 H       1  LIG1        0.0587
     41 H           3.1928    3.4786    0.2052 H       1  LIG1        0.1582
@<TRIPOS>BOND
     1     1     3   ar
     2     1     4   ar
     3     2     5   ar
     4     2     6   ar
     5     3     7   ar
     6     4     8   ar
     7     5     9   ar
     8     6    10   ar
     9     7    14   ar
    10     8    14   ar
    11     9    15   ar
    12    10    15   ar
    13    11    12   ar
    14    11    17   ar
    15    12    18   ar
    16    13    16   ar
    17    13    18   ar
    18    14    21    1
    19    15    21    1
    20    16    17   ar
    21    16    20    1
    22    17    23    1
    23    18    24    1
    24    19    21    1
    25    19    22    2
    26    19    23    1
    27     1    25    1
    28     2    26    1
    29     3    27    1
    30     4    28    1
    31     5    29    1
    32     6    30    1
    33     7    31    1
    34     8    32    1
    35     9    33    1
    36    10    34    1
    37    11    35    1
    38    12    36    1
    39    13    37    1
    40    20    38    1
    41    20    39    1
    42    20    40    1
    43    21    41    1
