@<TRIPOS>MOLECULE
AF-407/36112005
 31 32 0 0 0
SMALL
USER_CHARGES

@<TRIPOS>ATOM
      1 C           1.3368    4.5446    6.0907 C.ar    1  LIG1       -0.0977
      2 C           2.0283    7.4172   -2.0650 C.ar    1  LIG1       -0.1018
      3 C           2.6618    4.1676    5.8723 C.ar    1  LIG1       -0.0912
      4 C           0.4929    4.7869    5.0069 C.ar    1  LIG1       -0.0932
      5 C           2.9910    6.4808   -2.4415 C.ar    1  LIG1       -0.0994
      6 C           1.1157    7.1121   -1.0551 C.ar    1  LIG1       -0.0981
      7 C           3.1430    4.0329    4.5699 C.ar    1  LIG1       -0.0635
      8 C           0.9739    4.6521    3.7045 C.ar    1  LIG1       -0.0656
      9 C           3.0411    5.2390   -1.8082 C.ar    1  LIG1       -0.0915
     10 C           1.1659    5.8702   -0.4218 C.ar    1  LIG1       -0.0886
     11 C           2.2990    4.2752    3.4860 C.ar    1  LIG1        0.0396
     12 C           2.1286    4.9337   -0.7983 C.ar    1  LIG1       -0.0579
     13 C           2.8006    4.1347    2.1283 C.2     1  LIG1        0.1904
     14 C           2.1825    3.5823   -0.1089 C.3     1  LIG1        0.1193
     15 C           1.3312    2.4566   -0.7474 C.3     1  LIG1        0.1952
     16 O           3.9760    4.3316    1.7921 O.2     1  LIG1       -0.4380
     17 O           1.8111    3.7554    1.2629 O.3     1  LIG1       -0.3156
     18 CL          2.3447    1.0519   -1.2190 Cl      1  LIG1       -0.1061
     19 CL          0.5511    3.0778   -2.2498 Cl      1  LIG1       -0.1028
     20 CL          0.0267    1.8781    0.3375 Cl      1  LIG1       -0.1043
     21 H           0.9623    4.6496    7.1047 H       1  LIG1        0.1300
     22 H           1.9903    8.3846   -2.5572 H       1  LIG1        0.1228
     23 H           3.3189    3.9792    6.7163 H       1  LIG1        0.1249
     24 H          -0.5389    5.0801    5.1769 H       1  LIG1        0.1231
     25 H           3.7023    6.7187   -3.2270 H       1  LIG1        0.1210
     26 H           0.3668    7.8413   -0.7610 H       1  LIG1        0.1200
     27 H           4.1772    3.7386    4.4111 H       1  LIG1        0.1451
     28 H           0.3073    4.8435    2.8676 H       1  LIG1        0.1424
     29 H           3.7946    4.5154   -2.1082 H       1  LIG1        0.1266
     30 H           0.4508    5.6411    0.3638 H       1  LIG1        0.1329
     31 H           3.2348    3.2671   -0.0855 H       1  LIG1        0.1819
@<TRIPOS>BOND
     1     1     3   ar
     2     1     4   ar
     3     2     5   ar
     4     2     6   ar
     5     3     7   ar
     6     4     8   ar
     7     5     9   ar
     8     6    10   ar
     9     7    11   ar
    10     8    11   ar
    11     9    12   ar
    12    10    12   ar
    13    11    13    1
    14    12    14    1
    15    13    16    2
    16    13    17    1
    17    14    15    1
    18    14    17    1
    19    15    18    1
    20    15    19    1
    21    15    20    1
    22     1    21    1
    23     2    22    1
    24     3    23    1
    25     4    24    1
    26     5    25    1
    27     6    26    1
    28     7    27    1
    29     8    28    1
    30     9    29    1
    31    10    30    1
    32    14    31    1
