@<TRIPOS>MOLECULE
AP-518/41793438
 42 44 0 0 0
SMALL
USER_CHARGES

@<TRIPOS>ATOM
      1 C           1.8364    7.2208   -2.3001 C.ar    1  LIG1       -0.1095
      2 C           2.9021    6.3775   -2.6136 C.ar    1  LIG1       -0.1060
      3 C           0.9763    6.8974   -1.2506 C.ar    1  LIG1       -0.1075
      4 C           2.9283    4.4653    6.0630 C.ar    1  LIG1       -0.0802
      5 C           3.4040    4.3522    4.7566 C.ar    1  LIG1       -0.0593
      6 C           3.1078    5.2104   -1.8778 C.ar    1  LIG1       -0.0959
      7 C           1.1819    5.7303   -0.5148 C.ar    1  LIG1       -0.0977
      8 C           1.5656    4.6517    6.2953 C.ar    1  LIG1       -0.0441
      9 C           1.1544    4.6121    3.9149 C.ar    1  LIG1       -0.0197
     10 C           2.5171    4.4256    3.6827 C.ar    1  LIG1        0.0318
     11 C           2.2476    4.8868   -0.8284 C.ar    1  LIG1       -0.0839
     12 C           0.6787    4.7251    5.2214 C.ar    1  LIG1        0.0680
     13 C           3.0230    4.3056    2.2910 C.2     1  LIG1        0.1093
     14 C          -0.2263    1.5630   -1.7007 C.3     1  LIG1       -0.0733
     15 C           0.9964    1.2247   -2.5553 C.3     1  LIG1       -0.0742
     16 C           0.2301    2.6311   -0.7115 C.3     1  LIG1       -0.0644
     17 C           2.1245    2.1189   -2.0512 C.3     1  LIG1       -0.0645
     18 C           1.7373    2.4204   -0.6070 C.3     1  LIG1       -0.0448
     19 C           2.4705    3.6178   -0.0280 C.3     1  LIG1       -0.0105
     20 N           2.1201    3.8156    1.3631 N.am    1  LIG1       -0.3345
     21 O           4.1855    4.6174    2.0462 O.2     1  LIG1       -0.4731
     22 F          -0.6299    4.9040    5.4442 F       1  LIG1       -0.2683
     23 H           1.6772    8.1302   -2.8722 H       1  LIG1        0.1128
     24 H           3.5726    6.6297   -3.4300 H       1  LIG1        0.1149
     25 H           0.1470    7.5544   -1.0056 H       1  LIG1        0.1124
     26 H           3.6189    4.4082    6.8992 H       1  LIG1        0.1384
     27 H           4.4679    4.2077    4.5868 H       1  LIG1        0.1475
     28 H           3.9407    4.5591   -2.1293 H       1  LIG1        0.1192
     29 H           0.5065    5.4863    0.3010 H       1  LIG1        0.1149
     30 H           1.1950    4.7398    7.3125 H       1  LIG1        0.1394
     31 H           0.4539    4.6711    3.0857 H       1  LIG1        0.1372
     32 H          -1.0638    1.9181   -2.3099 H       1  LIG1        0.0441
     33 H          -0.5649    0.6674   -1.1671 H       1  LIG1        0.0427
     34 H           1.2602    0.1688   -2.4236 H       1  LIG1        0.0424
     35 H           0.8061    1.3850   -3.6212 H       1  LIG1        0.0392
     36 H           0.0011    3.6266   -1.1113 H       1  LIG1        0.0427
     37 H          -0.2726    2.5356    0.2558 H       1  LIG1        0.0485
     38 H           3.1007    1.6303   -2.1280 H       1  LIG1        0.0459
     39 H           2.1607    3.0394   -2.6470 H       1  LIG1        0.0455
     40 H           1.9393    1.5390    0.0157 H       1  LIG1        0.0765
     41 H           3.5461    3.3890   -0.0204 H       1  LIG1        0.1369
     42 H           1.1944    3.5189    1.6496 H       1  LIG1        0.3011
@<TRIPOS>BOND
     1     1     2   ar
     2     1     3   ar
     3     2     6   ar
     4     3     7   ar
     5     4     5   ar
     6     4     8   ar
     7     5    10   ar
     8     6    11   ar
     9     7    11   ar
    10     8    12   ar
    11     9    10   ar
    12     9    12   ar
    13    10    13    1
    14    11    19    1
    15    12    22    1
    16    13    20   am
    17    13    21    2
    18    14    15    1
    19    14    16    1
    20    15    17    1
    21    16    18    1
    22    17    18    1
    23    18    19    1
    24    19    20    1
    25     1    23    1
    26     2    24    1
    27     3    25    1
    28     4    26    1
    29     5    27    1
    30     6    28    1
    31     7    29    1
    32     8    30    1
    33     9    31    1
    34    14    32    1
    35    14    33    1
    36    15    34    1
    37    15    35    1
    38    16    36    1
    39    16    37    1
    40    17    38    1
    41    17    39    1
    42    18    40    1
    43    19    41    1
    44    20    42    1
