@<TRIPOS>MOLECULE
AG-205/33133018
 41 44 0 0 0
SMALL
USER_CHARGES

@<TRIPOS>ATOM
      1 C           1.6351    1.2481   -2.6030 C.ar    1  LIG1       -0.0839
      2 C           0.3088    0.8299   -2.4955 C.ar    1  LIG1       -0.0911
      3 C           1.3018    5.4339    4.1937 C.ar    1  LIG1       -0.0651
      4 C           2.6768    3.5477    4.8175 C.ar    1  LIG1       -0.0629
      5 C           1.2326    5.5902   -0.6117 C.ar    1  LIG1       -0.0833
      6 C           3.4931    6.0668   -1.3185 C.ar    1  LIG1       -0.0829
      7 C           2.2013    2.0362   -1.6010 C.ar    1  LIG1       -0.0432
      8 C           1.1076    5.7379    5.5410 C.ar    1  LIG1       -0.0431
      9 C           2.4827    3.8518    6.1648 C.ar    1  LIG1       -0.0419
     10 C           0.7669    6.6552   -1.3827 C.ar    1  LIG1       -0.0481
     11 C           3.0274    7.1318   -2.0896 C.ar    1  LIG1       -0.0479
     12 C          -0.4514    1.1998   -1.3860 C.ar    1  LIG1       -0.0696
     13 C           2.0864    4.3388    3.8318 C.ar    1  LIG1       -0.0314
     14 C           2.5957    5.2960   -0.5796 C.ar    1  LIG1       -0.0737
     15 C           1.4411    2.4061   -0.4915 C.ar    1  LIG1       -0.0024
     16 C           1.6980    4.9470    6.5266 C.ar    1  LIG1        0.0628
     17 C           1.6643    7.4260   -2.1217 C.ar    1  LIG1        0.0610
     18 C           0.1148    1.9879   -0.3840 C.ar    1  LIG1        0.0095
     19 C           2.2887    4.0220    2.4269 C.2     1  LIG1        0.0106
     20 C           3.4434    4.6117    1.6648 C.3     1  LIG1        0.0284
     21 C           3.0951    4.1550    0.2456 C.3     1  LIG1        0.0196
     22 N           1.5371    3.2161    1.7457 N.2     1  LIG1       -0.3226
     23 N           2.0284    3.1796    0.4748 N.pl3   1  LIG1       -0.3225
     24 F           1.5117    5.2390    7.8205 F       1  LIG1       -0.2687
     25 F           1.2169    8.4470   -2.8643 F       1  LIG1       -0.2695
     26 BR         -0.9643    2.4621    1.1041 Br      1  LIG1       -0.0915
     27 H           2.2271    0.9597   -3.4667 H       1  LIG1        0.1301
     28 H          -0.1315    0.2156   -3.2756 H       1  LIG1        0.1299
     29 H           0.8371    6.0569    3.4340 H       1  LIG1        0.1425
     30 H           3.2907    2.6923    4.5467 H       1  LIG1        0.1473
     31 H           0.5257    4.9957   -0.0387 H       1  LIG1        0.1319
     32 H           4.5570    5.8449   -1.2999 H       1  LIG1        0.1349
     33 H           3.2364    2.3548   -1.6974 H       1  LIG1        0.1415
     34 H           0.4970    6.5906    5.8229 H       1  LIG1        0.1334
     35 H           2.9420    3.2358    6.9325 H       1  LIG1        0.1329
     36 H          -0.2943    6.8838   -1.4084 H       1  LIG1        0.1299
     37 H           3.7258    7.7324   -2.6648 H       1  LIG1        0.1314
     38 H          -1.4829    0.8633   -1.3206 H       1  LIG1        0.1368
     39 H           3.5081    5.6954    1.7961 H       1  LIG1        0.0984
     40 H           4.3662    4.1384    2.0169 H       1  LIG1        0.0974
     41 H           3.9607    3.7020   -0.2494 H       1  LIG1        0.1351
@<TRIPOS>BOND
     1     1     2   ar
     2     1     7   ar
     3     2    12   ar
     4     3     8   ar
     5     3    13   ar
     6     4     9   ar
     7     4    13   ar
     8     5    10   ar
     9     5    14   ar
    10     6    11   ar
    11     6    14   ar
    12     7    15   ar
    13     8    16   ar
    14     9    16   ar
    15    10    17   ar
    16    11    17   ar
    17    12    18   ar
    18    13    19    1
    19    14    21    1
    20    15    18   ar
    21    15    23    1
    22    16    24    1
    23    17    25    1
    24    18    26    1
    25    19    20    1
    26    19    22    2
    27    20    21    1
    28    21    23    1
    29    22    23    1
    30     1    27    1
    31     2    28    1
    32     3    29    1
    33     4    30    1
    34     5    31    1
    35     6    32    1
    36     7    33    1
    37     8    34    1
    38     9    35    1
    39    10    36    1
    40    11    37    1
    41    12    38    1
    42    20    39    1
    43    20    40    1
    44    21    41    1
