@<TRIPOS>MOLECULE
AK-918/43219901
 48 50 0 0 0
SMALL
USER_CHARGES

@<TRIPOS>ATOM
      1 C           0.1960    0.6632   -1.9063 C.ar    1  LIG1       -0.1065
      2 C           2.0183    7.6011   -2.1115 C.ar    1  LIG1       -0.1071
      3 C           1.4828    0.9815   -2.3403 C.ar    1  LIG1       -0.1024
      4 C          -0.3841    1.3799   -0.8596 C.ar    1  LIG1       -0.1039
      5 C           2.9891    6.6765   -2.4967 C.ar    1  LIG1       -0.1045
      6 C           1.1639    7.3130   -1.0474 C.ar    1  LIG1       -0.1043
      7 C           3.2627    4.2009    4.6873 C.ar    1  LIG1       -0.0506
      8 C           1.0844    4.7707    3.8114 C.ar    1  LIG1       -0.0564
      9 C           2.1895    2.0164   -1.7277 C.ar    1  LIG1       -0.0893
     10 C           0.3225    2.4147   -0.2470 C.ar    1  LIG1       -0.0922
     11 C           3.1051    5.4635   -1.8177 C.ar    1  LIG1       -0.0943
     12 C           1.2799    6.1000   -0.3684 C.ar    1  LIG1       -0.0946
     13 C           2.7611    4.2805    5.9864 C.ar    1  LIG1       -0.0502
     14 C           0.5827    4.8502    5.1106 C.ar    1  LIG1       -0.0583
     15 C           2.4243    4.4461    3.5998 C.ar    1  LIG1        0.0425
     16 C           1.6093    2.7330   -0.6810 C.ar    1  LIG1       -0.0610
     17 C           2.2506    5.1753   -0.7536 C.ar    1  LIG1       -0.0655
     18 C           1.4212    4.6050    6.1980 C.ar    1  LIG1       -0.0474
     19 C           2.9472    4.3634    2.2452 C.2     1  LIG1        0.1837
     20 C           1.6040    4.4733    8.7063 C.2     1  LIG1        0.0808
     21 C          -0.0384    3.3822   10.2929 C.3     1  LIG1       -0.0415
     22 C           0.6802    4.6607    9.9004 C.3     1  LIG1        0.0425
     23 C           2.3761    3.8567   -0.0151 C.3     1  LIG1        0.0749
     24 N           0.9205    4.6841    7.4978 N.am    1  LIG1       -0.3141
     25 O           4.1191    4.6103    1.9307 O.2     1  LIG1       -0.4484
     26 O           2.7868    4.1766    8.8391 O.2     1  LIG1       -0.4807
     27 O           1.9821    3.9763    1.3561 O.3     1  LIG1       -0.3232
     28 H          -0.3546   -0.1418   -2.3843 H       1  LIG1        0.1167
     29 H           1.9290    8.5462   -2.6395 H       1  LIG1        0.1162
     30 H           1.9344    0.4243   -3.1559 H       1  LIG1        0.1168
     31 H          -1.3864    1.1331   -0.5222 H       1  LIG1        0.1177
     32 H           3.6552    6.9011   -3.3246 H       1  LIG1        0.1159
     33 H           0.4087    8.0331   -0.7466 H       1  LIG1        0.1172
     34 H           4.3084    3.9477    4.5337 H       1  LIG1        0.1533
     35 H           0.4222    4.9637    2.9712 H       1  LIG1        0.1505
     36 H           3.1917    2.2572   -2.0723 H       1  LIG1        0.1263
     37 H          -0.1376    2.9676    0.5679 H       1  LIG1        0.1211
     38 H           3.8643    4.7490   -2.1249 H       1  LIG1        0.1224
     39 H           0.6097    5.8840    0.4594 H       1  LIG1        0.1208
     40 H           3.4228    4.0871    6.8271 H       1  LIG1        0.1430
     41 H          -0.4633    5.1040    5.2635 H       1  LIG1        0.1299
     42 H          -0.6425    3.0001    9.4635 H       1  LIG1        0.0417
     43 H          -0.7020    3.5640   11.1440 H       1  LIG1        0.0417
     44 H           0.6750    2.6013   10.5762 H       1  LIG1        0.0434
     45 H           1.2757    5.0200   10.7476 H       1  LIG1        0.0962
     46 H          -0.0570    5.4328    9.6519 H       1  LIG1        0.0971
     47 H           3.4369    3.5779    0.0292 H       1  LIG1        0.1603
     48 H          -0.0729    4.9270    7.5888 H       1  LIG1        0.3242
@<TRIPOS>BOND
     1     1     3   ar
     2     1     4   ar
     3     2     5   ar
     4     2     6   ar
     5     3     9   ar
     6     4    10   ar
     7     5    11   ar
     8     6    12   ar
     9     7    13   ar
    10     7    15   ar
    11     8    14   ar
    12     8    15   ar
    13     9    16   ar
    14    10    16   ar
    15    11    17   ar
    16    12    17   ar
    17    13    18   ar
    18    14    18   ar
    19    15    19    1
    20    16    23    1
    21    17    23    1
    22    18    24    1
    23    19    25    2
    24    19    27    1
    25    20    22    1
    26    20    24   am
    27    20    26    2
    28    21    22    1
    29    23    27    1
    30     1    28    1
    31     2    29    1
    32     3    30    1
    33     4    31    1
    34     5    32    1
    35     6    33    1
    36     7    34    1
    37     8    35    1
    38     9    36    1
    39    10    37    1
    40    11    38    1
    41    12    39    1
    42    13    40    1
    43    14    41    1
    44    21    42    1
    45    21    43    1
    46    21    44    1
    47    22    45    1
    48    22    46    1
    49    23    47    1
    50    24    48    1
