@<TRIPOS>MOLECULE
AK-918/41777484
 38 40 0 0 0
SMALL
USER_CHARGES

@<TRIPOS>ATOM
      1 C           0.2051    0.6639   -1.8653 C.ar    1  LIG1       -0.1067
      2 C           2.0280    7.6020   -2.0561 C.ar    1  LIG1       -0.1062
      3 C           1.4966    0.9821   -2.2853 C.ar    1  LIG1       -0.1040
      4 C          -0.3870    1.3813   -0.8259 C.ar    1  LIG1       -0.1041
      5 C           3.0031    6.6773   -2.4296 C.ar    1  LIG1       -0.1022
      6 C           1.1617    7.3146   -1.0013 C.ar    1  LIG1       -0.1036
      7 C           2.6828    4.2884    6.0521 C.ar    1  LIG1       -0.0792
      8 C           3.1979    4.2078    4.7584 C.ar    1  LIG1       -0.0554
      9 C           2.1961    2.0177   -1.6656 C.ar    1  LIG1       -0.0946
     10 C           0.3125    2.4168   -0.2062 C.ar    1  LIG1       -0.0942
     11 C           3.1119    5.4650   -1.7484 C.ar    1  LIG1       -0.0896
     12 C           1.2705    6.1023   -0.3201 C.ar    1  LIG1       -0.0923
     13 C           1.3407    4.6132    6.2494 C.ar    1  LIG1       -0.0658
     14 C           1.0288    4.7768    3.8593 C.ar    1  LIG1       -0.0340
     15 C           2.3709    4.4520    3.6619 C.ar    1  LIG1        0.0498
     16 C           1.6041    2.7351   -0.6261 C.ar    1  LIG1       -0.0654
     17 C           2.2456    5.1774   -0.6936 C.ar    1  LIG1       -0.0613
     18 C           0.5137    4.8574    5.1531 C.ar    1  LIG1       -0.0035
     19 C           2.9089    4.3683    2.3136 C.2     1  LIG1        0.1907
     20 C           2.3632    3.8595    0.0473 C.3     1  LIG1        0.0752
     21 O           4.0842    4.6152    2.0118 O.2     1  LIG1       -0.4427
     22 O           1.9540    3.9801    1.4138 O.3     1  LIG1       -0.3214
     23 CL         -1.1424    5.2577    5.3973 Cl      1  LIG1       -0.1382
     24 H          -0.3399   -0.1416   -2.3488 H       1  LIG1        0.1169
     25 H           1.9443    8.5466   -2.5859 H       1  LIG1        0.1172
     26 H           1.9573    0.4243   -3.0954 H       1  LIG1        0.1175
     27 H          -1.3928    1.1345   -0.4993 H       1  LIG1        0.1164
     28 H           3.6784    6.9014   -3.2503 H       1  LIG1        0.1174
     29 H           0.4031    8.0349   -0.7096 H       1  LIG1        0.1181
     30 H           3.3267    4.0979    6.9057 H       1  LIG1        0.1377
     31 H           4.2454    3.9539    4.6174 H       1  LIG1        0.1524
     32 H           3.2020    2.2585   -1.9993 H       1  LIG1        0.1213
     33 H          -0.1566    2.9703    0.6029 H       1  LIG1        0.1226
     34 H           3.8746    4.7503   -2.0466 H       1  LIG1        0.1263
     35 H           0.5911    5.8868    0.5004 H       1  LIG1        0.1211
     36 H           0.9533    4.6724    7.2634 H       1  LIG1        0.1453
     37 H           0.3859    4.9662    3.0021 H       1  LIG1        0.1576
     38 H           3.4235    3.5810    0.1037 H       1  LIG1        0.1612
@<TRIPOS>BOND
     1     1     3   ar
     2     1     4   ar
     3     2     5   ar
     4     2     6   ar
     5     3     9   ar
     6     4    10   ar
     7     5    11   ar
     8     6    12   ar
     9     7     8   ar
    10     7    13   ar
    11     8    15   ar
    12     9    16   ar
    13    10    16   ar
    14    11    17   ar
    15    12    17   ar
    16    13    18   ar
    17    14    15   ar
    18    14    18   ar
    19    15    19    1
    20    16    20    1
    21    17    20    1
    22    18    23    1
    23    19    21    2
    24    19    22    1
    25    20    22    1
    26     1    24    1
    27     2    25    1
    28     3    26    1
    29     4    27    1
    30     5    28    1
    31     6    29    1
    32     7    30    1
    33     8    31    1
    34     9    32    1
    35    10    33    1
    36    11    34    1
    37    12    35    1
    38    13    36    1
    39    14    37    1
    40    20    38    1
