@<TRIPOS>MOLECULE
ZINC02945366
 43 45 0 0 0
SMALL
USER_CHARGES

@<TRIPOS>ATOM
      1 C           0.0927    0.7533   -1.5342 C.ar    1  LIG1       -0.1012
      2 C           1.4164    4.4790    6.1086 C.ar    1  LIG1       -0.0986
      3 C           1.4675    0.7515   -1.7699 C.ar    1  LIG1       -0.0998
      4 C          -0.4977    1.8215   -0.8587 C.ar    1  LIG1       -0.1013
      5 C           2.7847    4.5407    5.8444 C.ar    1  LIG1       -0.0908
      6 C           0.5106    4.3130    5.0609 C.ar    1  LIG1       -0.0862
      7 C           2.2520    1.8178   -1.3302 C.ar    1  LIG1       -0.0953
      8 C           0.2868    2.8878   -0.4190 C.ar    1  LIG1       -0.0967
      9 C           3.2471    4.4366    4.5325 C.ar    1  LIG1       -0.0566
     10 C           0.9731    4.2089    3.7490 C.ar    1  LIG1       -0.0511
     11 C           1.6616    2.8860   -0.6547 C.ar    1  LIG1       -0.1002
     12 C           2.3413    4.2707    3.4848 C.ar    1  LIG1       -0.0388
     13 C           4.0129    3.6600    1.6042 C.2     1  LIG1       -0.0381
     14 C           2.5212    4.0554   -0.1721 C.3     1  LIG1       -0.1033
     15 C           2.0974    7.9086   -2.3155 C.3     1  LIG1       -0.0737
     16 C           2.6018    5.1317   -1.2618 C.3     1  LIG1       -0.0441
     17 C           1.2966    6.6932   -2.7551 C.3     1  LIG1       -0.0750
     18 C           1.2143    5.6455   -1.6453 C.3     1  LIG1       -0.0595
     19 N           3.8534    3.6515    0.2160 N.am    1  LIG1       -0.3547
     20 N           1.9833    4.6320    1.0864 N.3     1  LIG1        0.4164
     21 N           2.8144    4.1640    2.1435 N.am    1  LIG1       -0.4342
     22 S           5.4463    3.1795    2.2993 S.2     1  LIG1       -0.3277
     23 H          -0.5181   -0.0763   -1.8778 H       1  LIG1        0.1234
     24 H           1.0560    4.5592    7.1300 H       1  LIG1        0.1234
     25 H           1.9272   -0.0796   -2.2968 H       1  LIG1        0.1234
     26 H          -1.5681    1.8238   -0.6760 H       1  LIG1        0.1238
     27 H           3.4902    4.6690    6.6599 H       1  LIG1        0.1242
     28 H          -0.5546    4.2640    5.2670 H       1  LIG1        0.1275
     29 H           3.3223    1.8078   -1.5182 H       1  LIG1        0.1200
     30 H          -0.1819    3.7157    0.1065 H       1  LIG1        0.1223
     31 H           4.3157    4.4860    4.3388 H       1  LIG1        0.1383
     32 H           0.2578    4.0796    2.9405 H       1  LIG1        0.1469
     33 H           1.6554    8.3691   -1.4263 H       1  LIG1        0.0292
     34 H           2.1163    8.6586   -3.1125 H       1  LIG1        0.0290
     35 H           3.1312    7.6341   -2.0830 H       1  LIG1        0.0299
     36 H           3.2202    5.9621   -0.9019 H       1  LIG1        0.0766
     37 H           3.1011    4.7137   -2.1436 H       1  LIG1        0.0822
     38 H           1.7645    6.2570   -3.6454 H       1  LIG1        0.0373
     39 H           0.2877    7.0119   -3.0420 H       1  LIG1        0.0390
     40 H           0.7271    6.0809   -0.7643 H       1  LIG1        0.0520
     41 H           0.5905    4.8067   -1.9774 H       1  LIG1        0.0415
     42 H           4.5549    3.2950   -0.4260 H       1  LIG1        0.3511
     43 H           2.1078    5.6449    1.0720 H       1  LIG1        0.0696
@<TRIPOS>BOND
     1     1     3   ar
     2     1     4   ar
     3     2     5   ar
     4     2     6   ar
     5     3     7   ar
     6     4     8   ar
     7     5     9   ar
     8     6    10   ar
     9     7    11   ar
    10     8    11   ar
    11     9    12   ar
    12    10    12   ar
    13    11    14    1
    14    12    21    1
    15    13    19    1
    16    13    21    1
    17    13    22    2
    18    14    16    1
    19    14    19    1
    20    14    20    1
    21    15    17    1
    22    16    18    1
    23    17    18    1
    24    20    21    1
    25     1    23    1
    26     2    24    1
    27     3    25    1
    28     4    26    1
    29     5    27    1
    30     6    28    1
    31     7    29    1
    32     8    30    1
    33     9    31    1
    34    10    32    1
    35    15    33    1
    36    15    34    1
    37    15    35    1
    38    16    36    1
    39    16    37    1
    40    17    38    1
    41    17    39    1
    42    18    40    1
    43    18    41    1
    44    19    42    1
    45    20    43    1
