@<TRIPOS>MOLECULE
AG-690/36748013
 46 49 0 0 0
SMALL
USER_CHARGES

@<TRIPOS>ATOM
      1 C           0.3145    0.8308   -2.4581 C.ar    1  LIG1       -0.1091
      2 C           1.6450    1.2361   -2.5628 C.ar    1  LIG1       -0.1011
      3 C          -0.4511    1.2268   -1.3614 C.ar    1  LIG1       -0.0991
      4 C           0.7712    6.6778   -1.3970 C.ar    1  LIG1       -0.0974
      5 C           2.0849    4.6657    6.1096 C.ar    1  LIG1       -0.1042
      6 C           1.2328    5.6332   -0.5963 C.ar    1  LIG1       -0.0842
      7 C           2.2102    2.0372   -1.5705 C.ar    1  LIG1       -0.0617
      8 C           0.1141    2.0279   -0.3691 C.ar    1  LIG1       -0.0573
      9 C           1.6687    7.4099   -2.1743 C.ar    1  LIG1       -0.0621
     10 C           2.7083    4.2097    4.9123 C.ar    1  LIG1       -0.0854
     11 C           0.8399    5.2050    5.8717 C.ar    1  LIG1       -0.0429
     12 C           2.5921    5.3206   -0.5728 C.ar    1  LIG1       -0.0291
     13 C           1.4447    2.4332   -0.4737 C.ar    1  LIG1       -0.0259
     14 C           3.0278    7.0973   -2.1509 C.ar    1  LIG1        0.0291
     15 C           3.4896    6.0527   -1.3501 C.ar    1  LIG1        0.0404
     16 C           1.9159    4.4179    3.8048 C.ar    1  LIG1        0.0098
     17 C           2.1832    4.1025    2.4474 C.2     1  LIG1        0.0216
     18 C           3.3614    4.6848    1.7129 C.3     1  LIG1        0.0378
     19 C           3.0672    4.1990    0.2908 C.3     1  LIG1        0.0351
     20 C           4.1348    7.3519   -4.2404 C.3     1  LIG1        0.0253
     21 C           5.6201    6.4198   -0.3592 C.3     1  LIG1        0.0180
     22 N           1.4622    3.2778    1.7523 N.2     1  LIG1       -0.3128
     23 N           1.9994    3.2201    0.5009 N.pl3   1  LIG1       -0.3175
     24 O           3.8934    7.8205   -2.9151 O.3     1  LIG1       -0.4093
     25 O           4.8193    5.7506   -1.3303 O.3     1  LIG1       -0.4154
     26 S           0.4271    5.1605    4.2104 S.2     1  LIG1       -0.1127
     27 H          -0.1254    0.2067   -3.2308 H       1  LIG1        0.1057
     28 H           2.2408    0.9277   -3.4165 H       1  LIG1        0.1222
     29 H          -1.4872    0.9110   -1.2800 H       1  LIG1        0.1230
     30 H          -0.2871    6.9213   -1.4152 H       1  LIG1        0.1282
     31 H           2.5278    4.6023    7.0951 H       1  LIG1        0.1160
     32 H           0.5257    5.0687    0.0058 H       1  LIG1        0.1216
     33 H           3.2478    2.3475   -1.6614 H       1  LIG1        0.1137
     34 H          -0.4922    2.3305    0.4809 H       1  LIG1        0.1262
     35 H           1.3024    8.2224   -2.7959 H       1  LIG1        0.1186
     36 H           3.6890    3.7524    4.8713 H       1  LIG1        0.1299
     37 H           0.1537    5.6239    6.5942 H       1  LIG1        0.1694
     38 H           3.4139    5.7713    1.8265 H       1  LIG1        0.1062
     39 H           4.2744    4.2281    2.1101 H       1  LIG1        0.1047
     40 H           3.9534    3.7422   -0.1628 H       1  LIG1        0.1425
     41 H           4.8423    8.0182   -4.7400 H       1  LIG1        0.0897
     42 H           3.1931    7.3214   -4.7942 H       1  LIG1        0.1229
     43 H           4.5584    6.3461   -4.1901 H       1  LIG1        0.0889
     44 H           6.6576    6.0891   -0.4507 H       1  LIG1        0.1184
     45 H           5.2424    6.1971    0.6420 H       1  LIG1        0.0785
     46 H           5.5665    7.4968   -0.5353 H       1  LIG1        0.0840
@<TRIPOS>BOND
     1     1     2   ar
     2     1     3   ar
     3     2     7   ar
     4     3     8   ar
     5     4     6   ar
     6     4     9   ar
     7     5    10   ar
     8     5    11   ar
     9     6    12   ar
    10     7    13   ar
    11     8    13   ar
    12     9    14   ar
    13    10    16   ar
    14    11    26   ar
    15    12    15   ar
    16    12    19    1
    17    13    23    1
    18    14    15   ar
    19    14    24    1
    20    15    25    1
    21    16    17    1
    22    16    26   ar
    23    17    18    1
    24    17    22    2
    25    18    19    1
    26    19    23    1
    27    20    24    1
    28    21    25    1
    29    22    23    1
    30     1    27    1
    31     2    28    1
    32     3    29    1
    33     4    30    1
    34     5    31    1
    35     6    32    1
    36     7    33    1
    37     8    34    1
    38     9    35    1
    39    10    36    1
    40    11    37    1
    41    18    38    1
    42    18    39    1
    43    19    40    1
    44    20    41    1
    45    20    42    1
    46    20    43    1
    47    21    44    1
    48    21    45    1
    49    21    46    1
