@<TRIPOS>MOLECULE
AK-968/36802004
 44 48 0 0 0
SMALL
USER_CHARGES

@<TRIPOS>ATOM
      1 C           0.3246    0.5600   -2.0328 C.ar    1  LIG1       -0.1020
      2 C           1.7785    5.1454    6.3484 C.ar    1  LIG1       -0.1028
      3 C           1.2144    5.8005    5.2578 C.ar    1  LIG1       -0.1044
      4 C           2.3257    7.5918   -2.0635 C.ar    1  LIG1       -0.0823
      5 C           1.6686    0.8798   -2.2247 C.ar    1  LIG1       -0.0993
      6 C          -0.4578    1.3248   -1.1675 C.ar    1  LIG1       -0.0977
      7 C           1.0325    7.1117   -1.8012 C.ar    1  LIG1       -0.0836
      8 C           3.2849    1.5651    3.4186 C.ar    1  LIG1       -0.0978
      9 C           2.4355    3.9279    6.1686 C.ar    1  LIG1       -0.0892
     10 C           1.3051    5.2406    3.9831 C.ar    1  LIG1       -0.0874
     11 C           3.1942    2.1249    4.6933 C.ar    1  LIG1       -0.0938
     12 C           3.4451    6.8772   -1.6381 C.ar    1  LIG1       -0.0634
     13 C           2.2305    1.9643   -1.5512 C.ar    1  LIG1       -0.0820
     14 C           0.1041    2.4093   -0.4939 C.ar    1  LIG1       -0.0794
     15 C           0.8437    5.9098   -1.1113 C.ar    1  LIG1       -0.0710
     16 C           2.7207    2.2201    2.3279 C.ar    1  LIG1       -0.0681
     17 C           2.5364    3.3497    4.8927 C.ar    1  LIG1       -0.0754
     18 C           1.9628    4.0159    3.7836 C.ar    1  LIG1       -0.0440
     19 C           3.2249    5.6922   -0.9590 C.ar    1  LIG1        0.0471
     20 C           1.4482    2.7292   -0.6858 C.ar    1  LIG1       -0.0304
     21 C           1.9602    5.2009   -0.6945 C.ar    1  LIG1       -0.0115
     22 C           2.0636    3.4377    2.5078 C.ar    1  LIG1       -0.0523
     23 C           4.2142    4.7787   -0.4148 C.2     1  LIG1        0.2095
     24 C           2.0612    3.9134    0.0502 C.3     1  LIG1        0.1021
     25 N           1.5193    4.0496    1.3874 N.pl3   1  LIG1       -0.3547
     26 O           5.4220    4.8980   -0.4622 O.2     1  LIG1       -0.4093
     27 O           3.5087    3.7549    0.1580 O.3     1  LIG1       -0.2875
     28 H          -0.1131   -0.2837   -2.5584 H       1  LIG1        0.1217
     29 H           1.7081    5.5823    7.3401 H       1  LIG1        0.1167
     30 H           0.7030    6.7484    5.3987 H       1  LIG1        0.1133
     31 H           2.4530    8.5275   -2.6006 H       1  LIG1        0.1360
     32 H           2.2776    0.2850   -2.8993 H       1  LIG1        0.1209
     33 H          -1.5045    1.0767   -1.0187 H       1  LIG1        0.1207
     34 H           0.1701    7.6810   -2.1378 H       1  LIG1        0.1416
     35 H           3.7955    0.6165    3.2776 H       1  LIG1        0.1236
     36 H           2.8686    3.4333    7.0355 H       1  LIG1        0.1249
     37 H           0.8518    5.7844    3.1576 H       1  LIG1        0.1164
     38 H           3.6432    1.5956    5.5309 H       1  LIG1        0.1121
     39 H           4.4456    7.2447   -1.8360 H       1  LIG1        0.1500
     40 H           3.2786    2.2060   -1.7067 H       1  LIG1        0.1238
     41 H          -0.5130    2.9995    0.1785 H       1  LIG1        0.1276
     42 H          -0.1587    5.5457   -0.9113 H       1  LIG1        0.1390
     43 H           2.7992    1.7727    1.3402 H       1  LIG1        0.1189
     44 H           0.6935    4.6267    1.5154 H       1  LIG1        0.3030
@<TRIPOS>BOND
     1     1     5   ar
     2     1     6   ar
     3     2     3   ar
     4     2     9   ar
     5     3    10   ar
     6     4     7   ar
     7     4    12   ar
     8     5    13   ar
     9     6    14   ar
    10     7    15   ar
    11     8    11   ar
    12     8    16   ar
    13     9    17   ar
    14    10    18   ar
    15    11    17   ar
    16    12    19   ar
    17    13    20   ar
    18    14    20   ar
    19    15    21   ar
    20    16    22   ar
    21    17    18   ar
    22    18    22   ar
    23    19    21   ar
    24    19    23    1
    25    20    24    1
    26    21    24    1
    27    22    25    1
    28    23    26    2
    29    23    27    1
    30    24    25    1
    31    24    27    1
    32     1    28    1
    33     2    29    1
    34     3    30    1
    35     4    31    1
    36     5    32    1
    37     6    33    1
    38     7    34    1
    39     8    35    1
    40     9    36    1
    41    10    37    1
    42    11    38    1
    43    12    39    1
    44    13    40    1
    45    14    41    1
    46    15    42    1
    47    16    43    1
    48    25    44    1
