@<TRIPOS>MOLECULE
AG-205/33162049
 49 52 0 0 0
SMALL
USER_CHARGES

@<TRIPOS>ATOM
      1 C           0.2820    0.8261   -2.4739 C.ar    1  LIG1       -0.1100
      2 C           1.6528    0.7306   -2.2345 C.ar    1  LIG1       -0.1013
      3 C          -0.4965    1.7109   -1.7277 C.ar    1  LIG1       -0.1003
      4 C           3.0772    4.0314    4.7610 C.ar    1  LIG1       -0.0656
      5 C           0.9060    4.9497    4.2321 C.ar    1  LIG1       -0.0637
      6 C           1.5035    6.0232   -0.1486 C.ar    1  LIG1       -0.0827
      7 C           2.2452    1.5197   -1.2487 C.ar    1  LIG1       -0.0610
      8 C           0.0960    2.5001   -0.7419 C.ar    1  LIG1       -0.0585
      9 C           1.0227    7.0894   -0.9087 C.ar    1  LIG1       -0.0677
     10 C           2.8774    4.3343    6.1078 C.ar    1  LIG1       -0.0663
     11 C           0.7061    5.2525    5.5790 C.ar    1  LIG1       -0.0653
     12 C           2.7586    6.7059   -2.5448 C.ar    1  LIG1       -0.0257
     13 C           2.0916    4.3392    3.8230 C.ar    1  LIG1       -0.0298
     14 C           2.6120    5.2984   -0.5866 C.ar    1  LIG1       -0.0334
     15 C           1.4669    2.4046   -0.5024 C.ar    1  LIG1       -0.0267
     16 C           1.6502    7.4307   -2.1067 C.ar    1  LIG1       -0.0137
     17 C           3.2394    5.6397   -1.7847 C.ar    1  LIG1        0.0045
     18 C           1.6917    4.9448    6.5168 C.ar    1  LIG1       -0.0140
     19 C           2.2995    4.0232    2.4189 C.2     1  LIG1        0.0116
     20 C           3.4546    4.6168    1.6604 C.3     1  LIG1        0.0307
     21 C           3.1126    4.1589    0.2401 C.3     1  LIG1        0.0282
     22 C           0.0451    9.1700   -2.3404 C.3     1  LIG1        0.0254
     23 C           4.9023    5.3588   -3.4614 C.3     1  LIG1        0.0270
     24 N           1.5529    3.2148    1.7351 N.2     1  LIG1       -0.3219
     25 N           2.0484    3.1799    0.4659 N.pl3   1  LIG1       -0.3221
     26 O           1.1813    8.4715   -2.8476 O.3     1  LIG1       -0.4154
     27 O           4.3230    4.9419   -2.2267 O.3     1  LIG1       -0.4101
     28 CL          1.4447    5.3171    8.1784 Cl      1  LIG1       -0.1418
     29 H          -0.1793    0.2112   -3.2415 H       1  LIG1        0.1045
     30 H           2.2586    0.0416   -2.8154 H       1  LIG1        0.1215
     31 H          -1.5639    1.7851   -1.9143 H       1  LIG1        0.1217
     32 H           4.0050    3.5562    4.4530 H       1  LIG1        0.1412
     33 H           0.1311    5.1937    3.5101 H       1  LIG1        0.1453
     34 H           1.0076    5.7642    0.7834 H       1  LIG1        0.1400
     35 H           3.3142    1.4377   -1.0698 H       1  LIG1        0.1175
     36 H          -0.5206    3.1862   -0.1667 H       1  LIG1        0.1249
     37 H           0.1587    7.6502   -0.5626 H       1  LIG1        0.1074
     38 H           3.6536    4.0884    6.8279 H       1  LIG1        0.1362
     39 H          -0.2227    5.7285    5.8829 H       1  LIG1        0.1358
     40 H           3.2479    6.9728   -3.4783 H       1  LIG1        0.1234
     41 H           3.5152    5.7007    1.7920 H       1  LIG1        0.1005
     42 H           4.3780    4.1467    2.0155 H       1  LIG1        0.0989
     43 H           3.9812    3.7090   -0.2521 H       1  LIG1        0.1409
     44 H          -0.2249    9.9755   -3.0276 H       1  LIG1        0.1230
     45 H           0.2787    9.5803   -1.3547 H       1  LIG1        0.0907
     46 H          -0.7913    8.4724   -2.2537 H       1  LIG1        0.0904
     47 H           5.7568    4.7199   -3.6979 H       1  LIG1        0.1236
     48 H           5.2238    6.4002   -3.3809 H       1  LIG1        0.0911
     49 H           4.1543    5.2705   -4.2528 H       1  LIG1        0.0914
@<TRIPOS>BOND
     1     1     2   ar
     2     1     3   ar
     3     2     7   ar
     4     3     8   ar
     5     4    10   ar
     6     4    13   ar
     7     5    11   ar
     8     5    13   ar
     9     6     9   ar
    10     6    14   ar
    11     7    15   ar
    12     8    15   ar
    13     9    16   ar
    14    10    18   ar
    15    11    18   ar
    16    12    16   ar
    17    12    17   ar
    18    13    19    1
    19    14    17   ar
    20    14    21    1
    21    15    25    1
    22    16    26    1
    23    17    27    1
    24    18    28    1
    25    19    20    1
    26    19    24    2
    27    20    21    1
    28    21    25    1
    29    22    26    1
    30    23    27    1
    31    24    25    1
    32     1    29    1
    33     2    30    1
    34     3    31    1
    35     4    32    1
    36     5    33    1
    37     6    34    1
    38     7    35    1
    39     8    36    1
    40     9    37    1
    41    10    38    1
    42    11    39    1
    43    12    40    1
    44    20    41    1
    45    20    42    1
    46    21    43    1
    47    22    44    1
    48    22    45    1
    49    22    46    1
    50    23    47    1
    51    23    48    1
    52    23    49    1
