@<TRIPOS>MOLECULE
AG-690/33369038
 35 37 0 0 0
SMALL
USER_CHARGES

@<TRIPOS>ATOM
      1 C           0.3973    0.5954   -1.8606 C.ar    1  LIG1       -0.1055
      2 C           2.2256    7.5739   -2.2932 C.ar    1  LIG1       -0.1074
      3 C           1.7335    0.9486   -2.0485 C.ar    1  LIG1       -0.1039
      4 C          -0.4130    1.3550   -1.0166 C.ar    1  LIG1       -0.1042
      5 C           3.2011    6.5845   -2.4155 C.ar    1  LIG1       -0.1018
      6 C           1.1813    7.4150   -1.3822 C.ar    1  LIG1       -0.1059
      7 C           2.2596    2.0615   -1.3922 C.ar    1  LIG1       -0.0981
      8 C           0.1132    2.4678   -0.3604 C.ar    1  LIG1       -0.0991
      9 C           3.1323    5.4360   -1.6268 C.ar    1  LIG1       -0.0917
     10 C           1.1125    6.2666   -0.5935 C.ar    1  LIG1       -0.0969
     11 C           0.9727    4.7515    5.8857 C.ar    1  LIG1       -0.0470
     12 C           2.2470    4.4965    6.3477 C.ar    1  LIG1       -0.0132
     13 C           1.4494    2.8211   -0.5482 C.ar    1  LIG1       -0.0744
     14 C           2.0880    5.2770   -0.7158 C.ar    1  LIG1       -0.0677
     15 C           1.9495    4.3615    3.9611 C.ar    1  LIG1        0.0673
     16 C           1.3338    4.2949    1.5176 C.2     1  LIG1        0.1382
     17 C           2.0113    4.0109    0.1539 C.3     1  LIG1        0.0916
     18 N           0.8004    4.6749    4.5174 N.ar    1  LIG1       -0.3836
     19 N           2.2235    4.1804    2.5847 N.am    1  LIG1       -0.2544
     20 O           0.1405    4.5765    1.5837 O.2     1  LIG1       -0.4350
     21 S           3.2790    4.1436    5.0242 S.2     1  LIG1       -0.0597
     22 H          -0.0125   -0.2703   -2.3726 H       1  LIG1        0.1178
     23 H           2.2801    8.4687   -2.9064 H       1  LIG1        0.1153
     24 H           2.3642    0.3580   -2.7064 H       1  LIG1        0.1189
     25 H          -1.4536    1.0809   -0.8709 H       1  LIG1        0.1179
     26 H           4.0148    6.7084   -3.1240 H       1  LIG1        0.1155
     27 H           0.4223    8.1857   -1.2859 H       1  LIG1        0.1149
     28 H           3.3019    2.3291   -1.5444 H       1  LIG1        0.1221
     29 H          -0.5256    3.0536    0.2953 H       1  LIG1        0.1176
     30 H           3.8967    4.6701   -1.7290 H       1  LIG1        0.1238
     31 H           0.2952    6.1513    0.1135 H       1  LIG1        0.1191
     32 H           0.1255    4.9988    6.5109 H       1  LIG1        0.1961
     33 H           2.6083    4.4980    7.3660 H       1  LIG1        0.1694
     34 H           3.0669    3.7925    0.4244 H       1  LIG1        0.1480
     35 H           3.1894    3.9472    2.3637 H       1  LIG1        0.3561
@<TRIPOS>BOND
     1     1     3   ar
     2     1     4   ar
     3     2     5   ar
     4     2     6   ar
     5     3     7   ar
     6     4     8   ar
     7     5     9   ar
     8     6    10   ar
     9     7    13   ar
    10     8    13   ar
    11     9    14   ar
    12    10    14   ar
    13    11    12   ar
    14    11    18   ar
    15    12    21   ar
    16    13    17    1
    17    14    17    1
    18    15    18   ar
    19    15    19    1
    20    15    21   ar
    21    16    17    1
    22    16    19   am
    23    16    20    2
    24     1    22    1
    25     2    23    1
    26     3    24    1
    27     4    25    1
    28     5    26    1
    29     6    27    1
    30     7    28    1
    31     8    29    1
    32     9    30    1
    33    10    31    1
    34    11    32    1
    35    12    33    1
    36    17    34    1
    37    19    35    1
