@<TRIPOS>MOLECULE
AE-477/13519023
 40 43 0 0 0
SMALL
USER_CHARGES

@<TRIPOS>ATOM
      1 C           0.1671    0.6102   -2.2120 C.ar    1  LIG1       -0.1094
      2 C           1.6150    4.6273    6.4338 C.ar    1  LIG1       -0.1072
      3 C           1.4502    0.9855   -2.6101 C.ar    1  LIG1       -0.1079
      4 C          -0.4181    1.2048   -1.0942 C.ar    1  LIG1       -0.1064
      5 C           0.7333    5.2652    5.5615 C.ar    1  LIG1       -0.1033
      6 C           2.7789    4.0372    5.9409 C.ar    1  LIG1       -0.1050
      7 C           2.2314    6.5668   -2.4167 C.ar    1  LIG1       -0.1058
      8 C           2.0082    7.6343   -1.5519 C.ar    1  LIG1       -0.0988
      9 C           2.1481    1.9552   -1.8903 C.ar    1  LIG1       -0.1020
     10 C           0.2797    2.1746   -0.3743 C.ar    1  LIG1       -0.1003
     11 C           1.0153    5.3133    4.1962 C.ar    1  LIG1       -0.0923
     12 C           3.0610    4.0853    4.5758 C.ar    1  LIG1       -0.0950
     13 C           2.3389    5.2693   -1.9128 C.ar    1  LIG1       -0.0988
     14 C           1.9105    7.4079   -0.1810 C.ar    1  LIG1       -0.0602
     15 C           1.5629    2.5498   -0.7724 C.ar    1  LIG1       -0.1021
     16 C           2.1792    4.7232    3.7033 C.ar    1  LIG1       -0.0721
     17 C           2.2118    5.0186   -0.5361 C.ar    1  LIG1       -0.0652
     18 C           2.0343    6.1111    0.3271 C.ar    1  LIG1       -0.0020
     19 C           1.8967    3.5673    1.4909 C.3     1  LIG1       -0.0112
     20 C           2.3236    3.6073    0.0134 C.3     1  LIG1       -0.0170
     21 C           2.4859    4.7748    2.2212 C.3     1  LIG1        0.0416
     22 O           1.9525    5.9978    1.6918 O.3     1  LIG1       -0.3992
     23 H          -0.3767   -0.1440   -2.7734 H       1  LIG1        0.1130
     24 H           1.3960    4.5911    7.4969 H       1  LIG1        0.1163
     25 H           1.9056    0.5233   -3.4812 H       1  LIG1        0.1145
     26 H          -1.4176    0.9137   -0.7845 H       1  LIG1        0.1145
     27 H          -0.1725    5.7256    5.9452 H       1  LIG1        0.1163
     28 H           3.4663    3.5413    6.6199 H       1  LIG1        0.1170
     29 H           2.3228    6.7426   -3.4846 H       1  LIG1        0.1094
     30 H           1.9190    8.6430   -1.9442 H       1  LIG1        0.1257
     31 H           3.1475    2.2411   -2.2077 H       1  LIG1        0.1162
     32 H          -0.1841    2.6323    0.4954 H       1  LIG1        0.1164
     33 H           0.3223    5.8123    3.5240 H       1  LIG1        0.1247
     34 H           3.9701    3.6227    4.2007 H       1  LIG1        0.1204
     35 H           2.5170    4.4531   -2.6089 H       1  LIG1        0.1239
     36 H           1.7519    8.2491    0.4891 H       1  LIG1        0.1253
     37 H           0.7991    3.5984    1.5639 H       1  LIG1        0.0728
     38 H           2.2186    2.6251    1.9532 H       1  LIG1        0.0688
     39 H           3.4020    3.3298   -0.0384 H       1  LIG1        0.0939
     40 H           3.5910    4.7968    2.1190 H       1  LIG1        0.1305
@<TRIPOS>BOND
     1     1     3   ar
     2     1     4   ar
     3     2     5   ar
     4     2     6   ar
     5     3     9   ar
     6     4    10   ar
     7     5    11   ar
     8     6    12   ar
     9     7     8   ar
    10     7    13   ar
    11     8    14   ar
    12     9    15   ar
    13    10    15   ar
    14    11    16   ar
    15    12    16   ar
    16    13    17   ar
    17    14    18   ar
    18    15    20    1
    19    16    21    1
    20    17    18   ar
    21    17    20    1
    22    18    22    1
    23    19    20    1
    24    19    21    1
    25    21    22    1
    26     1    23    1
    27     2    24    1
    28     3    25    1
    29     4    26    1
    30     5    27    1
    31     6    28    1
    32     7    29    1
    33     8    30    1
    34     9    31    1
    35    10    32    1
    36    11    33    1
    37    12    34    1
    38    13    35    1
    39    14    36    1
    40    19    37    1
    41    19    38    1
    42    20    39    1
    43    21    40    1
