@<TRIPOS>MOLECULE
AG-205/07762009
 41 44 0 0 0
SMALL
USER_CHARGES

@<TRIPOS>ATOM
      1 C          -0.4522    1.2091   -1.3477 C.ar    1  LIG1       -0.0854
      2 C           0.2820    0.8261   -2.4701 C.ar    1  LIG1       -0.0896
      3 C           1.2975    5.4273    4.1884 C.ar    1  LIG1       -0.0656
      4 C           2.6837    3.5495    4.8124 C.ar    1  LIG1       -0.0636
      5 C           1.2377    5.5887   -0.6176 C.ar    1  LIG1       -0.0836
      6 C           3.4966    6.0823   -1.3184 C.ar    1  LIG1       -0.0875
      7 C           0.1406    1.9994   -0.3628 C.ar    1  LIG1       -0.0429
      8 C           1.6090    1.2334   -2.6078 C.ar    1  LIG1       -0.0363
      9 C           0.7663    6.6510   -1.3889 C.ar    1  LIG1       -0.0726
     10 C           3.0251    7.1446   -2.0898 C.ar    1  LIG1       -0.0741
     11 C           1.0983    5.7280    5.5357 C.ar    1  LIG1       -0.0747
     12 C           2.4845    3.8503    6.1598 C.ar    1  LIG1       -0.0736
     13 C           2.0901    4.3381    3.8266 C.ar    1  LIG1       -0.0301
     14 C           2.6029    5.3044   -0.5823 C.ar    1  LIG1       -0.0763
     15 C           1.4675    2.4067   -0.5005 C.ar    1  LIG1        0.0299
     16 C           2.2018    2.0237   -1.6229 C.ar    1  LIG1        0.1138
     17 C           1.6600    7.4289   -2.1250 C.ar    1  LIG1       -0.0179
     18 C           1.6918    4.9396    6.5215 C.ar    1  LIG1       -0.0398
     19 C           2.2977    4.0245    2.4219 C.2     1  LIG1        0.0117
     20 C           3.4501    4.6229    1.6630 C.3     1  LIG1        0.0287
     21 C           3.1081    4.1657    0.2424 C.3     1  LIG1        0.0177
     22 N           1.5531    3.2144    1.7379 N.2     1  LIG1       -0.3249
     23 N           2.0475    3.1827    0.4680 N.pl3   1  LIG1       -0.3233
     24 F           3.4778    2.4092   -1.7653 F       1  LIG1       -0.2484
     25 CL          1.0781    8.7391   -3.0766 Cl      1  LIG1       -0.1449
     26 BR          1.4219    5.3471    8.3471 Br      1  LIG1       -0.1111
     27 H          -1.4852    0.8917   -1.2407 H       1  LIG1        0.1271
     28 H          -0.1801    0.2109   -3.2366 H       1  LIG1        0.1345
     29 H           0.8302    6.0484    3.4284 H       1  LIG1        0.1392
     30 H           3.3032    2.6984    4.5417 H       1  LIG1        0.1433
     31 H           0.5351    4.9874   -0.0467 H       1  LIG1        0.1422
     32 H           4.5616    5.8672   -1.2965 H       1  LIG1        0.1302
     33 H          -0.4410    2.2928    0.5075 H       1  LIG1        0.1454
     34 H           2.1807    0.9353   -3.4815 H       1  LIG1        0.1340
     35 H          -0.3002    6.8605   -1.4069 H       1  LIG1        0.1302
     36 H           3.7332    7.7422   -2.6581 H       1  LIG1        0.1310
     37 H           0.4777    6.5803    5.8007 H       1  LIG1        0.1374
     38 H           2.9542    3.2259    6.9155 H       1  LIG1        0.1369
     39 H           3.5071    5.7069    1.7959 H       1  LIG1        0.0992
     40 H           4.3753    4.1554    2.0167 H       1  LIG1        0.0980
     41 H           3.9777    3.7192   -0.2512 H       1  LIG1        0.1356
@<TRIPOS>BOND
     1     1     2   ar
     2     1     7   ar
     3     2     8   ar
     4     3    11   ar
     5     3    13   ar
     6     4    12   ar
     7     4    13   ar
     8     5     9   ar
     9     5    14   ar
    10     6    10   ar
    11     6    14   ar
    12     7    15   ar
    13     8    16   ar
    14     9    17   ar
    15    10    17   ar
    16    11    18   ar
    17    12    18   ar
    18    13    19    1
    19    14    21    1
    20    15    16   ar
    21    15    23    1
    22    16    24    1
    23    17    25    1
    24    18    26    1
    25    19    20    1
    26    19    22    2
    27    20    21    1
    28    21    23    1
    29    22    23    1
    30     1    27    1
    31     2    28    1
    32     3    29    1
    33     4    30    1
    34     5    31    1
    35     6    32    1
    36     7    33    1
    37     8    34    1
    38     9    35    1
    39    10    36    1
    40    11    37    1
    41    12    38    1
    42    20    39    1
    43    20    40    1
    44    21    41    1
