@<TRIPOS>MOLECULE
AG-219/34821006
 50 54 0 0 0
SMALL
USER_CHARGES

@<TRIPOS>ATOM
      1 C           1.9173    4.3867    6.9428 C.ar    1  LIG1       -0.1064
      2 C           2.0750    3.1429    6.3392 C.ar    1  LIG1       -0.1005
      3 C           1.8641    5.5355    6.1585 C.ar    1  LIG1       -0.0945
      4 C           0.3285    2.6605   -0.3039 C.ar    1  LIG1       -0.0853
      5 C           2.2844    1.9148   -1.5103 C.ar    1  LIG1       -0.0792
      6 C           2.1810    3.0431    4.9496 C.ar    1  LIG1       -0.0657
      7 C           0.8302    6.2554   -0.8041 C.ar    1  LIG1       -0.0444
      8 C           3.1166    5.8430   -1.4668 C.ar    1  LIG1       -0.0490
      9 C          -0.4861    1.9502   -1.1856 C.ar    1  LIG1       -0.0667
     10 C           1.4698    1.2046   -2.3921 C.ar    1  LIG1       -0.0561
     11 C           0.6404    7.0361   -1.9443 C.ar    1  LIG1       -0.0695
     12 C           2.9269    6.6237   -2.6071 C.ar    1  LIG1       -0.0719
     13 C           1.7139    2.6428   -0.4662 C.ar    1  LIG1       -0.0445
     14 C           1.9685    5.4444    4.7628 C.ar    1  LIG1       -0.0649
     15 C           2.0682    5.6589   -0.5652 C.ar    1  LIG1       -0.0200
     16 C           2.1309    4.1859    4.1373 C.ar    1  LIG1       -0.0399
     17 C           0.0845    1.2223   -2.2297 C.ar    1  LIG1       -0.0128
     18 C           1.6888    7.2202   -2.8457 C.ar    1  LIG1       -0.0399
     19 C           2.0055    6.4848    2.4480 C.2     1  LIG1       -0.0707
     20 C           2.1378    5.2516    1.9216 C.2     1  LIG1       -0.0141
     21 C           1.9105    6.7106    3.9327 C.3     1  LIG1       -0.0226
     22 C           2.4090    2.9031    1.9752 C.3     1  LIG1        0.0431
     23 C           2.6048    3.4188    0.4981 C.3     1  LIG1        0.0635
     24 C          -0.0616   -0.1944   -4.1342 C.3     1  LIG1        0.0243
     25 N           2.2318    4.1355    2.7471 N.pl3   1  LIG1       -0.3391
     26 N           2.2598    4.8728    0.5839 N.pl3   1  LIG1       -0.3140
     27 O           3.9936    3.2592    0.1952 O.3     1  LIG1       -0.4409
     28 O          -0.7106    0.5283   -3.0892 O.3     1  LIG1       -0.4168
     29 BR          1.4311    8.2764   -4.3914 Br      1  LIG1       -0.1143
     30 H           1.8367    4.4615    8.0231 H       1  LIG1        0.1089
     31 H           2.1161    2.2457    6.9504 H       1  LIG1        0.1230
     32 H           1.7419    6.5035    6.6377 H       1  LIG1        0.1258
     33 H          -0.1245    3.2249    0.5067 H       1  LIG1        0.1332
     34 H           3.3630    1.8954   -1.6446 H       1  LIG1        0.1336
     35 H           2.3016    2.0535    4.5161 H       1  LIG1        0.1167
     36 H           0.0070    6.1187   -0.1076 H       1  LIG1        0.1469
     37 H           4.0856    5.3830   -1.2894 H       1  LIG1        0.1358
     38 H          -1.5648    1.9677   -1.0537 H       1  LIG1        0.1138
     39 H           1.9202    0.6392   -3.2030 H       1  LIG1        0.1316
     40 H          -0.3299    7.4954   -2.1146 H       1  LIG1        0.1396
     41 H           3.7543    6.7587   -3.2987 H       1  LIG1        0.1392
     42 H           1.9562    7.3591    1.8059 H       1  LIG1        0.0960
     43 H           0.9663    7.2268    4.1433 H       1  LIG1        0.0756
     44 H           2.7351    7.3672    4.2352 H       1  LIG1        0.0775
     45 H           1.5130    2.2779    2.0704 H       1  LIG1        0.1346
     46 H           3.2874    2.3407    2.3124 H       1  LIG1        0.1324
     47 H          -0.8107   -0.7025   -4.7465 H       1  LIG1        0.0895
     48 H           0.6263   -0.9248   -3.7006 H       1  LIG1        0.0898
     49 H           0.4993    0.5070   -4.7564 H       1  LIG1        0.1231
     50 H           4.4840    3.7809    0.8506 H       1  LIG1        0.3460
@<TRIPOS>BOND
     1     1     2   ar
     2     1     3   ar
     3     2     6   ar
     4     3    14   ar
     5     4     9   ar
     6     4    13   ar
     7     5    10   ar
     8     5    13   ar
     9     6    16   ar
    10     7    11   ar
    11     7    15   ar
    12     8    12   ar
    13     8    15   ar
    14     9    17   ar
    15    10    17   ar
    16    11    18   ar
    17    12    18   ar
    18    13    23    1
    19    14    16   ar
    20    14    21    1
    21    15    26    1
    22    16    25    1
    23    17    28    1
    24    18    29    1
    25    19    20    2
    26    19    21    1
    27    20    25    1
    28    20    26    1
    29    22    23    1
    30    22    25    1
    31    23    26    1
    32    23    27    1
    33    24    28    1
    34     1    30    1
    35     2    31    1
    36     3    32    1
    37     4    33    1
    38     5    34    1
    39     6    35    1
    40     7    36    1
    41     8    37    1
    42     9    38    1
    43    10    39    1
    44    11    40    1
    45    12    41    1
    46    19    42    1
    47    21    43    1
    48    21    44    1
    49    22    45    1
    50    22    46    1
    51    24    47    1
    52    24    48    1
    53    24    49    1
    54    27    50    1
