@<TRIPOS>MOLECULE
AG-205/03631014
 42 44 0 0 0
SMALL
USER_CHARGES

@<TRIPOS>ATOM
      1 C           0.3747    0.5972   -1.9127 C.ar    1  LIG1       -0.1059
      2 C           2.2037    7.5761   -2.3359 C.ar    1  LIG1       -0.1078
      3 C           1.7056    0.9498   -2.1360 C.ar    1  LIG1       -0.1047
      4 C          -0.4093    1.3506   -1.0388 C.ar    1  LIG1       -0.1039
      5 C           3.1732    6.5861   -2.4952 C.ar    1  LIG1       -0.1025
      6 C           1.1859    7.4108   -1.3964 C.ar    1  LIG1       -0.1061
      7 C           1.6069    4.6729    6.6161 C.ar    1  LIG1       -0.1067
      8 C           0.5727    4.8239    5.6924 C.ar    1  LIG1       -0.0981
      9 C           2.2527    2.0557   -1.4855 C.ar    1  LIG1       -0.0992
     10 C           0.1379    2.4565   -0.3882 C.ar    1  LIG1       -0.0974
     11 C           3.1250    5.4307   -1.7152 C.ar    1  LIG1       -0.0923
     12 C           1.1378    6.2555   -0.6163 C.ar    1  LIG1       -0.0968
     13 C           2.8899    4.3434    6.1788 C.ar    1  LIG1       -0.1007
     14 C           0.8213    4.6454    4.3315 C.ar    1  LIG1       -0.0674
     15 C           1.4689    2.8092   -0.6116 C.ar    1  LIG1       -0.0741
     16 C           2.1072    5.2653   -0.7757 C.ar    1  LIG1       -0.0682
     17 C           3.1385    4.1649    4.8180 C.ar    1  LIG1       -0.0868
     18 C           2.1042    4.3159    3.8943 C.ar    1  LIG1       -0.0550
     19 C           1.4161    4.2645    1.4698 C.2     1  LIG1        0.1100
     20 C           4.5226    3.8124    4.3784 C.3     1  LIG1       -0.0386
     21 C           2.0533    3.9916    0.0846 C.3     1  LIG1        0.0878
     22 N           2.3362    4.1389    2.5095 N.am    1  LIG1       -0.3105
     23 O           0.2258    4.5477    1.5730 O.2     1  LIG1       -0.4677
     24 H          -0.0515   -0.2632   -2.4203 H       1  LIG1        0.1169
     25 H           2.2422    8.4762   -2.9424 H       1  LIG1        0.1146
     26 H           2.3157    0.3639   -2.8172 H       1  LIG1        0.1172
     27 H          -1.4458    1.0770   -0.8654 H       1  LIG1        0.1182
     28 H           3.9664    6.7149   -3.2259 H       1  LIG1        0.1149
     29 H           0.4316    8.1819   -1.2713 H       1  LIG1        0.1147
     30 H           1.4134    4.8112    7.6756 H       1  LIG1        0.1127
     31 H          -0.4266    5.0797    6.0330 H       1  LIG1        0.1190
     32 H           3.2907    2.3229   -1.6654 H       1  LIG1        0.1154
     33 H          -0.4804    3.0376    0.2909 H       1  LIG1        0.1214
     34 H           3.8846    4.6644   -1.8463 H       1  LIG1        0.1214
     35 H           0.3410    6.1353    0.1130 H       1  LIG1        0.1179
     36 H           3.6887    4.2278    6.9065 H       1  LIG1        0.1204
     37 H           0.0070    4.7662    3.6218 H       1  LIG1        0.1382
     38 H           4.6476    2.7239    4.3566 H       1  LIG1        0.0557
     39 H           4.7329    4.2092    3.3779 H       1  LIG1        0.0562
     40 H           5.2731    4.2378    5.0556 H       1  LIG1        0.0512
     41 H           3.1158    3.7690    0.3224 H       1  LIG1        0.1440
     42 H           3.2934    3.8998    2.2591 H       1  LIG1        0.3225
@<TRIPOS>BOND
     1     1     3   ar
     2     1     4   ar
     3     2     5   ar
     4     2     6   ar
     5     3     9   ar
     6     4    10   ar
     7     5    11   ar
     8     6    12   ar
     9     7     8   ar
    10     7    13   ar
    11     8    14   ar
    12     9    15   ar
    13    10    15   ar
    14    11    16   ar
    15    12    16   ar
    16    13    17   ar
    17    14    18   ar
    18    15    21    1
    19    16    21    1
    20    17    18   ar
    21    17    20    1
    22    18    22    1
    23    19    21    1
    24    19    22   am
    25    19    23    2
    26     1    24    1
    27     2    25    1
    28     3    26    1
    29     4    27    1
    30     5    28    1
    31     6    29    1
    32     7    30    1
    33     8    31    1
    34     9    32    1
    35    10    33    1
    36    11    34    1
    37    12    35    1
    38    13    36    1
    39    14    37    1
    40    20    38    1
    41    20    39    1
    42    20    40    1
    43    21    41    1
    44    22    42    1
