@<TRIPOS>MOLECULE
AG-690/11629370
 42 44 0 0 0
SMALL
USER_CHARGES

@<TRIPOS>ATOM
      1 C           0.8984    0.4082   -2.2058 C.ar    1  LIG1       -0.1056
      2 C           2.2193    7.4063   -2.7777 C.ar    1  LIG1       -0.1046
      3 C           0.4097    1.6592   -2.5825 C.ar    1  LIG1       -0.1001
      4 C           1.8265    0.3052   -1.1695 C.ar    1  LIG1       -0.1046
      5 C           1.0890    7.0896   -2.0244 C.ar    1  LIG1       -0.1030
      6 C           3.3586    6.6055   -2.6964 C.ar    1  LIG1       -0.0993
      7 C           3.1066    3.4439    5.2999 C.ar    1  LIG1       -0.0944
      8 C           2.2394    3.4865    6.3916 C.ar    1  LIG1       -0.0963
      9 C           0.8491    2.8071   -1.9232 C.ar    1  LIG1       -0.0862
     10 C           2.2659    1.4532   -0.5102 C.ar    1  LIG1       -0.0922
     11 C           1.0978    5.9723   -1.1896 C.ar    1  LIG1       -0.0887
     12 C           3.3674    5.4881   -1.8616 C.ar    1  LIG1       -0.0822
     13 C           2.8365    4.2075    4.1643 C.ar    1  LIG1       -0.0614
     14 C           1.1019    4.2928    6.3475 C.ar    1  LIG1       -0.0779
     15 C           1.7773    2.7041   -0.8869 C.ar    1  LIG1       -0.0412
     16 C           2.2371    5.1714   -1.1082 C.ar    1  LIG1       -0.0371
     17 C           1.6991    5.0136    4.1202 C.ar    1  LIG1       -0.0366
     18 C           0.8317    5.0563    5.2118 C.ar    1  LIG1       -0.0068
     19 C           1.5352    4.2380    1.1699 C.2     1  LIG1        0.1497
     20 C           2.2476    3.9312   -0.1816 C.3     1  LIG1        0.1300
     21 N           1.4593    5.7673    2.9662 N.pl3   1  LIG1       -0.3478
     22 N           2.0142    5.3891    1.7780 N.am    1  LIG1       -0.2936
     23 O           0.6380    3.5391    1.6420 O.2     1  LIG1       -0.4643
     24 O           3.6019    3.7798    0.3339 O.3     1  LIG1       -0.4353
     25 BR         -0.7296    6.1361    5.2052 Br      1  LIG1       -0.1133
     26 H           0.5552   -0.4857   -2.7183 H       1  LIG1        0.1182
     27 H           2.2118    8.2757   -3.4288 H       1  LIG1        0.1194
     28 H          -0.3138    1.7394   -3.3886 H       1  LIG1        0.1177
     29 H           2.2064   -0.6686   -0.8751 H       1  LIG1        0.1169
     30 H           0.2015    7.7125   -2.0885 H       1  LIG1        0.1189
     31 H           4.2384    6.8512   -3.2836 H       1  LIG1        0.1194
     32 H           3.9925    2.8165    5.3344 H       1  LIG1        0.1359
     33 H           2.4505    2.8925    7.2760 H       1  LIG1        0.1152
     34 H           0.4630    3.7776   -2.2236 H       1  LIG1        0.1290
     35 H           2.9893    1.3633    0.2959 H       1  LIG1        0.1225
     36 H           0.2126    5.7333   -0.6060 H       1  LIG1        0.1218
     37 H           4.2595    4.8700   -1.8045 H       1  LIG1        0.1353
     38 H           3.5212    4.1651    3.3207 H       1  LIG1        0.1155
     39 H           0.4390    4.3126    7.2087 H       1  LIG1        0.1441
     40 H           0.9706    6.6520    3.0066 H       1  LIG1        0.3546
     41 H           2.7557    5.9341    1.3518 H       1  LIG1        0.3637
     42 H           3.7959    4.6185    0.7615 H       1  LIG1        0.3446
@<TRIPOS>BOND
     1     1     3   ar
     2     1     4   ar
     3     2     5   ar
     4     2     6   ar
     5     3     9   ar
     6     4    10   ar
     7     5    11   ar
     8     6    12   ar
     9     7     8   ar
    10     7    13   ar
    11     8    14   ar
    12     9    15   ar
    13    10    15   ar
    14    11    16   ar
    15    12    16   ar
    16    13    17   ar
    17    14    18   ar
    18    15    20    1
    19    16    20    1
    20    17    18   ar
    21    17    21    1
    22    18    25    1
    23    19    20    1
    24    19    22   am
    25    19    23    2
    26    20    24    1
    27    21    22    1
    28     1    26    1
    29     2    27    1
    30     3    28    1
    31     4    29    1
    32     5    30    1
    33     6    31    1
    34     7    32    1
    35     8    33    1
    36     9    34    1
    37    10    35    1
    38    11    36    1
    39    12    37    1
    40    13    38    1
    41    14    39    1
    42    21    40    1
    43    22    41    1
    44    24    42    1
