@<TRIPOS>MOLECULE
AK-968/13408055
 41 44 0 0 0
SMALL
USER_CHARGES

@<TRIPOS>ATOM
      1 C           2.1168    6.9799   -2.2143 C.ar    1  LIG1       -0.1149
      2 C           3.1202    4.1352    4.7984 C.ar    1  LIG1       -0.0771
      3 C           0.8351    4.7742    4.3434 C.ar    1  LIG1       -0.0745
      4 C           2.9251    4.4021    6.1535 C.ar    1  LIG1       -0.0976
      5 C           0.6399    5.0411    5.6986 C.ar    1  LIG1       -0.0962
      6 C           2.2757    1.6987   -1.3378 C.ar    1  LIG1       -0.0312
      7 C           1.6780    0.9254   -2.3331 C.ar    1  LIG1       -0.0313
      8 C           2.9300    5.9188   -1.7212 C.ar    1  LIG1       -0.1082
      9 C          -0.5043    1.6068   -1.5517 C.ar    1  LIG1        0.0188
     10 C           1.0376    7.2284   -1.3952 C.ar    1  LIG1       -0.0546
     11 C           2.0752    4.3213    3.8933 C.ar    1  LIG1       -0.0362
     12 C           1.6850    4.8550    6.6036 C.ar    1  LIG1       -0.1156
     13 C           1.4834    2.4259   -0.4495 C.ar    1  LIG1        0.0386
     14 C           0.2880    0.8795   -2.4400 C.ar    1  LIG1        0.0767
     15 C           0.0934    2.3799   -0.5565 C.ar    1  LIG1        0.1287
     16 C           2.4413    5.3969   -0.5436 C.ar    1  LIG1       -0.0383
     17 C           2.2773    4.0428    2.4802 C.2     1  LIG1        0.0115
     18 C           3.3236    4.7820    1.6921 C.3     1  LIG1        0.0343
     19 C           2.9974    4.2921    0.2786 C.3     1  LIG1        0.0281
     20 C           1.4765    5.1391    8.0529 C.3     1  LIG1       -0.0426
     21 N           1.6177    3.1501    1.8119 N.2     1  LIG1       -0.3226
     22 N           2.0733    3.1851    0.5278 N.pl3   1  LIG1       -0.3166
     23 F          -0.2860    0.1370   -3.3957 F       1  LIG1       -0.2610
     24 F          -0.6777    3.0749    0.2919 F       1  LIG1       -0.2393
     25 S           1.0077    6.1850   -0.0376 S.2     1  LIG1       -0.1414
     26 H           2.3132    7.5337   -3.1230 H       1  LIG1        0.1109
     27 H           4.0902    3.7826    4.4578 H       1  LIG1        0.1296
     28 H           0.0136    4.9229    3.6474 H       1  LIG1        0.1347
     29 H           3.7447    4.2539    6.8515 H       1  LIG1        0.1201
     30 H          -0.3298    5.3932    6.0407 H       1  LIG1        0.1198
     31 H           3.3598    1.7272   -1.2637 H       1  LIG1        0.1541
     32 H           2.2945    0.3591   -3.0249 H       1  LIG1        0.1424
     33 H           3.8280    5.5612   -2.2087 H       1  LIG1        0.1150
     34 H          -1.5864    1.5709   -1.6351 H       1  LIG1        0.1486
     35 H           0.2650    7.9724   -1.5290 H       1  LIG1        0.1621
     36 H           3.2455    5.8635    1.8354 H       1  LIG1        0.1016
     37 H           4.3112    4.4350    2.0146 H       1  LIG1        0.1044
     38 H           3.9080    3.9237   -0.2085 H       1  LIG1        0.1532
     39 H           1.7248    6.1838    8.2767 H       1  LIG1        0.0577
     40 H           0.4351    4.9578    8.3486 H       1  LIG1        0.0542
     41 H           2.1023    4.4907    8.6799 H       1  LIG1        0.0542
@<TRIPOS>BOND
     1     1     8   ar
     2     1    10   ar
     3     2     4   ar
     4     2    11   ar
     5     3     5   ar
     6     3    11   ar
     7     4    12   ar
     8     5    12   ar
     9     6     7   ar
    10     6    13   ar
    11     7    14   ar
    12     8    16   ar
    13     9    14   ar
    14     9    15   ar
    15    10    25   ar
    16    11    17    1
    17    12    20    1
    18    13    15   ar
    19    13    22    1
    20    14    23    1
    21    15    24    1
    22    16    19    1
    23    16    25   ar
    24    17    18    1
    25    17    21    2
    26    18    19    1
    27    19    22    1
    28    21    22    1
    29     1    26    1
    30     2    27    1
    31     3    28    1
    32     4    29    1
    33     5    30    1
    34     6    31    1
    35     7    32    1
    36     8    33    1
    37     9    34    1
    38    10    35    1
    39    18    36    1
    40    18    37    1
    41    19    38    1
    42    20    39    1
    43    20    40    1
    44    20    41    1
