@<TRIPOS>MOLECULE
AG-205/33155042
 41 44 0 0 0
SMALL
USER_CHARGES

@<TRIPOS>ATOM
      1 C           1.2007    7.5180   -1.7993 C.ar    1  LIG1       -0.0863
      2 C           1.9712    7.3286   -2.9466 C.ar    1  LIG1       -0.0900
      3 C           3.0172    4.8039    4.7259 C.ar    1  LIG1       -0.0643
      4 C           0.8673    3.7851    4.3052 C.ar    1  LIG1       -0.0663
      5 C           2.2729    1.3994   -0.9776 C.ar    1  LIG1       -0.0838
      6 C           0.5749    3.0286   -0.4299 C.ar    1  LIG1       -0.0831
      7 C           1.3791    6.6856   -0.6942 C.ar    1  LIG1       -0.0438
      8 C           2.9200    6.3069   -2.9887 C.ar    1  LIG1       -0.0368
      9 C           1.3130    0.6133   -1.6149 C.ar    1  LIG1       -0.0484
     10 C          -0.3850    2.2424   -1.0673 C.ar    1  LIG1       -0.0478
     11 C           2.7402    4.8242    6.0928 C.ar    1  LIG1       -0.0658
     12 C           0.5902    3.8054    5.6721 C.ar    1  LIG1       -0.0669
     13 C           2.0807    4.2844    3.8320 C.ar    1  LIG1       -0.0315
     14 C           1.9038    2.6071   -0.3850 C.ar    1  LIG1       -0.0746
     15 C           2.3278    5.6639   -0.7364 C.ar    1  LIG1        0.0287
     16 C          -0.0159    1.0347   -1.6597 C.ar    1  LIG1        0.0610
     17 C           3.0983    5.4746   -1.8837 C.ar    1  LIG1        0.1116
     18 C           1.5267    4.3250    6.5659 C.ar    1  LIG1       -0.0146
     19 C           2.3694    4.2627    2.4069 C.2     1  LIG1        0.0104
     20 C           3.0526    3.0797    1.7778 C.3     1  LIG1        0.0285
     21 C           2.9317    3.4502    0.2972 C.3     1  LIG1        0.0179
     22 N           2.0973    5.2342    1.5935 N.2     1  LIG1       -0.3253
     23 N           2.5010    4.8478    0.3502 N.pl3   1  LIG1       -0.3237
     24 F          -0.9373    0.2811   -2.2740 F       1  LIG1       -0.2693
     25 F           4.0127    4.4957   -1.9351 F       1  LIG1       -0.2518
     26 CL          1.1856    4.3488    8.2523 Cl      1  LIG1       -0.1427
     27 H           0.4621    8.3133   -1.7668 H       1  LIG1        0.1260
     28 H           1.8321    7.9770   -3.8066 H       1  LIG1        0.1345
     29 H           3.9656    5.1960    4.3679 H       1  LIG1        0.1442
     30 H           0.1303    3.3777    3.6178 H       1  LIG1        0.1401
     31 H           3.3057    1.0624   -0.9470 H       1  LIG1        0.1327
     32 H           0.2781    3.9682    0.0288 H       1  LIG1        0.1353
     33 H           0.7738    6.8425    0.1952 H       1  LIG1        0.1459
     34 H           3.5197    6.1594   -3.8817 H       1  LIG1        0.1342
     35 H           1.6003   -0.3265   -2.0768 H       1  LIG1        0.1303
     36 H          -1.4197    2.5699   -1.1020 H       1  LIG1        0.1321
     37 H           3.4792    5.2315    6.7780 H       1  LIG1        0.1353
     38 H          -0.3597    3.4131    6.0262 H       1  LIG1        0.1358
     39 H           4.0997    3.0754    2.0994 H       1  LIG1        0.0990
     40 H           2.5742    2.1368    2.0567 H       1  LIG1        0.0982
     41 H           3.8909    3.3398   -0.2194 H       1  LIG1        0.1349
@<TRIPOS>BOND
     1     1     2   ar
     2     1     7   ar
     3     2     8   ar
     4     3    11   ar
     5     3    13   ar
     6     4    12   ar
     7     4    13   ar
     8     5     9   ar
     9     5    14   ar
    10     6    10   ar
    11     6    14   ar
    12     7    15   ar
    13     8    17   ar
    14     9    16   ar
    15    10    16   ar
    16    11    18   ar
    17    12    18   ar
    18    13    19    1
    19    14    21    1
    20    15    17   ar
    21    15    23    1
    22    16    24    1
    23    17    25    1
    24    18    26    1
    25    19    20    1
    26    19    22    2
    27    20    21    1
    28    21    23    1
    29    22    23    1
    30     1    27    1
    31     2    28    1
    32     3    29    1
    33     4    30    1
    34     5    31    1
    35     6    32    1
    36     7    33    1
    37     8    34    1
    38     9    35    1
    39    10    36    1
    40    11    37    1
    41    12    38    1
    42    20    39    1
    43    20    40    1
    44    21    41    1
