@<TRIPOS>MOLECULE
AG-690/36542027
 46 49 0 0 0
SMALL
USER_CHARGES

@<TRIPOS>ATOM
      1 C           0.1955    0.6415   -2.0639 C.ar    1  LIG1       -0.1084
      2 C           2.0232    7.5977   -2.2572 C.ar    1  LIG1       -0.1089
      3 C           1.5217    0.8896   -2.4179 C.ar    1  LIG1       -0.1037
      4 C          -0.4319    1.4393   -1.1070 C.ar    1  LIG1       -0.1068
      5 C           0.8761    6.9673   -1.7752 C.ar    1  LIG1       -0.1040
      6 C           3.2733    7.0067   -2.0732 C.ar    1  LIG1       -0.1042
      7 C           2.2206    1.9354   -1.8149 C.ar    1  LIG1       -0.0942
      8 C           0.2670    2.4851   -0.5040 C.ar    1  LIG1       -0.0985
      9 C           0.9790    5.7460   -1.1092 C.ar    1  LIG1       -0.0908
     10 C           3.3762    5.7855   -1.4072 C.ar    1  LIG1       -0.0915
     11 C           1.5931    2.7332   -0.8580 C.ar    1  LIG1       -0.0958
     12 C           2.2291    5.1551   -0.9251 C.ar    1  LIG1       -0.0880
     13 C           2.4811    5.1967    2.0301 C.2     1  LIG1        0.0846
     14 C           1.7024    4.4849    6.1054 C.3     1  LIG1       -0.0631
     15 C           2.8471    5.3568    5.5918 C.3     1  LIG1       -0.0498
     16 C           1.1813    3.5632    5.0037 C.3     1  LIG1       -0.0491
     17 C           3.6512    3.5231    0.4395 C.3     1  LIG1       -0.0192
     18 C           2.4422    6.1118    4.3288 C.3     1  LIG1       -0.0253
     19 C           0.8084    4.3518    3.7502 C.3     1  LIG1       -0.0240
     20 C           2.4644    3.8872    1.2827 C.3     1  LIG1        0.0537
     21 C           2.3398    3.8503   -0.2124 C.3     1  LIG1       -0.0058
     22 N           1.9294    5.1922    3.3108 N.am    1  LIG1       -0.3634
     23 O           2.9721    6.1920    1.4912 O.2     1  LIG1       -0.4784
     24 H          -0.3487   -0.1726   -2.5336 H       1  LIG1        0.1139
     25 H           1.9430    8.5484   -2.7759 H       1  LIG1        0.1101
     26 H           2.0104    0.2687   -3.1632 H       1  LIG1        0.1166
     27 H          -1.4646    1.2458   -0.8314 H       1  LIG1        0.1152
     28 H          -0.0976    7.4271   -1.9185 H       1  LIG1        0.1125
     29 H           4.1665    7.4979   -2.4485 H       1  LIG1        0.1114
     30 H           3.2536    2.1203   -2.0969 H       1  LIG1        0.1221
     31 H          -0.2310    3.1003    0.2410 H       1  LIG1        0.1155
     32 H           0.0796    5.2630   -0.7368 H       1  LIG1        0.1186
     33 H           4.3552    5.3339   -1.2684 H       1  LIG1        0.1145
     34 H           2.0429    3.8891    6.9595 H       1  LIG1        0.0422
     35 H           0.8868    5.1250    6.4633 H       1  LIG1        0.0435
     36 H           3.1532    6.0661    6.3686 H       1  LIG1        0.0561
     37 H           3.7131    4.7196    5.3732 H       1  LIG1        0.0499
     38 H           1.9570    2.8289    4.7534 H       1  LIG1        0.0562
     39 H           0.3108    3.0055    5.3660 H       1  LIG1        0.0490
     40 H           4.4674    4.2336    0.3633 H       1  LIG1        0.0820
     41 H           3.9841    2.4910    0.4637 H       1  LIG1        0.0817
     42 H           1.6452    6.8314    4.5501 H       1  LIG1        0.0954
     43 H           3.2974    6.6774    3.9456 H       1  LIG1        0.1071
     44 H           0.4889    3.6597    2.9688 H       1  LIG1        0.1138
     45 H          -0.0355    5.0207    3.9571 H       1  LIG1        0.0944
     46 H           2.0110    3.0760    1.8451 H       1  LIG1        0.1129
@<TRIPOS>BOND
     1     1     3   ar
     2     1     4   ar
     3     2     5   ar
     4     2     6   ar
     5     3     7   ar
     6     4     8   ar
     7     5     9   ar
     8     6    10   ar
     9     7    11   ar
    10     8    11   ar
    11     9    12   ar
    12    10    12   ar
    13    11    21    1
    14    12    21    1
    15    13    20    1
    16    13    22   am
    17    13    23    2
    18    14    15    1
    19    14    16    1
    20    15    18    1
    21    16    19    1
    22    17    20    1
    23    17    21    1
    24    18    22    1
    25    19    22    1
    26    20    21    1
    27     1    24    1
    28     2    25    1
    29     3    26    1
    30     4    27    1
    31     5    28    1
    32     6    29    1
    33     7    30    1
    34     8    31    1
    35     9    32    1
    36    10    33    1
    37    14    34    1
    38    14    35    1
    39    15    36    1
    40    15    37    1
    41    16    38    1
    42    16    39    1
    43    17    40    1
    44    17    41    1
    45    18    42    1
    46    18    43    1
    47    19    44    1
    48    19    45    1
    49    20    46    1
