@<TRIPOS>MOLECULE
AG-219/09473002
 39 41 0 0 0
SMALL
USER_CHARGES

@<TRIPOS>ATOM
      1 C           1.4544    5.0371    6.1747 C.ar    1  LIG1       -0.1091
      2 C           0.9274    0.6445   -2.1224 C.ar    1  LIG1       -0.1071
      3 C           2.6638    5.4134    5.5906 C.ar    1  LIG1       -0.1053
      4 C           0.6330    4.1056    5.5394 C.ar    1  LIG1       -0.1082
      5 C          -0.1897    0.7981   -1.3014 C.ar    1  LIG1       -0.1053
      6 C           2.0145    1.5086   -1.9900 C.ar    1  LIG1       -0.1065
      7 C           1.2447    7.2225   -1.8090 C.ar    1  LIG1       -0.1091
      8 C           3.0519    4.8585    4.3711 C.ar    1  LIG1       -0.0963
      9 C           1.0211    3.5506    4.3199 C.ar    1  LIG1       -0.1011
     10 C          -0.2198    1.8158   -0.3479 C.ar    1  LIG1       -0.0998
     11 C           1.9843    2.5264   -1.0366 C.ar    1  LIG1       -0.1003
     12 C           1.3819    6.6519   -0.5106 C.ar    1  LIG1       -0.0768
     13 C           2.2678    6.8455   -2.6507 C.ar    1  LIG1       -0.0462
     14 C           2.2305    3.9271    3.7357 C.ar    1  LIG1       -0.0849
     15 C           0.8672    2.6799   -0.2156 C.ar    1  LIG1       -0.0882
     16 C           2.5049    5.8602   -0.4095 C.ar    1  LIG1        0.0771
     17 C           2.9973    5.1011    0.7509 C.2     1  LIG1        0.1317
     18 C           2.6448    3.3334    2.4317 C.3     1  LIG1        0.0103
     19 C           0.8352    3.7758    0.8103 C.3     1  LIG1        0.0084
     20 N           2.1774    4.1029    1.3066 N.am    1  LIG1       -0.3282
     21 O           4.1237    5.3907    1.1527 O.2     1  LIG1       -0.4616
     22 S           3.3879    5.8077   -1.8758 S.2     1  LIG1       -0.0988
     23 H           1.1530    5.4682    7.1249 H       1  LIG1        0.1141
     24 H           0.9513   -0.1487   -2.8638 H       1  LIG1        0.1164
     25 H           3.3040    6.1378    6.0856 H       1  LIG1        0.1142
     26 H          -0.3081    3.8116    5.9944 H       1  LIG1        0.1131
     27 H          -1.0357    0.1247   -1.4037 H       1  LIG1        0.1162
     28 H           2.8847    1.3887   -2.6283 H       1  LIG1        0.1153
     29 H           0.4371    7.8770   -2.1097 H       1  LIG1        0.1100
     30 H           3.9959    5.1578    3.9232 H       1  LIG1        0.1261
     31 H           0.3747    2.8258    3.8321 H       1  LIG1        0.1153
     32 H          -1.0946    1.9281    0.2873 H       1  LIG1        0.1192
     33 H           2.8357    3.1949   -0.9406 H       1  LIG1        0.1225
     34 H           0.6885    6.8169    0.3045 H       1  LIG1        0.1433
     35 H           2.4114    7.1308   -3.6833 H       1  LIG1        0.1565
     36 H           3.7392    3.2691    2.3558 H       1  LIG1        0.1345
     37 H           2.2580    2.3119    2.3131 H       1  LIG1        0.1299
     38 H           0.4003    4.6879    0.3875 H       1  LIG1        0.1233
     39 H           0.2205    3.4908    1.6706 H       1  LIG1        0.1356
@<TRIPOS>BOND
     1     1     3   ar
     2     1     4   ar
     3     2     5   ar
     4     2     6   ar
     5     3     8   ar
     6     4     9   ar
     7     5    10   ar
     8     6    11   ar
     9     7    12   ar
    10     7    13   ar
    11     8    14   ar
    12     9    14   ar
    13    10    15   ar
    14    11    15   ar
    15    12    16   ar
    16    13    22   ar
    17    14    18    1
    18    15    19    1
    19    16    17    1
    20    16    22   ar
    21    17    20   am
    22    17    21    2
    23    18    20    1
    24    19    20    1
    25     1    23    1
    26     2    24    1
    27     3    25    1
    28     4    26    1
    29     5    27    1
    30     6    28    1
    31     7    29    1
    32     8    30    1
    33     9    31    1
    34    10    32    1
    35    11    33    1
    36    12    34    1
    37    13    35    1
    38    18    36    1
    39    18    37    1
    40    19    38    1
    41    19    39    1
