@<TRIPOS>MOLECULE
AK-968/41018786
 39 41 0 0 0
SMALL
USER_CHARGES

@<TRIPOS>ATOM
      1 C           0.3765    0.5965   -1.9153 C.ar    1  LIG1       -0.1058
      2 C           2.2055    7.5755   -2.3377 C.ar    1  LIG1       -0.1076
      3 C           1.7080    0.9492   -2.1351 C.ar    1  LIG1       -0.1037
      4 C          -0.4101    1.3503   -1.0442 C.ar    1  LIG1       -0.1046
      5 C           3.1757    6.5855   -2.4936 C.ar    1  LIG1       -0.1025
      6 C           1.1851    7.4106   -1.4011 C.ar    1  LIG1       -0.1060
      7 C           2.2530    2.0556   -1.4836 C.ar    1  LIG1       -0.0974
      8 C           0.1350    2.4568   -0.3928 C.ar    1  LIG1       -0.0994
      9 C           3.1254    5.4306   -1.7130 C.ar    1  LIG1       -0.0924
     10 C           1.1348    6.2558   -0.6204 C.ar    1  LIG1       -0.0968
     11 C           3.1332    4.1649    4.8056 C.ar    1  LIG1       -0.0615
     12 C           0.8111    4.6492    4.3470 C.ar    1  LIG1       -0.0548
     13 C           2.9005    4.3405    6.1696 C.ar    1  LIG1       -0.0446
     14 C           0.5784    4.8246    5.7111 C.ar    1  LIG1       -0.0409
     15 C           1.4665    2.8095   -0.6125 C.ar    1  LIG1       -0.0741
     16 C           2.1049    5.2657   -0.7763 C.ar    1  LIG1       -0.0682
     17 C           2.0885    4.3193    3.8943 C.ar    1  LIG1       -0.0492
     18 C           1.6230    4.6704    6.6224 C.ar    1  LIG1        0.0603
     19 C           1.4075    4.2662    1.4678 C.2     1  LIG1        0.1101
     20 C           2.0487    3.9925    0.0846 C.3     1  LIG1        0.0880
     21 N           2.3245    4.1414    2.5103 N.am    1  LIG1       -0.3105
     22 O           0.2168    4.5492    1.5673 O.2     1  LIG1       -0.4673
     23 F           1.3991    4.8380    7.9324 F       1  LIG1       -0.2737
     24 H          -0.0481   -0.2643   -2.4236 H       1  LIG1        0.1171
     25 H           2.2456    8.4752   -2.9447 H       1  LIG1        0.1149
     26 H           2.3202    0.3630   -2.8141 H       1  LIG1        0.1184
     27 H          -1.4471    1.0767   -0.8737 H       1  LIG1        0.1175
     28 H           3.9709    6.7141   -3.2220 H       1  LIG1        0.1151
     29 H           0.4302    8.1817   -1.2786 H       1  LIG1        0.1149
     30 H           3.2915    2.3229   -1.6607 H       1  LIG1        0.1217
     31 H          -0.4854    3.0381    0.2842 H       1  LIG1        0.1154
     32 H           3.8855    4.6644   -1.8414 H       1  LIG1        0.1214
     33 H           0.3360    6.1359    0.1067 H       1  LIG1        0.1181
     34 H           4.1329    3.9083    4.4643 H       1  LIG1        0.1364
     35 H          -0.0099    4.7743    3.6457 H       1  LIG1        0.1512
     36 H           3.7137    4.2212    6.8793 H       1  LIG1        0.1353
     37 H          -0.4164    5.0803    6.0640 H       1  LIG1        0.1358
     38 H           3.1106    3.7702    0.3257 H       1  LIG1        0.1452
     39 H           3.2825    3.9023    2.2628 H       1  LIG1        0.3241
@<TRIPOS>BOND
     1     1     3   ar
     2     1     4   ar
     3     2     5   ar
     4     2     6   ar
     5     3     7   ar
     6     4     8   ar
     7     5     9   ar
     8     6    10   ar
     9     7    15   ar
    10     8    15   ar
    11     9    16   ar
    12    10    16   ar
    13    11    13   ar
    14    11    17   ar
    15    12    14   ar
    16    12    17   ar
    17    13    18   ar
    18    14    18   ar
    19    15    20    1
    20    16    20    1
    21    17    21    1
    22    18    23    1
    23    19    20    1
    24    19    21   am
    25    19    22    2
    26     1    24    1
    27     2    25    1
    28     3    26    1
    29     4    27    1
    30     5    28    1
    31     6    29    1
    32     7    30    1
    33     8    31    1
    34     9    32    1
    35    10    33    1
    36    11    34    1
    37    12    35    1
    38    13    36    1
    39    14    37    1
    40    20    38    1
    41    21    39    1
