@<TRIPOS>MOLECULE
AE-848/11244029
 47 50 0 0 0
SMALL
USER_CHARGES

@<TRIPOS>ATOM
      1 C           0.6148    0.6191   -1.3805 C.ar    1  LIG1       -0.1051
      2 C           2.3782    7.4818   -2.7880 C.ar    1  LIG1       -0.1058
      3 C           1.9547    0.9313   -1.1516 C.ar    1  LIG1       -0.1010
      4 C          -0.3800    1.5473   -1.0732 C.ar    1  LIG1       -0.1010
      5 C           1.1001    7.3087   -2.2568 C.ar    1  LIG1       -0.1041
      6 C           3.4351    6.6930   -2.3336 C.ar    1  LIG1       -0.1046
      7 C           2.3001    2.1717   -0.6153 C.ar    1  LIG1       -0.0876
      8 C          -0.0348    2.7878   -0.5368 C.ar    1  LIG1       -0.0877
      9 C           0.8790    6.3469   -1.2711 C.ar    1  LIG1       -0.0975
     10 C           3.2139    5.7311   -1.3479 C.ar    1  LIG1       -0.0980
     11 C           0.4373    4.5990    5.0309 C.ar    1  LIG1       -0.0987
     12 C           3.1250    3.8925    4.9424 C.ar    1  LIG1       -0.0989
     13 C           1.3053    3.1000   -0.3078 C.ar    1  LIG1       -0.0715
     14 C           1.9359    5.5581   -0.8167 C.ar    1  LIG1       -0.0847
     15 C           0.9639    4.0486    3.8500 C.ar    1  LIG1       -0.0933
     16 C           2.3246    3.6907    3.8053 C.ar    1  LIG1       -0.0936
     17 C           1.2430    4.7885    6.1526 C.ar    1  LIG1       -0.1160
     18 C           2.5870    4.4353    6.1084 C.ar    1  LIG1       -0.1161
     19 C           0.0687    3.8783    2.6524 C.3     1  LIG1        0.0049
     20 C           2.9450    3.1212    2.5581 C.3     1  LIG1        0.0049
     21 C           1.6886    4.4794    0.2889 C.3     1  LIG1        0.0330
     22 C           0.6412    5.3743    7.3875 C.3     1  LIG1       -0.0423
     23 C           3.4738    4.6309    7.2938 C.3     1  LIG1       -0.0423
     24 S           0.3135    5.1950    1.4208 S.3     1  LIG1       -0.2060
     25 S           3.3046    4.4068    1.3220 S.3     1  LIG1       -0.2064
     26 H           0.3461   -0.3463   -1.7995 H       1  LIG1        0.1177
     27 H           2.5500    8.2299   -3.5564 H       1  LIG1        0.1181
     28 H           2.7296    0.2090   -1.3920 H       1  LIG1        0.1189
     29 H          -1.4234    1.3050   -1.2523 H       1  LIG1        0.1188
     30 H           0.2769    7.9221   -2.6113 H       1  LIG1        0.1185
     31 H           4.4300    6.8267   -2.7478 H       1  LIG1        0.1183
     32 H           3.3467    2.4062   -0.4401 H       1  LIG1        0.1331
     33 H          -0.8166    3.5047   -0.3002 H       1  LIG1        0.1325
     34 H          -0.1202    6.2191   -0.8628 H       1  LIG1        0.1291
     35 H           4.0433    5.1212   -0.9999 H       1  LIG1        0.1293
     36 H          -0.6120    4.8844    5.0731 H       1  LIG1        0.1150
     37 H           4.1797    3.6256    4.9156 H       1  LIG1        0.1148
     38 H           0.1675    2.8812    2.2134 H       1  LIG1        0.1151
     39 H          -0.9786    3.9413    2.9712 H       1  LIG1        0.0947
     40 H           3.9059    2.6575    2.8116 H       1  LIG1        0.0959
     41 H           2.3436    2.3074    2.1429 H       1  LIG1        0.1144
     42 H           0.2489    4.5798    8.0328 H       1  LIG1        0.0572
     43 H           1.3823    5.9512    7.9545 H       1  LIG1        0.0541
     44 H          -0.1780    6.0615    7.1415 H       1  LIG1        0.0562
     45 H           3.9341    5.6254    7.2641 H       1  LIG1        0.0579
     46 H           2.9109    4.5343    8.2305 H       1  LIG1        0.0536
     47 H           4.2708    3.8774    7.3214 H       1  LIG1        0.0559
@<TRIPOS>BOND
     1     1     3   ar
     2     1     4   ar
     3     2     5   ar
     4     2     6   ar
     5     3     7   ar
     6     4     8   ar
     7     5     9   ar
     8     6    10   ar
     9     7    13   ar
    10     8    13   ar
    11     9    14   ar
    12    10    14   ar
    13    11    15   ar
    14    11    17   ar
    15    12    16   ar
    16    12    18   ar
    17    13    21    1
    18    14    21    1
    19    15    16   ar
    20    15    19    1
    21    16    20    1
    22    17    18   ar
    23    17    22    1
    24    18    23    1
    25    19    24    1
    26    20    25    1
    27    21    24    1
    28    21    25    1
    29     1    26    1
    30     2    27    1
    31     3    28    1
    32     4    29    1
    33     5    30    1
    34     6    31    1
    35     7    32    1
    36     8    33    1
    37     9    34    1
    38    10    35    1
    39    11    36    1
    40    12    37    1
    41    19    38    1
    42    19    39    1
    43    20    40    1
    44    20    41    1
    45    22    42    1
    46    22    43    1
    47    22    44    1
    48    23    45    1
    49    23    46    1
    50    23    47    1
