@<TRIPOS>MOLECULE
AG-205/33133019
 41 44 0 0 0
SMALL
USER_CHARGES

@<TRIPOS>ATOM
      1 C           2.9068    3.5959    4.7227 C.ar    1  LIG1       -0.0646
      2 C           0.9811    4.9939    4.3049 C.ar    1  LIG1       -0.0623
      3 C           2.2707    1.3936   -0.9763 C.ar    1  LIG1       -0.0846
      4 C           0.5805    3.0324   -0.4337 C.ar    1  LIG1       -0.0833
      5 C           2.6272    3.6191    6.0890 C.ar    1  LIG1       -0.0423
      6 C           0.7015    5.0170    5.6713 C.ar    1  LIG1       -0.0411
      7 C           1.3081    0.6120   -1.6150 C.ar    1  LIG1       -0.0476
      8 C          -0.3822    2.2509   -1.0724 C.ar    1  LIG1       -0.0466
      9 C           1.9492    7.3284   -2.9367 C.ar    1  LIG1       -0.0619
     10 C           3.2072    6.7737   -2.7017 C.ar    1  LIG1       -0.0513
     11 C           1.0903    6.2126   -0.9734 C.ar    1  LIG1       -0.0161
     12 C           2.0838    4.2834    3.8306 C.ar    1  LIG1       -0.0300
     13 C           1.9069    2.6037   -0.3855 C.ar    1  LIG1       -0.0756
     14 C           2.3485    5.6579   -0.7383 C.ar    1  LIG1        0.0135
     15 C           1.5245    4.3296    6.5633 C.ar    1  LIG1        0.0639
     16 C          -0.0185    1.0408   -1.6632 C.ar    1  LIG1        0.0627
     17 C           0.8907    7.0478   -2.0725 C.ar    1  LIG1        0.0008
     18 C           3.4069    5.9384   -1.6025 C.ar    1  LIG1        0.0432
     19 C           2.3755    4.2590    2.4061 C.2     1  LIG1        0.0123
     20 C           3.0536    3.0717    1.7794 C.3     1  LIG1        0.0302
     21 C           2.9379    3.4417    0.2983 C.3     1  LIG1        0.0211
     22 N           2.1105    5.2312    1.5914 N.2     1  LIG1       -0.3194
     23 N           2.5148    4.8418    0.3493 N.pl3   1  LIG1       -0.3174
     24 F           1.2559    4.3517    7.8754 F       1  LIG1       -0.2676
     25 F          -0.9425    0.2917   -2.2790 F       1  LIG1       -0.2676
     26 CL         -0.6611    7.7328   -2.3631 Cl      1  LIG1       -0.1317
     27 CL          4.9807    5.2735   -1.3482 Cl      1  LIG1       -0.1161
     28 H           3.7685    3.0390    4.3639 H       1  LIG1        0.1435
     29 H           0.3326    5.5327    3.6185 H       1  LIG1        0.1483
     30 H           3.3016    1.0508   -0.9432 H       1  LIG1        0.1325
     31 H           0.2879    3.9739    0.0237 H       1  LIG1        0.1366
     32 H           3.2677    3.0838    6.7836 H       1  LIG1        0.1342
     33 H          -0.1569    5.5706    6.0408 H       1  LIG1        0.1337
     34 H           1.5912   -0.3296   -2.0755 H       1  LIG1        0.1317
     35 H          -1.4152    2.5841   -1.1098 H       1  LIG1        0.1333
     36 H           1.8081    7.9776   -3.7971 H       1  LIG1        0.1419
     37 H           4.0215    7.0025   -3.3846 H       1  LIG1        0.1489
     38 H           0.2662    5.9924   -0.2981 H       1  LIG1        0.1556
     39 H           4.0999    3.0621    2.1034 H       1  LIG1        0.0998
     40 H           2.5694    2.1317    2.0582 H       1  LIG1        0.1009
     41 H           3.8977    3.3256   -0.2160 H       1  LIG1        0.1385
@<TRIPOS>BOND
     1     1     5   ar
     2     1    12   ar
     3     2     6   ar
     4     2    12   ar
     5     3     7   ar
     6     3    13   ar
     7     4     8   ar
     8     4    13   ar
     9     5    15   ar
    10     6    15   ar
    11     7    16   ar
    12     8    16   ar
    13     9    10   ar
    14     9    17   ar
    15    10    18   ar
    16    11    14   ar
    17    11    17   ar
    18    12    19    1
    19    13    21    1
    20    14    18   ar
    21    14    23    1
    22    15    24    1
    23    16    25    1
    24    17    26    1
    25    18    27    1
    26    19    20    1
    27    19    22    2
    28    20    21    1
    29    21    23    1
    30    22    23    1
    31     1    28    1
    32     2    29    1
    33     3    30    1
    34     4    31    1
    35     5    32    1
    36     6    33    1
    37     7    34    1
    38     8    35    1
    39     9    36    1
    40    10    37    1
    41    11    38    1
    42    20    39    1
    43    20    40    1
    44    21    41    1
