@<TRIPOS>MOLECULE
AE-848/12530633
 42 45 0 0 0
SMALL
USER_CHARGES

@<TRIPOS>ATOM
      1 C           1.0898    0.4114   -1.9373 C.ar    1  LIG1       -0.1095
      2 C           2.1672    1.2736   -1.7345 C.ar    1  LIG1       -0.1061
      3 C          -0.1893    0.7843   -1.5244 C.ar    1  LIG1       -0.1077
      4 C           2.0486    6.7035   -2.4808 C.ar    1  LIG1       -0.1017
      5 C           2.9720    7.3515   -1.6625 C.ar    1  LIG1       -0.0944
      6 C           0.6492    4.9998    4.4554 C.ar    1  LIG1       -0.0691
      7 C           2.9309    4.2734    4.1339 C.ar    1  LIG1       -0.0799
      8 C           1.9657    2.5088   -1.1186 C.ar    1  LIG1       -0.0985
      9 C          -0.3909    2.0195   -0.9084 C.ar    1  LIG1       -0.0999
     10 C           1.2337    5.6986   -1.9575 C.ar    1  LIG1       -0.0934
     11 C           3.0780    7.0012   -0.3178 C.ar    1  LIG1       -0.0541
     12 C           0.8069    4.8841    5.8365 C.ar    1  LIG1       -0.0529
     13 C           3.0886    4.1576    5.5149 C.ar    1  LIG1       -0.0661
     14 C           1.7111    4.6944    3.6041 C.ar    1  LIG1       -0.0375
     15 C           0.6865    2.8818   -0.7055 C.ar    1  LIG1       -0.0948
     16 C           1.3383    5.3277   -0.6084 C.ar    1  LIG1       -0.0542
     17 C           2.2597    5.9980    0.2065 C.ar    1  LIG1        0.0195
     18 C           2.0267    4.4630    6.3663 C.ar    1  LIG1       -0.0134
     19 C           0.6232    4.1132    1.4622 C.2     1  LIG1       -0.0697
     20 C           1.5443    4.8168    2.1434 C.2     1  LIG1        0.0158
     21 C           0.4659    4.2297   -0.0329 C.3     1  LIG1       -0.0068
     22 C           3.4539    3.9142    8.1877 C.3     1  LIG1        0.0241
     23 O           2.4087    5.7233    1.5465 O.3     1  LIG1       -0.3605
     24 O           2.1806    4.3500    7.7139 O.3     1  LIG1       -0.4174
     25 H           1.2467   -0.5497   -2.4182 H       1  LIG1        0.1127
     26 H           3.1631    0.9839   -2.0570 H       1  LIG1        0.1139
     27 H          -1.0286    0.1138   -1.6832 H       1  LIG1        0.1142
     28 H           1.9633    6.9800   -3.5277 H       1  LIG1        0.1157
     29 H           3.6051    8.1329   -2.0728 H       1  LIG1        0.1296
     30 H          -0.3076    5.3293    4.0575 H       1  LIG1        0.1453
     31 H           3.7679    4.0317    3.4832 H       1  LIG1        0.1373
     32 H           2.8112    3.1741   -0.9644 H       1  LIG1        0.1149
     33 H          -1.3910    2.3015   -0.5898 H       1  LIG1        0.1169
     34 H           0.5176    5.2049   -2.6096 H       1  LIG1        0.1274
     35 H           3.7933    7.5165    0.3171 H       1  LIG1        0.1320
     36 H          -0.0239    5.1233    6.4946 H       1  LIG1        0.1315
     37 H           4.0411    3.8291    5.9218 H       1  LIG1        0.1157
     38 H          -0.0382    3.4259    1.9857 H       1  LIG1        0.1111
     39 H          -0.5915    4.5155   -0.2231 H       1  LIG1        0.1082
     40 H           3.4407    3.8675    9.2794 H       1  LIG1        0.0896
     41 H           4.2265    4.6102    7.8514 H       1  LIG1        0.0897
     42 H           3.6616    2.9199    7.7852 H       1  LIG1        0.1223
@<TRIPOS>BOND
     1     1     2   ar
     2     1     3   ar
     3     2     8   ar
     4     3     9   ar
     5     4     5   ar
     6     4    10   ar
     7     5    11   ar
     8     6    12   ar
     9     6    14   ar
    10     7    13   ar
    11     7    14   ar
    12     8    15   ar
    13     9    15   ar
    14    10    16   ar
    15    11    17   ar
    16    12    18   ar
    17    13    18   ar
    18    14    20    1
    19    15    21    1
    20    16    17   ar
    21    16    21    1
    22    17    23    1
    23    18    24    1
    24    19    20    2
    25    19    21    1
    26    20    23    1
    27    22    24    1
    28     1    25    1
    29     2    26    1
    30     3    27    1
    31     4    28    1
    32     5    29    1
    33     6    30    1
    34     7    31    1
    35     8    32    1
    36     9    33    1
    37    10    34    1
    38    11    35    1
    39    12    36    1
    40    13    37    1
    41    19    38    1
    42    21    39    1
    43    22    40    1
    44    22    41    1
    45    22    42    1
