@<TRIPOS>MOLECULE
AG-690/10493020
 38 41 0 0 0
SMALL
USER_CHARGES

@<TRIPOS>ATOM
      1 C           2.1169    6.9799   -2.2143 C.ar    1  LIG1       -0.1145
      2 C           3.1198    4.1347    4.7977 C.ar    1  LIG1       -0.0627
      3 C           0.8345    4.7746    4.3442 C.ar    1  LIG1       -0.0650
      4 C           2.2756    1.6987   -1.3378 C.ar    1  LIG1       -0.0310
      5 C           1.6782    0.9254   -2.3331 C.ar    1  LIG1       -0.0307
      6 C           2.9257    4.4019    6.1529 C.ar    1  LIG1       -0.0727
      7 C           0.6404    5.0417    5.6995 C.ar    1  LIG1       -0.0741
      8 C           2.9300    5.9189   -1.7210 C.ar    1  LIG1       -0.1080
      9 C          -0.5043    1.6067   -1.5522 C.ar    1  LIG1        0.0193
     10 C           1.0375    7.2283   -1.3952 C.ar    1  LIG1       -0.0543
     11 C           2.0742    4.3213    3.8933 C.ar    1  LIG1       -0.0281
     12 C           1.4832    2.4258   -0.4496 C.ar    1  LIG1        0.0391
     13 C           0.2881    0.8795   -2.4403 C.ar    1  LIG1        0.0774
     14 C           0.0933    2.3799   -0.5569 C.ar    1  LIG1        0.1288
     15 C           1.6860    4.8552    6.6038 C.ar    1  LIG1       -0.0390
     16 C           2.4412    5.3968   -0.5435 C.ar    1  LIG1       -0.0383
     17 C           2.2766    4.0428    2.4804 C.2     1  LIG1        0.0160
     18 C           3.3231    4.7820    1.6924 C.3     1  LIG1        0.0350
     19 C           2.9971    4.2921    0.2789 C.3     1  LIG1        0.0287
     20 N           1.6171    3.1500    1.8118 N.2     1  LIG1       -0.3194
     21 N           2.0729    3.1850    0.5278 N.pl3   1  LIG1       -0.3148
     22 F          -0.2856    0.1369   -3.3962 F       1  LIG1       -0.2602
     23 F          -0.6780    3.0749    0.2914 F       1  LIG1       -0.2390
     24 S           1.0075    6.1850   -0.0377 S.2     1  LIG1       -0.1415
     25 BR          1.4230    5.2171    8.4400 Br      1  LIG1       -0.1099
     26 H           2.3134    7.5336   -3.1229 H       1  LIG1        0.1112
     27 H           4.0898    3.7817    4.4571 H       1  LIG1        0.1446
     28 H           0.0129    4.9234    3.6483 H       1  LIG1        0.1400
     29 H           3.3598    1.7272   -1.2634 H       1  LIG1        0.1548
     30 H           2.2947    0.3591   -3.0248 H       1  LIG1        0.1429
     31 H           3.7507    4.2513    6.8444 H       1  LIG1        0.1377
     32 H          -0.3317    5.3944    6.0346 H       1  LIG1        0.1379
     33 H           3.8282    5.5612   -2.2083 H       1  LIG1        0.1156
     34 H          -1.5864    1.5708   -1.6358 H       1  LIG1        0.1491
     35 H           0.2651    7.9723   -1.5292 H       1  LIG1        0.1627
     36 H           3.2449    5.8634    1.8357 H       1  LIG1        0.1024
     37 H           4.3106    4.4350    2.0151 H       1  LIG1        0.1054
     38 H           3.9078    3.9236   -0.2082 H       1  LIG1        0.1545
@<TRIPOS>BOND
     1     1     8   ar
     2     1    10   ar
     3     2     6   ar
     4     2    11   ar
     5     3     7   ar
     6     3    11   ar
     7     4     5   ar
     8     4    12   ar
     9     5    13   ar
    10     6    15   ar
    11     7    15   ar
    12     8    16   ar
    13     9    13   ar
    14     9    14   ar
    15    10    24   ar
    16    11    17    1
    17    12    14   ar
    18    12    21    1
    19    13    22    1
    20    14    23    1
    21    15    25    1
    22    16    19    1
    23    16    24   ar
    24    17    18    1
    25    17    20    2
    26    18    19    1
    27    19    21    1
    28    20    21    1
    29     1    26    1
    30     2    27    1
    31     3    28    1
    32     4    29    1
    33     5    30    1
    34     6    31    1
    35     7    32    1
    36     8    33    1
    37     9    34    1
    38    10    35    1
    39    18    36    1
    40    18    37    1
    41    19    38    1
