@<TRIPOS>MOLECULE
AG-205/07897027
 44 46 0 0 0
SMALL
USER_CHARGES

@<TRIPOS>ATOM
      1 C           0.3747    0.5972   -1.9127 C.ar    1  LIG1       -0.1048
      2 C           2.2037    7.5761   -2.3358 C.ar    1  LIG1       -0.1067
      3 C           1.7056    0.9498   -2.1361 C.ar    1  LIG1       -0.1041
      4 C          -0.4093    1.3506   -1.0388 C.ar    1  LIG1       -0.1033
      5 C           3.1733    6.5861   -2.4951 C.ar    1  LIG1       -0.1020
      6 C           1.1859    7.4108   -1.3964 C.ar    1  LIG1       -0.1053
      7 C           2.2527    2.0557   -1.4855 C.ar    1  LIG1       -0.0999
      8 C           0.1379    2.4565   -0.3883 C.ar    1  LIG1       -0.0982
      9 C           3.1250    5.4306   -1.7151 C.ar    1  LIG1       -0.0928
     10 C           1.1377    6.2555   -0.6163 C.ar    1  LIG1       -0.0970
     11 C           0.8212    4.6452    4.3316 C.ar    1  LIG1       -0.0381
     12 C           0.5726    4.8238    5.6924 C.ar    1  LIG1       -0.0376
     13 C           2.8900    4.3437    6.1787 C.ar    1  LIG1       -0.0397
     14 C           1.4688    2.8091   -0.6116 C.ar    1  LIG1       -0.0755
     15 C           2.1072    5.2653   -0.7756 C.ar    1  LIG1       -0.0689
     16 C           3.1386    4.1651    4.8180 C.ar    1  LIG1       -0.0607
     17 C           2.1042    4.3158    3.8943 C.ar    1  LIG1       -0.0355
     18 C           1.6070    4.6732    6.6160 C.ar    1  LIG1        0.0666
     19 C           1.4161    4.2644    1.4698 C.2     1  LIG1        0.1174
     20 C           4.5223    3.8121    4.3776 C.3     1  LIG1       -0.0306
     21 C           2.0533    3.9916    0.0846 C.3     1  LIG1        0.0885
     22 N           2.3361    4.1388    2.5096 N.am    1  LIG1       -0.2982
     23 N           1.3534    4.8549    8.0013 N.pl3   1  LIG1       -0.0548
     24 O           0.1920    5.1507    8.3731 O.2     1  LIG1       -0.1623
     25 O           0.2258    4.5476    1.5730 O.2     1  LIG1       -0.4587
     26 O           2.2975    4.7147    8.8157 O.2     1  LIG1       -0.2513
     27 H          -0.0515   -0.2632   -2.4204 H       1  LIG1        0.1188
     28 H           2.2422    8.4762   -2.9423 H       1  LIG1        0.1162
     29 H           2.3157    0.3640   -2.8173 H       1  LIG1        0.1185
     30 H          -1.4458    1.0770   -0.8656 H       1  LIG1        0.1196
     31 H           3.9664    6.7150   -3.2258 H       1  LIG1        0.1159
     32 H           0.4316    8.1819   -1.2712 H       1  LIG1        0.1158
     33 H           3.2907    2.3229   -1.6655 H       1  LIG1        0.1168
     34 H          -0.4804    3.0375    0.2909 H       1  LIG1        0.1220
     35 H           3.8846    4.6644   -1.8462 H       1  LIG1        0.1224
     36 H           0.3410    6.1353    0.1130 H       1  LIG1        0.1188
     37 H           0.0070    4.7654    3.6212 H       1  LIG1        0.1676
     38 H          -0.4318    5.0809    6.0198 H       1  LIG1        0.1668
     39 H           3.6987    4.2252    6.8970 H       1  LIG1        0.1682
     40 H           4.6468    2.7236    4.3558 H       1  LIG1        0.0641
     41 H           4.7322    4.2089    3.3771 H       1  LIG1        0.0652
     42 H           5.2732    4.2372    5.0545 H       1  LIG1        0.0563
     43 H           3.1158    3.7689    0.3224 H       1  LIG1        0.1479
     44 H           3.2933    3.8997    2.2592 H       1  LIG1        0.3328
@<TRIPOS>BOND
     1     1     3   ar
     2     1     4   ar
     3     2     5   ar
     4     2     6   ar
     5     3     7   ar
     6     4     8   ar
     7     5     9   ar
     8     6    10   ar
     9     7    14   ar
    10     8    14   ar
    11     9    15   ar
    12    10    15   ar
    13    11    12   ar
    14    11    17   ar
    15    12    18   ar
    16    13    16   ar
    17    13    18   ar
    18    14    21    1
    19    15    21    1
    20    16    17   ar
    21    16    20    1
    22    17    22    1
    23    18    23    1
    24    19    21    1
    25    19    22   am
    26    19    25    2
    27    23    24    1
    28    23    26    2
    29     1    27    1
    30     2    28    1
    31     3    29    1
    32     4    30    1
    33     5    31    1
    34     6    32    1
    35     7    33    1
    36     8    34    1
    37     9    35    1
    38    10    36    1
    39    11    37    1
    40    12    38    1
    41    13    39    1
    42    20    40    1
    43    20    41    1
    44    20    42    1
    45    21    43    1
    46    22    44    1
