@<TRIPOS>MOLECULE
AK-968/40079253
 39 41 0 0 0
SMALL
USER_CHARGES

@<TRIPOS>ATOM
      1 C           0.3734    0.5977   -1.9109 C.ar    1  LIG1       -0.1055
      2 C           2.2024    7.5765   -2.3344 C.ar    1  LIG1       -0.1076
      3 C           1.7039    0.9502   -2.1367 C.ar    1  LIG1       -0.1037
      4 C          -0.4087    1.3507   -1.0350 C.ar    1  LIG1       -0.1039
      5 C           3.1715    6.5865   -2.4962 C.ar    1  LIG1       -0.1024
      6 C           1.1866    7.4109   -1.3930 C.ar    1  LIG1       -0.1059
      7 C           0.5689    4.8234    5.6793 C.ar    1  LIG1       -0.0893
      8 C           1.5958    4.6750    6.6114 C.ar    1  LIG1       -0.0950
      9 C           2.2524    2.0558   -1.4867 C.ar    1  LIG1       -0.0974
     10 C           0.1399    2.4563   -0.3851 C.ar    1  LIG1       -0.0987
     11 C           3.1247    5.4307   -1.7166 C.ar    1  LIG1       -0.0922
     12 C           1.1398    6.2553   -0.6134 C.ar    1  LIG1       -0.0966
     13 C           0.8285    4.6426    4.3208 C.ar    1  LIG1       -0.0562
     14 C           2.8824    4.3457    6.1850 C.ar    1  LIG1       -0.0695
     15 C           1.4705    2.8089   -0.6109 C.ar    1  LIG1       -0.0736
     16 C           2.1088    5.2651   -0.7751 C.ar    1  LIG1       -0.0678
     17 C           2.1151    4.3134    3.8944 C.ar    1  LIG1       -0.0253
     18 C           3.1421    4.1649    4.8265 C.ar    1  LIG1        0.0141
     19 C           1.4221    4.2633    1.4713 C.2     1  LIG1        0.1122
     20 C           2.0565    3.9909    0.0846 C.3     1  LIG1        0.0886
     21 N           2.3442    4.1371    2.5091 N.am    1  LIG1       -0.3040
     22 O           0.2320    4.5465    1.5770 O.2     1  LIG1       -0.4660
     23 CL          4.7508    3.7612    4.3423 Cl      1  LIG1       -0.1381
     24 H          -0.0539   -0.2624   -2.4180 H       1  LIG1        0.1169
     25 H           2.2398    8.4769   -2.9406 H       1  LIG1        0.1148
     26 H           2.3126    0.3646   -2.8194 H       1  LIG1        0.1181
     27 H          -1.4449    1.0772   -0.8598 H       1  LIG1        0.1176
     28 H           3.9632    6.7156   -3.2284 H       1  LIG1        0.1151
     29 H           0.4325    8.1821   -1.2660 H       1  LIG1        0.1149
     30 H          -0.4327    5.0803    6.0117 H       1  LIG1        0.1294
     31 H           1.3931    4.8154    7.6691 H       1  LIG1        0.1243
     32 H           3.2902    2.3229   -1.6687 H       1  LIG1        0.1215
     33 H          -0.4769    3.0371    0.2956 H       1  LIG1        0.1153
     34 H           3.8839    4.6644   -1.8496 H       1  LIG1        0.1215
     35 H           0.3445    6.1348    0.1175 H       1  LIG1        0.1182
     36 H           0.0190    4.7610    3.6047 H       1  LIG1        0.1488
     37 H           3.6716    4.2334    6.9243 H       1  LIG1        0.1363
     38 H           3.1194    3.7681    0.3202 H       1  LIG1        0.1453
     39 H           3.3009    3.8980    2.2566 H       1  LIG1        0.3260
@<TRIPOS>BOND
     1     1     3   ar
     2     1     4   ar
     3     2     5   ar
     4     2     6   ar
     5     3     9   ar
     6     4    10   ar
     7     5    11   ar
     8     6    12   ar
     9     7     8   ar
    10     7    13   ar
    11     8    14   ar
    12     9    15   ar
    13    10    15   ar
    14    11    16   ar
    15    12    16   ar
    16    13    17   ar
    17    14    18   ar
    18    15    20    1
    19    16    20    1
    20    17    18   ar
    21    17    21    1
    22    18    23    1
    23    19    20    1
    24    19    21   am
    25    19    22    2
    26     1    24    1
    27     2    25    1
    28     3    26    1
    29     4    27    1
    30     5    28    1
    31     6    29    1
    32     7    30    1
    33     8    31    1
    34     9    32    1
    35    10    33    1
    36    11    34    1
    37    12    35    1
    38    13    36    1
    39    14    37    1
    40    20    38    1
    41    21    39    1
