@<TRIPOS>MOLECULE
AG-205/07762006
 41 44 0 0 0
SMALL
USER_CHARGES

@<TRIPOS>ATOM
      1 C           1.6353    1.2484   -2.6029 C.ar    1  LIG1       -0.0837
      2 C           0.3090    0.8303   -2.4955 C.ar    1  LIG1       -0.0910
      3 C           1.3015    5.4340    4.1944 C.ar    1  LIG1       -0.0664
      4 C           2.6767    3.5477    4.8172 C.ar    1  LIG1       -0.0641
      5 C           1.2326    5.5898   -0.6121 C.ar    1  LIG1       -0.0845
      6 C           3.4932    6.0673   -1.3183 C.ar    1  LIG1       -0.0841
      7 C           2.2014    2.0365   -1.6008 C.ar    1  LIG1       -0.0431
      8 C           1.1077    5.7377    5.5419 C.ar    1  LIG1       -0.0672
      9 C           2.4829    3.8515    6.1647 C.ar    1  LIG1       -0.0660
     10 C           0.7667    6.6543   -1.3836 C.ar    1  LIG1       -0.0720
     11 C           3.0273    7.1317   -2.0899 C.ar    1  LIG1       -0.0718
     12 C          -0.4513    1.2002   -1.3861 C.ar    1  LIG1       -0.0695
     13 C           2.0860    4.3390    3.8320 C.ar    1  LIG1       -0.0312
     14 C           2.5959    5.2963   -0.5792 C.ar    1  LIG1       -0.0733
     15 C           1.4412    2.4065   -0.4914 C.ar    1  LIG1       -0.0021
     16 C           1.6984    4.9464    6.5271 C.ar    1  LIG1       -0.0149
     17 C           1.6640    7.4252   -2.1227 C.ar    1  LIG1       -0.0163
     18 C           0.1148    1.9883   -0.3841 C.ar    1  LIG1        0.0094
     19 C           2.2885    4.0223    2.4272 C.2     1  LIG1        0.0122
     20 C           3.4432    4.6120    1.6651 C.3     1  LIG1        0.0290
     21 C           3.0951    4.1552    0.2458 C.3     1  LIG1        0.0208
     22 N           1.5370    3.2164    1.7458 N.2     1  LIG1       -0.3213
     23 N           2.0283    3.1798    0.4750 N.pl3   1  LIG1       -0.3216
     24 CL          1.4604    5.3220    8.1893 Cl      1  LIG1       -0.1432
     25 CL          1.0890    8.7382   -3.0747 Cl      1  LIG1       -0.1432
     26 BR         -0.9645    2.4624    1.1039 Br      1  LIG1       -0.0916
     27 H           2.2274    0.9600   -3.4665 H       1  LIG1        0.1303
     28 H          -0.1312    0.2160   -3.2757 H       1  LIG1        0.1301
     29 H           0.8361    6.0568    3.4348 H       1  LIG1        0.1395
     30 H           3.2901    2.6923    4.5464 H       1  LIG1        0.1443
     31 H           0.5271    4.9940   -0.0389 H       1  LIG1        0.1290
     32 H           4.5569    5.8450   -1.2983 H       1  LIG1        0.1319
     33 H           3.2365    2.3550   -1.6971 H       1  LIG1        0.1417
     34 H           0.4945    6.5942    5.8099 H       1  LIG1        0.1353
     35 H           2.9493    3.2258    6.9215 H       1  LIG1        0.1349
     36 H          -0.2984    6.8709   -1.3997 H       1  LIG1        0.1318
     37 H           3.7382    7.7238   -2.6605 H       1  LIG1        0.1334
     38 H          -1.4828    0.8637   -1.3208 H       1  LIG1        0.1369
     39 H           3.5079    5.6956    1.7965 H       1  LIG1        0.0985
     40 H           4.3661    4.1387    2.0174 H       1  LIG1        0.0974
     41 H           3.9607    3.7023   -0.2490 H       1  LIG1        0.1355
@<TRIPOS>BOND
     1     1     2   ar
     2     1     7   ar
     3     2    12   ar
     4     3     8   ar
     5     3    13   ar
     6     4     9   ar
     7     4    13   ar
     8     5    10   ar
     9     5    14   ar
    10     6    11   ar
    11     6    14   ar
    12     7    15   ar
    13     8    16   ar
    14     9    16   ar
    15    10    17   ar
    16    11    17   ar
    17    12    18   ar
    18    13    19    1
    19    14    21    1
    20    15    18   ar
    21    15    23    1
    22    16    24    1
    23    17    25    1
    24    18    26    1
    25    19    20    1
    26    19    22    2
    27    20    21    1
    28    21    23    1
    29    22    23    1
    30     1    27    1
    31     2    28    1
    32     3    29    1
    33     4    30    1
    34     5    31    1
    35     6    32    1
    36     7    33    1
    37     8    34    1
    38     9    35    1
    39    10    36    1
    40    11    37    1
    41    12    38    1
    42    20    39    1
    43    20    40    1
    44    21    41    1
