@<TRIPOS>MOLECULE
AP-518/42324203
 48 50 0 0 0
SMALL
USER_CHARGES

@<TRIPOS>ATOM
      1 C           2.0139    7.6203   -2.2575 C.ar    1  LIG1       -0.1062
      2 C           0.4898    4.1751    5.2655 C.ar    1  LIG1       -0.1002
      3 C           2.9767    6.6808   -2.6258 C.ar    1  LIG1       -0.1045
      4 C           1.1804    7.3740   -1.1665 C.ar    1  LIG1       -0.1034
      5 C           1.2950    4.6572    6.2973 C.ar    1  LIG1       -0.1009
      6 C           1.0313    3.9683    3.9968 C.ar    1  LIG1       -0.0756
      7 C           3.1062    5.4948   -1.9031 C.ar    1  LIG1       -0.0944
      8 C           1.3098    6.1880   -0.4438 C.ar    1  LIG1       -0.0923
      9 C           2.6418    4.9327    6.0605 C.ar    1  LIG1       -0.0936
     10 C           0.1910    0.6736   -1.6946 C.ar    1  LIG1       -0.1063
     11 C           1.5178    0.8740   -2.0755 C.ar    1  LIG1       -0.1029
     12 C           0.3169    2.6000   -0.2420 C.ar    1  LIG1       -0.0922
     13 C           2.3780    4.2438    3.7598 C.ar    1  LIG1        0.0204
     14 C           2.2727    5.2484   -0.8120 C.ar    1  LIG1       -0.0734
     15 C          -0.4094    1.5365   -0.7779 C.ar    1  LIG1       -0.1169
     16 C           3.1833    4.7260    4.7916 C.ar    1  LIG1       -0.0811
     17 C           2.2441    1.9374   -1.5395 C.ar    1  LIG1       -0.1045
     18 C           1.6437    2.8004   -0.6228 C.ar    1  LIG1       -0.0707
     19 C           2.9176    4.0196    2.4255 C.2     1  LIG1        0.1065
     20 C          -1.8279    1.3218   -0.3705 C.3     1  LIG1       -0.0452
     21 C           4.6282    5.0298    4.5656 C.3     1  LIG1       -0.0319
     22 C           3.6637    2.1313   -1.9615 C.3     1  LIG1       -0.0414
     23 C           2.4124    3.9613   -0.0274 C.3     1  LIG1        0.0157
     24 N           2.0344    4.1718    1.3516 N.am    1  LIG1       -0.3277
     25 O           4.1059    3.6886    2.2750 O.2     1  LIG1       -0.4737
     26 H           1.9142    8.5443   -2.8196 H       1  LIG1        0.1166
     27 H          -0.5590    3.9602    5.4496 H       1  LIG1        0.1175
     28 H           3.6265    6.8729   -3.4746 H       1  LIG1        0.1171
     29 H           0.4314    8.1058   -0.8789 H       1  LIG1        0.1185
     30 H           0.8728    4.8183    7.2850 H       1  LIG1        0.1255
     31 H           0.3931    3.5932    3.2008 H       1  LIG1        0.1248
     32 H           3.8591    4.7683   -2.1974 H       1  LIG1        0.1161
     33 H           0.6560    6.0046    0.4048 H       1  LIG1        0.1224
     34 H           3.2605    5.3076    6.8715 H       1  LIG1        0.1218
     35 H          -0.3672   -0.1579   -2.1169 H       1  LIG1        0.1149
     36 H           1.9768    0.1956   -2.7899 H       1  LIG1        0.1171
     37 H          -0.1522    3.2728    0.4722 H       1  LIG1        0.1164
     38 H          -1.8781    0.6643    0.5061 H       1  LIG1        0.0550
     39 H          -2.3193    2.2713   -0.1217 H       1  LIG1        0.0513
     40 H          -2.4106    0.8656   -1.1814 H       1  LIG1        0.0529
     41 H           5.2390    4.1427    4.7692 H       1  LIG1        0.0620
     42 H           4.8088    5.3492    3.5319 H       1  LIG1        0.0492
     43 H           4.9679    5.8454    5.2159 H       1  LIG1        0.0752
     44 H           3.7127    2.7832   -2.8415 H       1  LIG1        0.0573
     45 H           4.2578    2.5836   -1.1579 H       1  LIG1        0.0525
     46 H           4.1379    1.1735   -2.2089 H       1  LIG1        0.0537
     47 H           3.4727    3.6803    0.0187 H       1  LIG1        0.1571
     48 H           1.0589    4.3817    1.5359 H       1  LIG1        0.3011
@<TRIPOS>BOND
     1     1     3   ar
     2     1     4   ar
     3     2     5   ar
     4     2     6   ar
     5     3     7   ar
     6     4     8   ar
     7     5     9   ar
     8     6    13   ar
     9     7    14   ar
    10     8    14   ar
    11     9    16   ar
    12    10    11   ar
    13    10    15   ar
    14    11    17   ar
    15    12    15   ar
    16    12    18   ar
    17    13    16   ar
    18    13    19    1
    19    14    23    1
    20    15    20    1
    21    16    21    1
    22    17    18   ar
    23    17    22    1
    24    18    23    1
    25    19    24   am
    26    19    25    2
    27    23    24    1
    28     1    26    1
    29     2    27    1
    30     3    28    1
    31     4    29    1
    32     5    30    1
    33     6    31    1
    34     7    32    1
    35     8    33    1
    36     9    34    1
    37    10    35    1
    38    11    36    1
    39    12    37    1
    40    20    38    1
    41    20    39    1
    42    20    40    1
    43    21    41    1
    44    21    42    1
    45    21    43    1
    46    22    44    1
    47    22    45    1
    48    22    46    1
    49    23    47    1
    50    24    48    1
