@<TRIPOS>MOLECULE
AN-329/12715739
 45 47 0 0 0
SMALL
USER_CHARGES

@<TRIPOS>ATOM
      1 C           0.3822    0.6128   -1.8759 C.ar    1  LIG1       -0.1080
      2 C           2.1957    7.5579   -2.4015 C.ar    1  LIG1       -0.1057
      3 C           1.5980    4.6295    6.6259 C.ar    1  LIG1       -0.0913
      4 C           1.7141    0.9622   -2.0984 C.ar    1  LIG1       -0.1024
      5 C          -0.4038    1.3752   -1.0117 C.ar    1  LIG1       -0.1064
      6 C           3.1855    6.5818   -2.5171 C.ar    1  LIG1       -0.1042
      7 C           1.1656    7.4002   -1.4742 C.ar    1  LIG1       -0.1036
      8 C           0.5695    4.8100    5.7011 C.ar    1  LIG1       -0.0866
      9 C           2.8784    4.2912    6.1878 C.ar    1  LIG1       -0.0593
     10 C           2.2601    2.0739   -1.4568 C.ar    1  LIG1       -0.0918
     11 C           0.1421    2.4868   -0.3701 C.ar    1  LIG1       -0.0971
     12 C           3.1451    5.4481   -1.7056 C.ar    1  LIG1       -0.0981
     13 C           1.1252    6.2664   -0.6628 C.ar    1  LIG1       -0.0972
     14 C           0.8213    4.6521    4.3383 C.ar    1  LIG1       -0.0500
     15 C           3.1302    4.1333    4.8250 C.ar    1  LIG1        0.0689
     16 C           1.4741    2.8363   -0.5926 C.ar    1  LIG1       -0.0681
     17 C           2.1149    5.2903   -0.7783 C.ar    1  LIG1       -0.0732
     18 C           2.1016    4.3138    3.9002 C.ar    1  LIG1       -0.0121
     19 C           4.4791    3.7795    4.4007 C.2     1  LIG1        0.1792
     20 C           1.4160    4.3116    1.4744 C.2     1  LIG1        0.1149
     21 C           5.7683    2.1335    3.2571 C.3     1  LIG1        0.0371
     22 C           2.0700    4.0510    0.1089 C.3     1  LIG1        0.0888
     23 N           2.3302    4.1589    2.5301 N.am    1  LIG1       -0.2942
     24 O           5.4826    4.4665    4.6236 O.2     1  LIG1       -0.4556
     25 O           0.2314    4.6166    1.5805 O.2     1  LIG1       -0.4659
     26 O           4.4952    2.5908    3.7258 O.3     1  LIG1       -0.3529
     27 H          -0.0431   -0.2521   -2.3765 H       1  LIG1        0.1145
     28 H           2.2280    8.4413   -3.0325 H       1  LIG1        0.1162
     29 H           1.4016    4.7522    7.6871 H       1  LIG1        0.1196
     30 H           2.3259    0.3693   -2.7720 H       1  LIG1        0.1148
     31 H          -1.4412    1.1041   -0.8391 H       1  LIG1        0.1144
     32 H           3.9883    6.7050   -3.2382 H       1  LIG1        0.1163
     33 H           0.3955    8.1604   -1.3832 H       1  LIG1        0.1177
     34 H          -0.4272    5.0736    6.0427 H       1  LIG1        0.1378
     35 H           3.6715    4.1535    6.9184 H       1  LIG1        0.1490
     36 H           3.2989    2.3385   -1.6361 H       1  LIG1        0.1240
     37 H          -0.4777    3.0749    0.3016 H       1  LIG1        0.1182
     38 H           3.9205    4.6927   -1.8027 H       1  LIG1        0.1177
     39 H           0.3188    6.1520    0.0567 H       1  LIG1        0.1207
     40 H           0.0111    4.7956    3.6277 H       1  LIG1        0.1481
     41 H           5.6451    1.1798    2.7380 H       1  LIG1        0.1261
     42 H           6.4482    2.0142    4.1043 H       1  LIG1        0.0976
     43 H           6.1785    2.8723    2.5645 H       1  LIG1        0.0975
     44 H           3.1188    3.8037    0.3373 H       1  LIG1        0.1450
     45 H           3.2875    3.9102    2.2595 H       1  LIG1        0.3392
@<TRIPOS>BOND
     1     1     4   ar
     2     1     5   ar
     3     2     6   ar
     4     2     7   ar
     5     3     8   ar
     6     3     9   ar
     7     4    10   ar
     8     5    11   ar
     9     6    12   ar
    10     7    13   ar
    11     8    14   ar
    12     9    15   ar
    13    10    16   ar
    14    11    16   ar
    15    12    17   ar
    16    13    17   ar
    17    14    18   ar
    18    15    18   ar
    19    15    19    1
    20    16    22    1
    21    17    22    1
    22    18    23    1
    23    19    24    2
    24    19    26    1
    25    20    22    1
    26    20    23   am
    27    20    25    2
    28    21    26    1
    29     1    27    1
    30     2    28    1
    31     3    29    1
    32     4    30    1
    33     5    31    1
    34     6    32    1
    35     7    33    1
    36     8    34    1
    37     9    35    1
    38    10    36    1
    39    11    37    1
    40    12    38    1
    41    13    39    1
    42    14    40    1
    43    21    41    1
    44    21    42    1
    45    21    43    1
    46    22    44    1
    47    23    45    1
