@<TRIPOS>MOLECULE
AK-968/11492126
 38 41 0 0 0
SMALL
USER_CHARGES

@<TRIPOS>ATOM
      1 C           1.6311    1.2501   -2.6264 C.ar    1  LIG1       -0.0883
      2 C           2.0652    5.0746    5.9967 C.ar    1  LIG1       -0.1033
      3 C           1.2159    5.5610   -0.5956 C.ar    1  LIG1       -0.0829
      4 C           3.4918    6.0630   -1.2322 C.ar    1  LIG1       -0.0837
      5 C           2.2003    2.0247   -1.6157 C.ar    1  LIG1       -0.0529
      6 C           0.7638    6.6298   -1.3695 C.ar    1  LIG1       -0.0459
      7 C           3.0397    7.1317   -2.0062 C.ar    1  LIG1       -0.0472
      8 C           0.3030    0.8358   -2.5235 C.ar    1  LIG1       -0.0760
      9 C           2.6432    5.0550    4.6945 C.ar    1  LIG1       -0.0852
     10 C           0.1136    1.9708   -0.3991 C.ar    1  LIG1       -0.0256
     11 C           0.9411    4.2824    6.0758 C.ar    1  LIG1       -0.0424
     12 C           2.5801    5.2777   -0.5269 C.ar    1  LIG1       -0.0744
     13 C           1.4416    2.3850   -0.5021 C.ar    1  LIG1       -0.0159
     14 C           1.6755    7.4151   -2.0748 C.ar    1  LIG1        0.0629
     15 C          -0.4556    1.1961   -1.4098 C.ar    1  LIG1       -0.0087
     16 C           1.9388    4.2483    3.8279 C.ar    1  LIG1        0.0092
     17 C           2.1969    3.9725    2.4601 C.2     1  LIG1        0.0203
     18 C           3.3680    4.5791    1.7340 C.3     1  LIG1        0.0356
     19 C           3.0640    4.1347    0.2998 C.3     1  LIG1        0.0254
     20 N           1.4732    3.1657    1.7470 N.2     1  LIG1       -0.3128
     21 N           2.0012    3.1456    0.4906 N.pl3   1  LIG1       -0.3168
     22 F           1.2413    8.4398   -2.8202 F       1  LIG1       -0.2680
     23 S           0.5865    3.5193    4.5845 S.2     1  LIG1       -0.1133
     24 CL         -2.0936    0.6836   -1.2832 Cl      1  LIG1       -0.1373
     25 H           2.2225    0.9695   -3.4929 H       1  LIG1        0.1361
     26 H           2.4536    5.6419    6.8324 H       1  LIG1        0.1168
     27 H           0.4979    4.9553   -0.0490 H       1  LIG1        0.1320
     28 H           4.5565    5.8495   -1.1849 H       1  LIG1        0.1362
     29 H           3.2356    2.3426   -1.7057 H       1  LIG1        0.1246
     30 H          -0.2981    6.8501   -1.4236 H       1  LIG1        0.1317
     31 H           3.7493    7.7436   -2.5551 H       1  LIG1        0.1331
     32 H          -0.1275    0.2325   -3.3186 H       1  LIG1        0.1224
     33 H           3.5314    5.6067    4.4131 H       1  LIG1        0.1310
     34 H          -0.4743    2.2538    0.4716 H       1  LIG1        0.1417
     35 H           0.3107    4.1161    6.9381 H       1  LIG1        0.1707
     36 H           3.4183    5.6621    1.8782 H       1  LIG1        0.1054
     37 H           4.2853    4.1141    2.1113 H       1  LIG1        0.1042
     38 H           3.9488    3.6924   -0.1722 H       1  LIG1        0.1416
@<TRIPOS>BOND
     1     1     5   ar
     2     1     8   ar
     3     2     9   ar
     4     2    11   ar
     5     3     6   ar
     6     3    12   ar
     7     4     7   ar
     8     4    12   ar
     9     5    13   ar
    10     6    14   ar
    11     7    14   ar
    12     8    15   ar
    13     9    16   ar
    14    10    13   ar
    15    10    15   ar
    16    11    23   ar
    17    12    19    1
    18    13    21    1
    19    14    22    1
    20    15    24    1
    21    16    17    1
    22    16    23   ar
    23    17    18    1
    24    17    20    2
    25    18    19    1
    26    19    21    1
    27    20    21    1
    28     1    25    1
    29     2    26    1
    30     3    27    1
    31     4    28    1
    32     5    29    1
    33     6    30    1
    34     7    31    1
    35     8    32    1
    36     9    33    1
    37    10    34    1
    38    11    35    1
    39    18    36    1
    40    18    37    1
    41    19    38    1
