@<TRIPOS>MOLECULE
AN-329/43385386
 46 48 0 0 0
SMALL
USER_CHARGES

@<TRIPOS>ATOM
      1 C           0.3822    0.6128   -1.8759 C.ar    1  LIG1       -0.1084
      2 C           2.1957    7.5579   -2.4015 C.ar    1  LIG1       -0.1065
      3 C           1.5980    4.6295    6.6259 C.ar    1  LIG1       -0.0950
      4 C           1.7141    0.9622   -2.0984 C.ar    1  LIG1       -0.1028
      5 C          -0.4038    1.3752   -1.0117 C.ar    1  LIG1       -0.1066
      6 C           3.1855    6.5818   -2.5171 C.ar    1  LIG1       -0.1053
      7 C           1.1656    7.4002   -1.4742 C.ar    1  LIG1       -0.1040
      8 C           0.5695    4.8100    5.7011 C.ar    1  LIG1       -0.0866
      9 C           2.8784    4.2912    6.1878 C.ar    1  LIG1       -0.0668
     10 C           2.2601    2.0739   -1.4568 C.ar    1  LIG1       -0.0918
     11 C           0.1421    2.4868   -0.3701 C.ar    1  LIG1       -0.0969
     12 C           3.1451    5.4481   -1.7056 C.ar    1  LIG1       -0.0991
     13 C           1.1252    6.2664   -0.6628 C.ar    1  LIG1       -0.0970
     14 C           0.8213    4.6521    4.3383 C.ar    1  LIG1       -0.0508
     15 C           3.1302    4.1333    4.8250 C.ar    1  LIG1        0.0520
     16 C           1.4741    2.8363   -0.5926 C.ar    1  LIG1       -0.0676
     17 C           2.1149    5.2903   -0.7783 C.ar    1  LIG1       -0.0735
     18 C           2.1016    4.3138    3.9002 C.ar    1  LIG1       -0.0125
     19 C           4.4791    3.7795    4.4007 C.2     1  LIG1        0.1009
     20 C           1.4160    4.3116    1.4744 C.2     1  LIG1        0.1128
     21 C           5.9001    2.0821    3.2301 C.3     1  LIG1       -0.0293
     22 C           2.0700    4.0510    0.1089 C.3     1  LIG1        0.0890
     23 N           2.3302    4.1589    2.5301 N.am    1  LIG1       -0.2952
     24 N           4.6263    2.5804    3.6966 N.am    1  LIG1       -0.3512
     25 O           5.4392    4.5156    4.6822 O.2     1  LIG1       -0.4862
     26 O           0.2314    4.6166    1.5805 O.2     1  LIG1       -0.4707
     27 H          -0.0431   -0.2521   -2.3765 H       1  LIG1        0.1139
     28 H           2.2280    8.4413   -3.0325 H       1  LIG1        0.1163
     29 H           1.4016    4.7522    7.6871 H       1  LIG1        0.1199
     30 H           2.3259    0.3693   -2.7720 H       1  LIG1        0.1144
     31 H          -1.4412    1.1041   -0.8391 H       1  LIG1        0.1141
     32 H           3.9883    6.7050   -3.2382 H       1  LIG1        0.1168
     33 H           0.3955    8.1604   -1.3832 H       1  LIG1        0.1180
     34 H          -0.4272    5.0736    6.0427 H       1  LIG1        0.1340
     35 H           3.6715    4.1535    6.9184 H       1  LIG1        0.1323
     36 H           3.2989    2.3385   -1.6361 H       1  LIG1        0.1233
     37 H          -0.4777    3.0749    0.3016 H       1  LIG1        0.1180
     38 H           3.9205    4.6927   -1.8027 H       1  LIG1        0.1169
     39 H           0.3188    6.1520    0.0567 H       1  LIG1        0.1221
     40 H           0.0111    4.7956    3.6277 H       1  LIG1        0.1414
     41 H           6.0714    2.3970    2.1974 H       1  LIG1        0.0858
     42 H           5.9169    0.9896    3.2722 H       1  LIG1        0.0967
     43 H           6.7093    2.4694    3.8550 H       1  LIG1        0.0853
     44 H           3.1188    3.8037    0.3373 H       1  LIG1        0.1455
     45 H           3.2875    3.9102    2.2595 H       1  LIG1        0.3378
     46 H           3.8164    1.9870    3.5493 H       1  LIG1        0.2969
@<TRIPOS>BOND
     1     1     4   ar
     2     1     5   ar
     3     2     6   ar
     4     2     7   ar
     5     3     8   ar
     6     3     9   ar
     7     4    10   ar
     8     5    11   ar
     9     6    12   ar
    10     7    13   ar
    11     8    14   ar
    12     9    15   ar
    13    10    16   ar
    14    11    16   ar
    15    12    17   ar
    16    13    17   ar
    17    14    18   ar
    18    15    18   ar
    19    15    19    1
    20    16    22    1
    21    17    22    1
    22    18    23    1
    23    19    24   am
    24    19    25    2
    25    20    22    1
    26    20    23   am
    27    20    26    2
    28    21    24    1
    29     1    27    1
    30     2    28    1
    31     3    29    1
    32     4    30    1
    33     5    31    1
    34     6    32    1
    35     7    33    1
    36     8    34    1
    37     9    35    1
    38    10    36    1
    39    11    37    1
    40    12    38    1
    41    13    39    1
    42    14    40    1
    43    21    41    1
    44    21    42    1
    45    21    43    1
    46    22    44    1
    47    23    45    1
    48    24    46    1
