@<TRIPOS>MOLECULE
AG-205/33146004
 41 44 0 0 0
SMALL
USER_CHARGES

@<TRIPOS>ATOM
      1 C           1.9724    7.3272   -2.9479 C.ar    1  LIG1       -0.1094
      2 C           3.2228    6.7652   -2.6911 C.ar    1  LIG1       -0.0996
      3 C           0.8990    7.0581   -2.0988 C.ar    1  LIG1       -0.1012
      4 C           3.1211    4.1882    4.7560 C.ar    1  LIG1       -0.0645
      5 C           0.7628    4.4006    4.2758 C.ar    1  LIG1       -0.0624
      6 C           2.2731    1.4003   -0.9778 C.ar    1  LIG1       -0.0840
      7 C           0.5746    3.0287   -0.4297 C.ar    1  LIG1       -0.0826
      8 C           3.4000    5.9340   -1.5849 C.ar    1  LIG1       -0.0582
      9 C           1.0760    6.2269   -0.9928 C.ar    1  LIG1       -0.0617
     10 C           2.8445    4.2085    6.1230 C.ar    1  LIG1       -0.0417
     11 C           0.4863    4.4209    5.6428 C.ar    1  LIG1       -0.0406
     12 C           1.3136    0.6138   -1.6151 C.ar    1  LIG1       -0.0479
     13 C          -0.3850    2.2423   -1.0671 C.ar    1  LIG1       -0.0463
     14 C           2.0802    4.2843    3.8324 C.ar    1  LIG1       -0.0303
     15 C           1.9036    2.6077   -0.3850 C.ar    1  LIG1       -0.0746
     16 C           2.3265    5.6648   -0.7358 C.ar    1  LIG1       -0.0274
     17 C           1.5272    4.3248    6.5665 C.ar    1  LIG1        0.0646
     18 C          -0.0155    1.0348   -1.6599 C.ar    1  LIG1        0.0621
     19 C           2.3689    4.2630    2.4071 C.2     1  LIG1        0.0096
     20 C           3.0524    3.0803    1.7778 C.3     1  LIG1        0.0300
     21 C           2.9312    3.4511    0.2973 C.3     1  LIG1        0.0222
     22 N           2.0963    5.2344    1.5940 N.2     1  LIG1       -0.3227
     23 N           2.5000    4.8486    0.3507 N.pl3   1  LIG1       -0.3231
     24 F           1.2615    4.3441    7.8792 F       1  LIG1       -0.2668
     25 F          -0.9366    0.2810   -2.2743 F       1  LIG1       -0.2687
     26 H           1.8346    7.9743   -3.8094 H       1  LIG1        0.1056
     27 H           4.0583    6.9747   -3.3522 H       1  LIG1        0.1226
     28 H          -0.0748    7.4959   -2.2991 H       1  LIG1        0.1225
     29 H           4.1512    4.0972    4.4215 H       1  LIG1        0.1441
     30 H          -0.0562    4.4755    3.5647 H       1  LIG1        0.1484
     31 H           3.3060    1.0636   -0.9474 H       1  LIG1        0.1352
     32 H           0.2775    3.9681    0.0292 H       1  LIG1        0.1320
     33 H           4.3782    5.5008   -1.3936 H       1  LIG1        0.1254
     34 H           0.2322    6.0245   -0.3378 H       1  LIG1        0.1165
     35 H           3.6547    4.1335    6.8422 H       1  LIG1        0.1349
     36 H          -0.5395    4.5118    5.9883 H       1  LIG1        0.1345
     37 H           1.6012   -0.3257   -2.0772 H       1  LIG1        0.1323
     38 H          -1.4200    2.5694   -1.1018 H       1  LIG1        0.1311
     39 H           4.0995    3.0765    2.0994 H       1  LIG1        0.1002
     40 H           2.5744    2.1372    2.0567 H       1  LIG1        0.1014
     41 H           3.8905    3.3411   -0.2193 H       1  LIG1        0.1381
@<TRIPOS>BOND
     1     1     2   ar
     2     1     3   ar
     3     2     8   ar
     4     3     9   ar
     5     4    10   ar
     6     4    14   ar
     7     5    11   ar
     8     5    14   ar
     9     6    12   ar
    10     6    15   ar
    11     7    13   ar
    12     7    15   ar
    13     8    16   ar
    14     9    16   ar
    15    10    17   ar
    16    11    17   ar
    17    12    18   ar
    18    13    18   ar
    19    14    19    1
    20    15    21    1
    21    16    23    1
    22    17    24    1
    23    18    25    1
    24    19    20    1
    25    19    22    2
    26    20    21    1
    27    21    23    1
    28    22    23    1
    29     1    26    1
    30     2    27    1
    31     3    28    1
    32     4    29    1
    33     5    30    1
    34     6    31    1
    35     7    32    1
    36     8    33    1
    37     9    34    1
    38    10    35    1
    39    11    36    1
    40    12    37    1
    41    13    38    1
    42    20    39    1
    43    20    40    1
    44    21    41    1
