@<TRIPOS>MOLECULE
AG-690/12244113
 49 53 0 0 0
SMALL
USER_CHARGES

@<TRIPOS>ATOM
      1 C           1.5419    4.3744    6.4909 C.ar    1  LIG1       -0.1029
      2 C           2.9986   -0.9041   -2.4559 C.ar    1  LIG1       -0.1009
      3 C           3.9851   -0.1365   -1.8438 C.ar    1  LIG1       -0.1017
      4 C           2.8606    4.2897    6.0442 C.ar    1  LIG1       -0.0969
      5 C           0.4965    4.4424    5.5699 C.ar    1  LIG1       -0.0980
      6 C          -0.3779    2.2916   -1.0209 C.ar    1  LIG1       -0.0954
      7 C           1.6653   -0.4960   -2.4068 C.ar    1  LIG1       -0.0898
      8 C           3.6421    1.0419   -1.1804 C.ar    1  LIG1       -0.0906
      9 C          -0.0349    1.1131   -1.6843 C.ar    1  LIG1       -0.0876
     10 C           3.1339    4.2731    4.6764 C.ar    1  LIG1       -0.0754
     11 C           0.7698    4.4258    4.2021 C.ar    1  LIG1       -0.0776
     12 C           3.1515    6.8368   -2.7750 C.ar    1  LIG1       -0.0759
     13 C           0.8214    7.0690   -2.1805 C.ar    1  LIG1       -0.0765
     14 C           0.6086    3.0591   -0.4088 C.ar    1  LIG1       -0.0888
     15 C           3.3521    6.0129   -1.6675 C.ar    1  LIG1       -0.0487
     16 C           1.0219    6.2451   -1.0729 C.ar    1  LIG1       -0.0469
     17 C           1.3020    0.6873   -1.7435 C.ar    1  LIG1       -0.0771
     18 C           2.3052    1.4678   -1.1211 C.ar    1  LIG1       -0.0723
     19 C           2.0885    4.3411    3.7554 C.ar    1  LIG1       -0.0353
     20 C           1.8863    7.3649   -3.0315 C.ar    1  LIG1       -0.0174
     21 C           1.9419    2.6512   -0.4577 C.ar    1  LIG1       -0.0655
     22 C           2.2873    5.7171   -0.8165 C.ar    1  LIG1       -0.0186
     23 C           2.3729    4.3239    2.3321 C.2     1  LIG1        0.0108
     24 C           1.6772    8.2240   -4.1861 C.2     1  LIG1        0.0733
     25 C           3.0846    3.1571    1.7007 C.3     1  LIG1        0.0327
     26 C           2.9522    3.5233    0.2212 C.3     1  LIG1        0.0273
     27 N           2.0745    5.2863    1.5149 N.2     1  LIG1       -0.3206
     28 N           2.4842    4.9079    0.2712 N.pl3   1  LIG1       -0.3176
     29 O           0.5831    8.7210   -4.4670 O.2     1  LIG1       -0.4750
     30 H           1.3293    4.3874    7.5558 H       1  LIG1        0.1209
     31 H           3.2662   -1.8214   -2.9721 H       1  LIG1        0.1178
     32 H           5.0228   -0.4549   -1.8825 H       1  LIG1        0.1193
     33 H           3.6744    4.2370    6.7613 H       1  LIG1        0.1202
     34 H          -0.5302    4.5080    5.9178 H       1  LIG1        0.1205
     35 H          -1.4158    2.6096   -0.9822 H       1  LIG1        0.1196
     36 H           0.9108   -1.1116   -2.8923 H       1  LIG1        0.1268
     37 H           4.4414    1.6140   -0.7148 H       1  LIG1        0.1203
     38 H          -0.8227    0.5290   -2.1555 H       1  LIG1        0.1286
     39 H           4.1651    4.2069    4.3392 H       1  LIG1        0.1344
     40 H          -0.0527    4.4794    3.4936 H       1  LIG1        0.1296
     41 H           3.9883    7.0608   -3.4316 H       1  LIG1        0.1450
     42 H          -0.1687    7.4751   -2.3709 H       1  LIG1        0.1426
     43 H           0.3287    3.9752    0.1050 H       1  LIG1        0.1229
     44 H           4.3422    5.6068   -1.4770 H       1  LIG1        0.1208
     45 H           0.1852    6.0209   -0.4162 H       1  LIG1        0.1300
     46 H           2.5557    8.4312   -4.8353 H       1  LIG1        0.2452
     47 H           4.1323    3.1801    2.0193 H       1  LIG1        0.1019
     48 H           2.6310    2.2030    1.9829 H       1  LIG1        0.1023
     49 H           3.9102    3.4343   -0.2995 H       1  LIG1        0.1401
@<TRIPOS>BOND
     1     1     4   ar
     2     1     5   ar
     3     2     3   ar
     4     2     7   ar
     5     3     8   ar
     6     4    10   ar
     7     5    11   ar
     8     6     9   ar
     9     6    14   ar
    10     7    17   ar
    11     8    18   ar
    12     9    17   ar
    13    10    19   ar
    14    11    19   ar
    15    12    15   ar
    16    12    20   ar
    17    13    16   ar
    18    13    20   ar
    19    14    21   ar
    20    15    22   ar
    21    16    22   ar
    22    17    18   ar
    23    18    21   ar
    24    19    23    1
    25    20    24    1
    26    21    26    1
    27    22    28    1
    28    23    25    1
    29    23    27    2
    30    24    29    2
    31    25    26    1
    32    26    28    1
    33    27    28    1
    34     1    30    1
    35     2    31    1
    36     3    32    1
    37     4    33    1
    38     5    34    1
    39     6    35    1
    40     7    36    1
    41     8    37    1
    42     9    38    1
    43    10    39    1
    44    11    40    1
    45    12    41    1
    46    13    42    1
    47    14    43    1
    48    15    44    1
    49    16    45    1
    50    24    46    1
    51    25    47    1
    52    25    48    1
    53    26    49    1
