@<TRIPOS>MOLECULE
AO-080/43378542
 47 50 0 0 0
SMALL
USER_CHARGES

@<TRIPOS>ATOM
      1 C           0.1534    0.6294   -1.7353 C.ar    1  LIG1       -0.1051
      2 C           1.9888    7.6794   -2.0947 C.ar    1  LIG1       -0.0885
      3 C          -0.4862    1.8186   -1.3859 C.ar    1  LIG1       -0.1025
      4 C           1.5323    0.5031   -1.5656 C.ar    1  LIG1       -0.1029
      5 C           2.5006    6.6196   -2.8644 C.ar    1  LIG1       -0.0907
      6 C           1.6526    7.4893   -0.7539 C.ar    1  LIG1       -0.0651
      7 C           0.2530    2.8817   -0.8669 C.ar    1  LIG1       -0.0862
      8 C           2.2714    1.5661   -1.0467 C.ar    1  LIG1       -0.0880
      9 C           2.6832    5.3503   -2.3065 C.ar    1  LIG1       -0.0760
     10 C           1.8412    6.2261   -0.2266 C.ar    1  LIG1        0.0373
     11 C           1.6318    2.7554   -0.6973 C.ar    1  LIG1       -0.0421
     12 C           2.3439    5.1611   -0.9767 C.ar    1  LIG1       -0.0144
     13 C           1.5850    5.7595    1.1390 C.2     1  LIG1        0.1463
     14 C           2.7987    3.3117    4.7022 C.3     1  LIG1       -0.0641
     15 C           0.4052    2.6846    4.1907 C.3     1  LIG1       -0.0647
     16 C           2.8626    4.1264    3.4113 C.3     1  LIG1       -0.0459
     17 C           0.4661    3.4992    2.8995 C.3     1  LIG1       -0.0460
     18 C           1.3764    3.1895    5.2671 C.3     1  LIG1       -0.0857
     19 C           1.8933    3.5914    2.3542 C.3     1  LIG1       -0.0127
     20 C           2.4399    3.9165   -0.1306 C.3     1  LIG1        0.0664
     21 C           0.8991    4.5058    5.8868 C.3     1  LIG1       -0.0729
     22 N           1.9326    4.4105    1.1657 N.am    1  LIG1       -0.3010
     23 O           1.1576    6.4711    2.0300 O.2     1  LIG1       -0.4239
     24 O           3.8267    3.6194    0.0211 O.3     1  LIG1       -0.4413
     25 H          -0.4224   -0.1987   -2.1381 H       1  LIG1        0.1185
     26 H           1.8570    8.6569   -2.5508 H       1  LIG1        0.1284
     27 H          -1.5598    1.9168   -1.5168 H       1  LIG1        0.1178
     28 H           2.0305   -0.4231   -1.8365 H       1  LIG1        0.1189
     29 H           2.7582    6.7911   -3.9064 H       1  LIG1        0.1326
     30 H           1.2620    8.3062   -0.1582 H       1  LIG1        0.1426
     31 H          -0.2538    3.8046   -0.5976 H       1  LIG1        0.1253
     32 H           3.3452    1.4587   -0.9182 H       1  LIG1        0.1198
     33 H           3.0815    4.5393   -2.9068 H       1  LIG1        0.1298
     34 H           3.2086    2.3057    4.5113 H       1  LIG1        0.0854
     35 H           3.4625    3.7679    5.4567 H       1  LIG1        0.0197
     36 H          -0.6257    2.7018    4.5830 H       1  LIG1        0.0197
     37 H           0.6225    1.6289    3.9603 H       1  LIG1        0.0851
     38 H           2.6496    5.1755    3.6322 H       1  LIG1        0.0505
     39 H           3.8810    4.0784    3.0149 H       1  LIG1        0.0532
     40 H          -0.1670    3.0158    2.1510 H       1  LIG1        0.0508
     41 H           0.0564    4.4955    3.0776 H       1  LIG1        0.0538
     42 H           1.4016    2.4317    6.0781 H       1  LIG1        0.0345
     43 H           2.2208    2.5973    2.0403 H       1  LIG1        0.1243
     44 H           0.8595    5.2804    5.1227 H       1  LIG1        0.0255
     45 H           1.5868    4.8146    6.6723 H       1  LIG1        0.0254
     46 H          -0.0939    4.3743    6.3133 H       1  LIG1        0.0413
     47 H           4.2481    4.4157    0.3850 H       1  LIG1        0.3669
@<TRIPOS>BOND
     1     1     3   ar
     2     1     4   ar
     3     2     5   ar
     4     2     6   ar
     5     3     7   ar
     6     4     8   ar
     7     5     9   ar
     8     6    10   ar
     9     7    11   ar
    10     8    11   ar
    11     9    12   ar
    12    10    12   ar
    13    10    13    1
    14    11    20    1
    15    12    20    1
    16    13    22   am
    17    13    23    2
    18    14    16    1
    19    14    18    1
    20    15    17    1
    21    15    18    1
    22    16    19    1
    23    17    19    1
    24    18    21    1
    25    19    22    1
    26    20    22    1
    27    20    24    1
    28     1    25    1
    29     2    26    1
    30     3    27    1
    31     4    28    1
    32     5    29    1
    33     6    30    1
    34     7    31    1
    35     8    32    1
    36     9    33    1
    37    14    34    1
    38    14    35    1
    39    15    36    1
    40    15    37    1
    41    16    38    1
    42    16    39    1
    43    17    40    1
    44    17    41    1
    45    18    42    1
    46    19    43    1
    47    21    44    1
    48    21    45    1
    49    21    46    1
    50    24    47    1
