@<TRIPOS>MOLECULE
AG-205/33654005
 45 48 0 0 0
SMALL
USER_CHARGES

@<TRIPOS>ATOM
      1 C           0.8930    7.0467   -2.0058 C.ar    1  LIG1       -0.0790
      2 C           3.0787    4.1818    4.8333 C.ar    1  LIG1       -0.0641
      3 C           0.7269    4.4080    4.3281 C.ar    1  LIG1       -0.0761
      4 C           2.2726    1.3950   -0.9074 C.ar    1  LIG1       -0.0839
      5 C           0.5785    3.0340   -0.3778 C.ar    1  LIG1       -0.0832
      6 C           1.0908    6.2109   -0.9067 C.ar    1  LIG1       -0.0405
      7 C           2.7879    4.2046    6.1972 C.ar    1  LIG1       -0.0511
      8 C           0.4361    4.4309    5.6921 C.ar    1  LIG1       -0.0651
      9 C           1.3148    0.6139   -1.5540 C.ar    1  LIG1       -0.0480
     10 C          -0.3793    2.2529   -1.0244 C.ar    1  LIG1       -0.0474
     11 C           1.9538    7.3304   -2.8660 C.ar    1  LIG1       -0.0632
     12 C           2.0482    4.2834    3.8986 C.ar    1  LIG1       -0.0343
     13 C           1.9044    2.6051   -0.3192 C.ar    1  LIG1       -0.0748
     14 C           2.3494    5.6592   -0.6676 C.ar    1  LIG1        0.0126
     15 C           1.4667    4.3291    6.6267 C.ar    1  LIG1       -0.0131
     16 C          -0.0111    1.0429   -1.6125 C.ar    1  LIG1        0.0616
     17 C           3.2123    6.7787   -2.6270 C.ar    1  LIG1        0.0273
     18 C           3.4102    5.9431   -1.5278 C.ar    1  LIG1        0.0675
     19 C           2.3512    4.2594    2.4765 C.2     1  LIG1        0.0083
     20 C           3.0340    3.0721    1.8549 C.3     1  LIG1        0.0295
     21 C           2.9301    3.4426    0.3729 C.3     1  LIG1        0.0208
     22 C           2.2837    4.2436    8.8585 C.3     1  LIG1        0.0239
     23 N           2.0929    5.2319    1.6600 N.2     1  LIG1       -0.3224
     24 N           2.5069    4.8428    0.4210 N.pl3   1  LIG1       -0.3191
     25 O           1.1826    4.3517    7.9576 O.3     1  LIG1       -0.4174
     26 F          -0.9305    0.2942   -2.2358 F       1  LIG1       -0.2685
     27 CL          4.4816    7.1747   -3.7331 Cl      1  LIG1       -0.1214
     28 CL          4.9699    5.2463   -1.2133 Cl      1  LIG1       -0.1049
     29 H          -0.0870    7.4765   -2.1918 H       1  LIG1        0.1394
     30 H           4.1120    4.0839    4.5105 H       1  LIG1        0.1480
     31 H          -0.0832    4.4877    3.6077 H       1  LIG1        0.1371
     32 H           3.3031    1.0520   -0.8663 H       1  LIG1        0.1337
     33 H           0.2825    3.9755    0.0775 H       1  LIG1        0.1361
     34 H           0.2555    5.9979   -0.2443 H       1  LIG1        0.1457
     35 H           3.5950    4.1251    6.9205 H       1  LIG1        0.1309
     36 H          -0.5950    4.5285    6.0206 H       1  LIG1        0.1144
     37 H           1.6013   -0.3277   -2.0126 H       1  LIG1        0.1310
     38 H          -1.4118    2.5864   -1.0697 H       1  LIG1        0.1326
     39 H           1.7806    7.9844   -3.7173 H       1  LIG1        0.1400
     40 H           4.0777    3.0621    2.1871 H       1  LIG1        0.0987
     41 H           2.5474    2.1322    2.1295 H       1  LIG1        0.0997
     42 H           3.8939    3.3265   -0.1338 H       1  LIG1        0.1372
     43 H           1.9178    4.2750    9.8877 H       1  LIG1        0.0896
     44 H           2.9812    5.0665    8.6832 H       1  LIG1        0.1218
     45 H           2.7935    3.2931    8.6843 H       1  LIG1        0.0896
@<TRIPOS>BOND
     1     1     6   ar
     2     1    11   ar
     3     2     7   ar
     4     2    12   ar
     5     3     8   ar
     6     3    12   ar
     7     4     9   ar
     8     4    13   ar
     9     5    10   ar
    10     5    13   ar
    11     6    14   ar
    12     7    15   ar
    13     8    15   ar
    14     9    16   ar
    15    10    16   ar
    16    11    17   ar
    17    12    19    1
    18    13    21    1
    19    14    18   ar
    20    14    24    1
    21    15    25    1
    22    16    26    1
    23    17    18   ar
    24    17    27    1
    25    18    28    1
    26    19    20    1
    27    19    23    2
    28    20    21    1
    29    21    24    1
    30    22    25    1
    31    23    24    1
    32     1    29    1
    33     2    30    1
    34     3    31    1
    35     4    32    1
    36     5    33    1
    37     6    34    1
    38     7    35    1
    39     8    36    1
    40     9    37    1
    41    10    38    1
    42    11    39    1
    43    20    40    1
    44    20    41    1
    45    21    42    1
    46    22    43    1
    47    22    44    1
    48    22    45    1
