@<TRIPOS>MOLECULE
AN-056/25013022
 47 49 0 0 0
SMALL
USER_CHARGES

@<TRIPOS>ATOM
      1 C           1.5116    4.2211    6.7942 C.ar    1  LIG1       -0.1058
      2 C           0.1686    0.5364   -1.9386 C.ar    1  LIG1       -0.1008
      3 C           2.0670    7.6486   -2.5420 C.ar    1  LIG1       -0.1029
      4 C           0.9737    5.3139    6.1145 C.ar    1  LIG1       -0.1078
      5 C           2.3880    3.3553    6.1399 C.ar    1  LIG1       -0.1026
      6 C           1.2306    1.1513   -2.6016 C.ar    1  LIG1       -0.1073
      7 C          -0.1933    0.9586   -0.6594 C.ar    1  LIG1       -0.1020
      8 C           1.0465    6.6980   -2.5220 C.ar    1  LIG1       -0.1116
      9 C           3.2080    7.4634   -1.7613 C.ar    1  LIG1       -0.1028
     10 C           1.3123    5.5411    4.7805 C.ar    1  LIG1       -0.1105
     11 C           2.7266    3.5824    4.8059 C.ar    1  LIG1       -0.1034
     12 C           1.9310    2.1883   -1.9852 C.ar    1  LIG1       -0.0871
     13 C           0.5069    1.9955   -0.0431 C.ar    1  LIG1       -0.0760
     14 C           1.1668    5.5623   -1.7210 C.ar    1  LIG1       -0.0930
     15 C           3.3284    6.3278   -0.9604 C.ar    1  LIG1       -0.0780
     16 C           2.1887    4.6753    4.1262 C.ar    1  LIG1       -0.1200
     17 C           1.5692    2.6104   -0.7060 C.ar    1  LIG1        0.0916
     18 C           2.3078    5.3772   -0.9403 C.ar    1  LIG1        0.0865
     19 C           0.3152    4.9739    1.4951 C.2     1  LIG1        0.1802
     20 C          -0.6197    7.0288    0.7919 C.3     1  LIG1        0.0367
     21 C           2.5554    4.9203    2.6821 C.3     1  LIG1        0.0234
     22 C           1.6267    4.2364    1.6700 C.3     1  LIG1        0.2112
     23 O          -0.7817    4.4899    1.7423 O.2     1  LIG1       -0.4661
     24 O           3.8954    3.5942    0.4132 O.2     1  LIG1       -0.3740
     25 O           0.5465    6.2302    1.0154 O.3     1  LIG1       -0.3660
     26 P           2.4611    3.9315    0.0791 P.3     1  LIG1        0.0860
     27 H           1.2489    4.0452    7.8332 H       1  LIG1        0.1137
     28 H          -0.3766   -0.2710   -2.4187 H       1  LIG1        0.1236
     29 H           1.9732    8.5328   -3.1656 H       1  LIG1        0.1268
     30 H           0.2921    5.9887    6.6240 H       1  LIG1        0.1117
     31 H           2.8078    2.5050    6.6691 H       1  LIG1        0.1180
     32 H           1.5126    0.8225   -3.5975 H       1  LIG1        0.1131
     33 H          -1.0205    0.4800   -0.1434 H       1  LIG1        0.1181
     34 H           0.1580    6.8423   -3.1295 H       1  LIG1        0.1148
     35 H           4.0028    8.2035   -1.7773 H       1  LIG1        0.1213
     36 H           0.8882    6.3950    4.2588 H       1  LIG1        0.1130
     37 H           3.4101    2.9025    4.3043 H       1  LIG1        0.1298
     38 H           2.7577    2.6638   -2.5052 H       1  LIG1        0.1060
     39 H           0.2212    2.3211    0.9531 H       1  LIG1        0.1390
     40 H           0.3692    4.8251   -1.7083 H       1  LIG1        0.1060
     41 H           4.2191    6.1878   -0.3545 H       1  LIG1        0.1426
     42 H          -0.3234    8.0091    0.4105 H       1  LIG1        0.0988
     43 H          -1.1701    7.1419    1.7294 H       1  LIG1        0.1318
     44 H          -1.2556    6.5311    0.0561 H       1  LIG1        0.0962
     45 H           2.5836    6.0028    2.5025 H       1  LIG1        0.0896
     46 H           3.5816    4.5672    2.5174 H       1  LIG1        0.0734
     47 H           1.3756    3.2359    2.0447 H       1  LIG1        0.1371
@<TRIPOS>BOND
     1     1     4   ar
     2     1     5   ar
     3     2     6   ar
     4     2     7   ar
     5     3     8   ar
     6     3     9   ar
     7     4    10   ar
     8     5    11   ar
     9     6    12   ar
    10     7    13   ar
    11     8    14   ar
    12     9    15   ar
    13    10    16   ar
    14    11    16   ar
    15    12    17   ar
    16    13    17   ar
    17    14    18   ar
    18    15    18   ar
    19    16    21    1
    20    17    26    1
    21    18    26    1
    22    19    22    1
    23    19    23    2
    24    19    25    1
    25    20    25    1
    26    21    22    1
    27    22    26    1
    28    24    26    2
    29     1    27    1
    30     2    28    1
    31     3    29    1
    32     4    30    1
    33     5    31    1
    34     6    32    1
    35     7    33    1
    36     8    34    1
    37     9    35    1
    38    10    36    1
    39    11    37    1
    40    12    38    1
    41    13    39    1
    42    14    40    1
    43    15    41    1
    44    20    42    1
    45    20    43    1
    46    20    44    1
    47    21    45    1
    48    21    46    1
    49    22    47    1
