@<TRIPOS>MOLECULE
AN-329/43449629
 40 42 0 0 0
SMALL
USER_CHARGES

@<TRIPOS>ATOM
      1 C           0.1308    1.1120   -2.3411 C.ar    1  LIG1       -0.1090
      2 C           1.4924    0.8249   -2.2453 C.ar    1  LIG1       -0.1053
      3 C          -0.4390    2.0760   -1.5094 C.ar    1  LIG1       -0.1090
      4 C           1.4087    6.9060   -2.0116 C.ar    1  LIG1       -0.1143
      5 C           2.7982    6.6773   -2.1666 C.ar    1  LIG1       -0.1141
      6 C           2.2843    1.5018   -1.3177 C.ar    1  LIG1       -0.1019
      7 C           0.3529    2.7530   -0.5819 C.ar    1  LIG1       -0.1066
      8 C           0.9933    6.1857   -0.9135 C.ar    1  LIG1       -0.0807
      9 C           3.1896    5.8240   -1.1587 C.ar    1  LIG1       -0.0802
     10 C           1.7145    2.4659   -0.4861 C.ar    1  LIG1       -0.1031
     11 C           2.8959    5.2228    1.9181 C.2     1  LIG1        0.1219
     12 C           2.1807    5.1965    5.5249 C.3     1  LIG1       -0.0417
     13 C           1.4419    3.9426    5.0746 C.3     1  LIG1       -0.0407
     14 C           3.1512    5.4461    4.3809 C.3     1  LIG1       -0.0263
     15 C           1.2924    4.1545    3.5747 C.3     1  LIG1       -0.0249
     16 C           2.5712    3.1990    0.5186 C.3     1  LIG1        0.0142
     17 C           2.0699    4.6239    0.8080 C.3     1  LIG1        0.1030
     18 N           2.0842    5.5316   -0.4033 N.ar    1  LIG1       -0.3684
     19 N           2.4597    4.9472    3.2012 N.am    1  LIG1       -0.3591
     20 O           3.8903    5.9024    1.6591 O.2     1  LIG1       -0.4728
     21 H          -0.4853    0.5857   -3.0643 H       1  LIG1        0.1132
     22 H           1.9364    0.0750   -2.8935 H       1  LIG1        0.1148
     23 H          -1.4989    2.3007   -1.5846 H       1  LIG1        0.1133
     24 H           0.7784    7.5270   -2.6326 H       1  LIG1        0.1055
     25 H           3.4439    7.0892   -2.9295 H       1  LIG1        0.1058
     26 H           3.3443    1.2714   -1.2500 H       1  LIG1        0.1196
     27 H          -0.0996    3.5024    0.0619 H       1  LIG1        0.1140
     28 H           0.0175    6.0854   -0.4574 H       1  LIG1        0.1645
     29 H           4.1573    5.4043   -0.9189 H       1  LIG1        0.1665
     30 H           1.4748    6.0319    5.6073 H       1  LIG1        0.0588
     31 H           2.6843    5.0755    6.4876 H       1  LIG1        0.0642
     32 H           2.0605    3.0581    5.2693 H       1  LIG1        0.0657
     33 H           0.4809    3.8069    5.5786 H       1  LIG1        0.0587
     34 H           3.4145    6.5013    4.2619 H       1  LIG1        0.1026
     35 H           4.0714    4.8632    4.4989 H       1  LIG1        0.0902
     36 H           1.2587    3.2145    3.0173 H       1  LIG1        0.0964
     37 H           0.3988    4.7435    3.3411 H       1  LIG1        0.1028
     38 H           2.5850    2.6126    1.4479 H       1  LIG1        0.0886
     39 H           3.6152    3.2099    0.1780 H       1  LIG1        0.0961
     40 H           1.0504    4.5745    1.2094 H       1  LIG1        0.1777
@<TRIPOS>BOND
     1     1     2   ar
     2     1     3   ar
     3     2     6   ar
     4     3     7   ar
     5     4     5   ar
     6     4     8   ar
     7     5     9   ar
     8     6    10   ar
     9     7    10   ar
    10     8    18   ar
    11     9    18   ar
    12    10    16    1
    13    11    17    1
    14    11    19   am
    15    11    20    2
    16    12    13    1
    17    12    14    1
    18    13    15    1
    19    14    19    1
    20    15    19    1
    21    16    17    1
    22    17    18    1
    23     1    21    1
    24     2    22    1
    25     3    23    1
    26     4    24    1
    27     5    25    1
    28     6    26    1
    29     7    27    1
    30     8    28    1
    31     9    29    1
    32    12    30    1
    33    12    31    1
    34    13    32    1
    35    13    33    1
    36    14    34    1
    37    14    35    1
    38    15    36    1
    39    15    37    1
    40    16    38    1
    41    16    39    1
    42    17    40    1
