@<TRIPOS>MOLECULE
AG-690/33355008
 45 48 0 0 0
SMALL
USER_CHARGES

@<TRIPOS>ATOM
      1 C           0.4808    4.4316    5.6172 C.ar    1  LIG1       -0.0985
      2 C           1.5072    4.3307    6.5563 C.ar    1  LIG1       -0.1035
      3 C           0.7774    4.4066    4.2544 C.ar    1  LIG1       -0.0684
      4 C           2.2709    1.3933   -0.9781 C.ar    1  LIG1       -0.0842
      5 C           0.5832    3.0327   -0.4294 C.ar    1  LIG1       -0.0834
      6 C           2.8303    4.2049    6.1326 C.ar    1  LIG1       -0.0645
      7 C           1.3057    0.6127   -1.6144 C.ar    1  LIG1       -0.0479
      8 C          -0.3819    2.2521   -1.0656 C.ar    1  LIG1       -0.0472
      9 C           1.9463    7.3292   -2.9347 C.ar    1  LIG1       -0.0632
     10 C           3.2047    6.7738   -2.7038 C.ar    1  LIG1       -0.0521
     11 C           1.0930    6.2130   -0.9692 C.ar    1  LIG1       -0.0163
     12 C           2.1004    4.2809    3.8307 C.ar    1  LIG1        0.0082
     13 C           1.9096    2.6033   -0.3857 C.ar    1  LIG1       -0.0754
     14 C           2.3515    5.6574   -0.7384 C.ar    1  LIG1        0.0144
     15 C           3.1269    4.1799    4.7698 C.ar    1  LIG1        0.0184
     16 C          -0.0207    1.0421   -1.6581 C.ar    1  LIG1        0.0619
     17 C           0.8905    7.0489   -2.0673 C.ar    1  LIG1       -0.0006
     18 C           3.4074    5.9379   -1.6057 C.ar    1  LIG1        0.0439
     19 C           2.3880    4.2570    2.4033 C.2     1  LIG1        0.0223
     20 C           3.0632    3.0696    1.7760 C.3     1  LIG1        0.0303
     21 C           2.9431    3.4405    0.2954 C.3     1  LIG1        0.0212
     22 C           5.4080    3.9577    5.4044 C.3     1  LIG1        0.0295
     23 N           2.1207    5.2297    1.5919 N.2     1  LIG1       -0.3118
     24 N           2.5208    4.8407    0.3483 N.pl3   1  LIG1       -0.3144
     25 O           4.4255    4.0545    4.3756 O.3     1  LIG1       -0.4018
     26 F          -0.9471    0.2938   -2.2714 F       1  LIG1       -0.2684
     27 CL         -0.6620    7.7348   -2.3526 Cl      1  LIG1       -0.1335
     28 CL          4.9817    5.2721   -1.3566 Cl      1  LIG1       -0.1150
     29 H          -0.5494    4.5296    5.9474 H       1  LIG1        0.1136
     30 H           1.2757    4.3507    7.6170 H       1  LIG1        0.1262
     31 H          -0.0307    4.4856    3.5316 H       1  LIG1        0.1407
     32 H           3.3017    1.0500   -0.9485 H       1  LIG1        0.1330
     33 H           0.2924    3.9742    0.0292 H       1  LIG1        0.1360
     34 H           3.6251    4.1266    6.8694 H       1  LIG1        0.1124
     35 H           1.5869   -0.3289   -2.0762 H       1  LIG1        0.1310
     36 H          -1.4148    2.5858   -1.0996 H       1  LIG1        0.1327
     37 H           1.8030    7.9790   -3.7943 H       1  LIG1        0.1401
     38 H           4.0171    7.0026   -3.3891 H       1  LIG1        0.1474
     39 H           0.2708    5.9929   -0.2914 H       1  LIG1        0.1546
     40 H           4.1105    3.0593    2.0967 H       1  LIG1        0.0979
     41 H           2.5793    2.1297    2.0556 H       1  LIG1        0.0991
     42 H           3.9012    3.3242   -0.2220 H       1  LIG1        0.1361
     43 H           6.3994    3.8621    4.9548 H       1  LIG1        0.0888
     44 H           5.1954    3.0885    6.0319 H       1  LIG1        0.0888
     45 H           5.3733    4.8629    6.0153 H       1  LIG1        0.1220
@<TRIPOS>BOND
     1     1     2   ar
     2     1     3   ar
     3     2     6   ar
     4     3    12   ar
     5     4     7   ar
     6     4    13   ar
     7     5     8   ar
     8     5    13   ar
     9     6    15   ar
    10     7    16   ar
    11     8    16   ar
    12     9    10   ar
    13     9    17   ar
    14    10    18   ar
    15    11    14   ar
    16    11    17   ar
    17    12    15   ar
    18    12    19    1
    19    13    21    1
    20    14    18   ar
    21    14    24    1
    22    15    25    1
    23    16    26    1
    24    17    27    1
    25    18    28    1
    26    19    20    1
    27    19    23    2
    28    20    21    1
    29    21    24    1
    30    22    25    1
    31    23    24    1
    32     1    29    1
    33     2    30    1
    34     3    31    1
    35     4    32    1
    36     5    33    1
    37     6    34    1
    38     7    35    1
    39     8    36    1
    40     9    37    1
    41    10    38    1
    42    11    39    1
    43    20    40    1
    44    20    41    1
    45    21    42    1
    46    22    43    1
    47    22    44    1
    48    22    45    1
