@<TRIPOS>MOLECULE
AG-690/10493022
 42 45 0 0 0
SMALL
USER_CHARGES

@<TRIPOS>ATOM
      1 C           0.5995    1.1755   -1.7916 C.ar    1  LIG1       -0.1138
      2 C           3.1088    4.0913    4.8015 C.ar    1  LIG1       -0.0635
      3 C           0.7868    4.5887    4.3564 C.ar    1  LIG1       -0.0753
      4 C           2.9605    5.3450   -1.8905 C.ar    1  LIG1       -0.0482
      5 C           1.5132    6.7771   -0.5901 C.ar    1  LIG1       -0.0438
      6 C           2.8562    4.1392    6.1725 C.ar    1  LIG1       -0.0499
      7 C           0.5341    4.6364    5.7274 C.ar    1  LIG1       -0.0639
      8 C           2.7763    6.1680   -3.0017 C.ar    1  LIG1       -0.0763
      9 C           1.3291    7.6001   -1.7011 C.ar    1  LIG1       -0.0741
     10 C           1.8443    1.7588   -1.4168 C.ar    1  LIG1       -0.1080
     11 C          -0.4343    1.6000   -0.9863 C.ar    1  LIG1       -0.0534
     12 C           2.0741    4.3161    3.8935 C.ar    1  LIG1       -0.0328
     13 C           2.3287    5.6496   -0.6848 C.ar    1  LIG1       -0.0168
     14 C           1.5690    4.4117    6.6354 C.ar    1  LIG1       -0.0119
     15 C           1.9607    7.2955   -2.9070 C.ar    1  LIG1       -0.0454
     16 C           1.7143    2.6073   -0.3393 C.ar    1  LIG1       -0.0386
     17 C           2.3372    4.2662    2.4641 C.2     1  LIG1        0.0092
     18 C           2.8638    3.0123    1.8216 C.3     1  LIG1        0.0351
     19 C           2.7673    3.4013    0.3441 C.3     1  LIG1        0.0315
     20 C           2.4255    4.2196    8.8457 C.3     1  LIG1        0.0244
     21 N           2.1726    5.2669    1.6574 N.2     1  LIG1       -0.3217
     22 N           2.5090    4.8404    0.4072 N.pl3   1  LIG1       -0.3169
     23 O           1.3222    4.4586    7.9731 O.3     1  LIG1       -0.4165
     24 S           0.0969    2.6978    0.2159 S.2     1  LIG1       -0.1412
     25 BR          1.7129    8.4113   -4.4117 Br      1  LIG1       -0.1266
     26 H           0.4681    0.4803   -2.6106 H       1  LIG1        0.1118
     27 H           4.1158    3.8778    4.4525 H       1  LIG1        0.1492
     28 H          -0.0264    4.7650    3.6570 H       1  LIG1        0.1385
     29 H           3.5976    4.4684   -1.9751 H       1  LIG1        0.1263
     30 H           1.0157    7.0227    0.3450 H       1  LIG1        0.1371
     31 H           3.6665    3.9634    6.8749 H       1  LIG1        0.1323
     32 H          -0.4705    4.8495    6.0820 H       1  LIG1        0.1156
     33 H           3.2744    5.9155   -3.9342 H       1  LIG1        0.1406
     34 H           0.6890    8.4739   -1.6113 H       1  LIG1        0.1411
     35 H           2.7847    1.5638   -1.9166 H       1  LIG1        0.1158
     36 H          -1.4759    1.3179   -1.0462 H       1  LIG1        0.1639
     37 H           3.9062    2.8758    2.1292 H       1  LIG1        0.1032
     38 H           2.2750    2.1360    2.1078 H       1  LIG1        0.1056
     39 H           3.7239    3.2092   -0.1562 H       1  LIG1        0.1551
     40 H           2.0911    4.2865    9.8838 H       1  LIG1        0.1223
     41 H           3.2082    4.9583    8.6555 H       1  LIG1        0.0900
     42 H           2.8186    3.2180    8.6556 H       1  LIG1        0.0900
@<TRIPOS>BOND
     1     1    10   ar
     2     1    11   ar
     3     2     6   ar
     4     2    12   ar
     5     3     7   ar
     6     3    12   ar
     7     4     8   ar
     8     4    13   ar
     9     5     9   ar
    10     5    13   ar
    11     6    14   ar
    12     7    14   ar
    13     8    15   ar
    14     9    15   ar
    15    10    16   ar
    16    11    24   ar
    17    12    17    1
    18    13    22    1
    19    14    23    1
    20    15    25    1
    21    16    19    1
    22    16    24   ar
    23    17    18    1
    24    17    21    2
    25    18    19    1
    26    19    22    1
    27    20    23    1
    28    21    22    1
    29     1    26    1
    30     2    27    1
    31     3    28    1
    32     4    29    1
    33     5    30    1
    34     6    31    1
    35     7    32    1
    36     8    33    1
    37     9    34    1
    38    10    35    1
    39    11    36    1
    40    18    37    1
    41    18    38    1
    42    19    39    1
    43    20    40    1
    44    20    41    1
    45    20    42    1
