@<TRIPOS>MOLECULE
AE-848/32733003
 53 56 0 0 0
SMALL
USER_CHARGES

@<TRIPOS>ATOM
      1 C           2.0254    7.2876   -2.8902 C.ar    1  LIG1       -0.1105
      2 C           2.9643    6.2568   -2.9276 C.ar    1  LIG1       -0.1019
      3 C           1.2510    7.4847   -1.7469 C.ar    1  LIG1       -0.1006
      4 C           3.1117    4.1306    4.8157 C.ar    1  LIG1       -0.0736
      5 C           0.7577    4.3657    4.3251 C.ar    1  LIG1       -0.0664
      6 C           0.5648    2.9668   -0.3263 C.ar    1  LIG1       -0.0920
      7 C           3.1287    5.4228   -1.8216 C.ar    1  LIG1       -0.0614
      8 C           1.4155    6.6506   -0.6410 C.ar    1  LIG1       -0.0583
      9 C           2.8292    4.1522    6.1814 C.ar    1  LIG1       -0.0635
     10 C           0.4752    4.3873    5.6909 C.ar    1  LIG1       -0.0520
     11 C          -0.3988    2.1906   -0.9701 C.ar    1  LIG1       -0.0570
     12 C           2.2735    1.3895   -0.9817 C.ar    1  LIG1       -0.0518
     13 C           2.0760    4.2374    3.8874 C.ar    1  LIG1       -0.0345
     14 C           1.9010    2.5665   -0.3322 C.ar    1  LIG1       -0.0781
     15 C           2.3543    5.6197   -0.6783 C.ar    1  LIG1       -0.0270
     16 C           1.5110    4.2805    6.6190 C.ar    1  LIG1       -0.0127
     17 C          -0.0263    1.0137   -1.6195 C.ar    1  LIG1        0.0332
     18 C           1.3099    0.6132   -1.6254 C.ar    1  LIG1        0.0341
     19 C           2.3702    4.2147    2.4635 C.2     1  LIG1        0.0057
     20 C           3.0452    3.0261    1.8358 C.3     1  LIG1        0.0296
     21 C           2.9337    3.3993    0.3551 C.3     1  LIG1        0.0207
     22 C           2.3412    4.1885    8.8457 C.3     1  LIG1        0.0241
     23 C          -1.6202   -0.7448   -1.4685 C.3     1  LIG1        0.0249
     24 C           3.0706   -0.8728   -2.2150 C.3     1  LIG1        0.0247
     25 N           2.1103    5.1894    1.6501 N.2     1  LIG1       -0.3253
     26 N           2.5156    4.8009    0.4080 N.pl3   1  LIG1       -0.3235
     27 O           1.2351    4.3018    7.9517 O.3     1  LIG1       -0.4171
     28 O          -0.9770    0.2643   -2.2445 O.3     1  LIG1       -0.4085
     29 O           1.6856   -0.5345   -2.2557 O.3     1  LIG1       -0.4087
     30 H           1.8974    7.9369   -3.7516 H       1  LIG1        0.1040
     31 H           3.5671    6.1036   -3.8177 H       1  LIG1        0.1213
     32 H           0.5199    8.2875   -1.7180 H       1  LIG1        0.1213
     33 H           4.1427    4.0298    4.4865 H       1  LIG1        0.1426
     34 H          -0.0565    4.4494    3.6098 H       1  LIG1        0.1434
     35 H           0.2658    3.8831    0.1758 H       1  LIG1        0.1216
     36 H           3.8629    4.6223   -1.8609 H       1  LIG1        0.1163
     37 H           0.8064    6.8137    0.2446 H       1  LIG1        0.1244
     38 H           3.6404    4.0688    6.8996 H       1  LIG1        0.1146
     39 H          -0.5536    4.4879    6.0258 H       1  LIG1        0.1318
     40 H          -1.4378    2.5081   -0.9612 H       1  LIG1        0.1246
     41 H           3.3145    1.0754   -0.9882 H       1  LIG1        0.1274
     42 H           4.0908    3.0120    2.1617 H       1  LIG1        0.0997
     43 H           2.5571    2.0874    2.1118 H       1  LIG1        0.0996
     44 H           3.8940    3.2809   -0.1576 H       1  LIG1        0.1351
     45 H           1.9816    4.2194    9.8772 H       1  LIG1        0.0899
     46 H           3.0404    5.0093    8.6675 H       1  LIG1        0.0898
     47 H           2.8467    3.2366    8.6669 H       1  LIG1        0.1221
     48 H          -2.3548   -1.2674   -2.0861 H       1  LIG1        0.0884
     49 H          -2.1128   -0.2853   -0.6079 H       1  LIG1        0.0886
     50 H          -0.8691   -1.4569   -1.1187 H       1  LIG1        0.1225
     51 H           3.2338   -1.8090   -2.7545 H       1  LIG1        0.1222
     52 H           3.3905   -0.9785   -1.1752 H       1  LIG1        0.0881
     53 H           3.6455   -0.0752   -2.6917 H       1  LIG1        0.0883
@<TRIPOS>BOND
     1     1     2   ar
     2     1     3   ar
     3     2     7   ar
     4     3     8   ar
     5     4     9   ar
     6     4    13   ar
     7     5    10   ar
     8     5    13   ar
     9     6    11   ar
    10     6    14   ar
    11     7    15   ar
    12     8    15   ar
    13     9    16   ar
    14    10    16   ar
    15    11    17   ar
    16    12    14   ar
    17    12    18   ar
    18    13    19    1
    19    14    21    1
    20    15    26    1
    21    16    27    1
    22    17    18   ar
    23    17    28    1
    24    18    29    1
    25    19    20    1
    26    19    25    2
    27    20    21    1
    28    21    26    1
    29    22    27    1
    30    23    28    1
    31    24    29    1
    32    25    26    1
    33     1    30    1
    34     2    31    1
    35     3    32    1
    36     4    33    1
    37     5    34    1
    38     6    35    1
    39     7    36    1
    40     8    37    1
    41     9    38    1
    42    10    39    1
    43    11    40    1
    44    12    41    1
    45    20    42    1
    46    20    43    1
    47    21    44    1
    48    22    45    1
    49    22    46    1
    50    22    47    1
    51    23    48    1
    52    23    49    1
    53    23    50    1
    54    24    51    1
    55    24    52    1
    56    24    53    1
