@<TRIPOS>MOLECULE
AG-690/34682010
 44 47 0 0 0
SMALL
USER_CHARGES

@<TRIPOS>ATOM
      1 C          -0.0188    1.0397   -1.6619 C.ar    1  LIG1       -0.1058
      2 C           1.3076    0.6110   -1.6139 C.ar    1  LIG1       -0.1041
      3 C          -0.3824    2.2503   -1.0722 C.ar    1  LIG1       -0.1046
      4 C           2.9067    3.5957    4.7224 C.ar    1  LIG1       -0.0632
      5 C           0.9813    4.9939    4.3042 C.ar    1  LIG1       -0.0653
      6 C           2.2706    1.3929   -0.9759 C.ar    1  LIG1       -0.0970
      7 C           0.5805    3.0322   -0.4342 C.ar    1  LIG1       -0.0980
      8 C           1.9494    7.3299   -2.9359 C.ar    1  LIG1       -0.0605
      9 C           3.2075    6.7752   -2.7011 C.ar    1  LIG1       -0.0452
     10 C           2.6270    3.6190    6.0887 C.ar    1  LIG1       -0.0734
     11 C           0.7015    5.0172    5.6706 C.ar    1  LIG1       -0.0746
     12 C           1.0905    6.2124   -0.9736 C.ar    1  LIG1       -0.0134
     13 C           2.0839    4.2831    3.8301 C.ar    1  LIG1       -0.0290
     14 C           1.9070    2.6035   -0.3860 C.ar    1  LIG1       -0.0823
     15 C           0.8909    7.0485   -2.0721 C.ar    1  LIG1        0.0452
     16 C           2.3486    5.6577   -0.7387 C.ar    1  LIG1        0.0190
     17 C           3.4071    5.9391   -1.6025 C.ar    1  LIG1        0.0506
     18 C           1.5243    4.3298    6.5628 C.ar    1  LIG1       -0.0397
     19 C           2.3756    4.2588    2.4057 C.2     1  LIG1        0.0138
     20 C           3.0537    3.0715    1.7790 C.3     1  LIG1        0.0298
     21 C           2.9380    3.4414    0.2978 C.3     1  LIG1        0.0185
     22 C          -0.4537    7.6426   -2.3234 C.3     1  LIG1        0.3515
     23 N           2.1106    5.2310    1.5909 N.2     1  LIG1       -0.3216
     24 N           2.5149    4.8415    0.3488 N.pl3   1  LIG1       -0.3198
     25 F          -0.5018    8.4396   -3.4318 F       1  LIG1       -0.1880
     26 F          -1.4361    6.7124   -2.5112 F       1  LIG1       -0.1884
     27 F          -0.8833    8.4253   -1.2910 F       1  LIG1       -0.1885
     28 CL          4.9810    5.2739   -1.3481 Cl      1  LIG1       -0.1040
     29 BR          1.1454    4.3614    8.4140 Br      1  LIG1       -0.1109
     30 H          -0.7682    0.4314   -2.1600 H       1  LIG1        0.1172
     31 H           1.5911   -0.3311   -2.0740 H       1  LIG1        0.1177
     32 H          -1.4148    2.5849   -1.1104 H       1  LIG1        0.1164
     33 H           3.7685    3.0387    4.3638 H       1  LIG1        0.1437
     34 H           0.3335    5.5330    3.6178 H       1  LIG1        0.1394
     35 H           3.3017    1.0508   -0.9432 H       1  LIG1        0.1197
     36 H           0.2881    3.9739    0.0228 H       1  LIG1        0.1162
     37 H           1.8034    7.9799   -3.7946 H       1  LIG1        0.1539
     38 H           4.0220    7.0060   -3.3835 H       1  LIG1        0.1499
     39 H           3.2781    3.0781    6.7706 H       1  LIG1        0.1369
     40 H          -0.1616    5.5758    6.0236 H       1  LIG1        0.1373
     41 H           0.2628    5.9956   -0.3017 H       1  LIG1        0.1670
     42 H           4.1000    3.0618    2.1029 H       1  LIG1        0.0992
     43 H           2.5694    2.1314    2.0576 H       1  LIG1        0.0989
     44 H           3.8978    3.3254   -0.2166 H       1  LIG1        0.1355
@<TRIPOS>BOND
     1     1     2   ar
     2     1     3   ar
     3     2     6   ar
     4     3     7   ar
     5     4    10   ar
     6     4    13   ar
     7     5    11   ar
     8     5    13   ar
     9     6    14   ar
    10     7    14   ar
    11     8     9   ar
    12     8    15   ar
    13     9    17   ar
    14    10    18   ar
    15    11    18   ar
    16    12    15   ar
    17    12    16   ar
    18    13    19    1
    19    14    21    1
    20    15    22    1
    21    16    17   ar
    22    16    24    1
    23    17    28    1
    24    18    29    1
    25    19    20    1
    26    19    23    2
    27    20    21    1
    28    21    24    1
    29    22    25    1
    30    22    26    1
    31    22    27    1
    32    23    24    1
    33     1    30    1
    34     2    31    1
    35     3    32    1
    36     4    33    1
    37     5    34    1
    38     6    35    1
    39     7    36    1
    40     8    37    1
    41     9    38    1
    42    10    39    1
    43    11    40    1
    44    12    41    1
    45    20    42    1
    46    20    43    1
    47    21    44    1
