@<TRIPOS>MOLECULE
AG-690/33407030
 41 44 0 0 0
SMALL
USER_CHARGES

@<TRIPOS>ATOM
      1 C           2.8469    4.2087    6.1214 C.ar    1  LIG1       -0.0904
      2 C           1.5307    4.3249    6.5682 C.ar    1  LIG1       -0.0897
      3 C           3.1201    4.1887    4.7537 C.ar    1  LIG1       -0.0653
      4 C           2.2733    1.4008   -0.9778 C.ar    1  LIG1       -0.0846
      5 C           0.5737    3.0283   -0.4301 C.ar    1  LIG1       -0.0852
      6 C           3.0978    5.4737   -1.8810 C.ar    1  LIG1       -0.0372
      7 C           0.4876    4.4210    5.6471 C.ar    1  LIG1       -0.0401
      8 C           1.3144    0.6143   -1.6163 C.ar    1  LIG1       -0.0698
      9 C          -0.3852    2.2418   -1.0687 C.ar    1  LIG1       -0.0708
     10 C           2.9219    6.3044   -2.9876 C.ar    1  LIG1       -0.0547
     11 C           1.3768    6.6870   -0.6965 C.ar    1  LIG1       -0.0184
     12 C           2.0770    4.2847    3.8327 C.ar    1  LIG1        0.0177
     13 C           1.9029    2.6078   -0.3847 C.ar    1  LIG1       -0.0751
     14 C           2.3252    5.6649   -0.7355 C.ar    1  LIG1       -0.0093
     15 C           0.7606    4.4009    4.2793 C.ar    1  LIG1        0.0947
     16 C          -0.0148    1.0349   -1.6618 C.ar    1  LIG1       -0.0138
     17 C           1.9735    7.3265   -2.9486 C.ar    1  LIG1        0.0141
     18 C           1.2010    7.5179   -1.8031 C.ar    1  LIG1        0.0233
     19 C           2.3663    4.2635    2.4075 C.2     1  LIG1        0.0178
     20 C           3.0505    3.0807    1.7787 C.3     1  LIG1        0.0318
     21 C           2.9299    3.4513    0.2981 C.3     1  LIG1        0.0247
     22 N           2.0939    5.2347    1.5942 N.2     1  LIG1       -0.3173
     23 N           2.4984    4.8488    0.3511 N.pl3   1  LIG1       -0.3159
     24 F          -0.2504    4.4937    3.4035 F       1  LIG1       -0.2492
     25 CL         -1.1973    0.0646   -2.4498 Cl      1  LIG1       -0.1405
     26 CL          1.8027    8.3223   -4.3512 Cl      1  LIG1       -0.1366
     27 CL          0.0103    8.7666   -1.6940 Cl      1  LIG1       -0.1168
     28 H           3.6590    4.1337    6.8385 H       1  LIG1        0.1262
     29 H           1.3180    4.3407    7.6331 H       1  LIG1        0.1357
     30 H           4.1497    4.0979    4.4175 H       1  LIG1        0.1433
     31 H           3.3069    1.0662   -0.9464 H       1  LIG1        0.1287
     32 H           0.2769    3.9674    0.0294 H       1  LIG1        0.1332
     33 H           3.8397    4.6802   -1.9221 H       1  LIG1        0.1459
     34 H          -0.5373    4.5115    5.9947 H       1  LIG1        0.1338
     35 H           1.6179   -0.3235   -2.0744 H       1  LIG1        0.1338
     36 H          -1.4171    2.5821   -1.0962 H       1  LIG1        0.1354
     37 H           3.5327    6.1411   -3.8721 H       1  LIG1        0.1514
     38 H           0.7777    6.8307    0.2003 H       1  LIG1        0.1419
     39 H           4.0974    3.0772    2.1007 H       1  LIG1        0.1040
     40 H           2.5725    2.1375    2.0574 H       1  LIG1        0.1026
     41 H           3.8894    3.3417   -0.2180 H       1  LIG1        0.1409
@<TRIPOS>BOND
     1     1     2   ar
     2     1     3   ar
     3     2     7   ar
     4     3    12   ar
     5     4     8   ar
     6     4    13   ar
     7     5     9   ar
     8     5    13   ar
     9     6    10   ar
    10     6    14   ar
    11     7    15   ar
    12     8    16   ar
    13     9    16   ar
    14    10    17   ar
    15    11    14   ar
    16    11    18   ar
    17    12    15   ar
    18    12    19    1
    19    13    21    1
    20    14    23    1
    21    15    24    1
    22    16    25    1
    23    17    18   ar
    24    17    26    1
    25    18    27    1
    26    19    20    1
    27    19    22    2
    28    20    21    1
    29    21    23    1
    30    22    23    1
    31     1    28    1
    32     2    29    1
    33     3    30    1
    34     4    31    1
    35     5    32    1
    36     6    33    1
    37     7    34    1
    38     8    35    1
    39     9    36    1
    40    10    37    1
    41    11    38    1
    42    20    39    1
    43    20    40    1
    44    21    41    1
