@<TRIPOS>MOLECULE
AN-329/42260871
 50 52 0 0 0
SMALL
USER_CHARGES

@<TRIPOS>ATOM
      1 C           0.3843    0.6119   -1.8794 C.ar    1  LIG1       -0.1053
      2 C           2.1979    7.5571   -2.4032 C.ar    1  LIG1       -0.1070
      3 C           1.7169    0.9615   -2.0975 C.ar    1  LIG1       -0.1044
      4 C          -0.4049    1.3747   -1.0184 C.ar    1  LIG1       -0.1033
      5 C           3.1883    6.5813   -2.5148 C.ar    1  LIG1       -0.1021
      6 C           1.1647    7.3998   -1.4794 C.ar    1  LIG1       -0.1056
      7 C           2.2603    2.0737   -1.4548 C.ar    1  LIG1       -0.0998
      8 C           0.1386    2.4869   -0.3757 C.ar    1  LIG1       -0.0973
      9 C           3.1454    5.4480   -1.7026 C.ar    1  LIG1       -0.0925
     10 C           1.1217    6.2665   -0.6673 C.ar    1  LIG1       -0.0968
     11 C           3.1242    4.1343    4.8103 C.ar    1  LIG1       -0.0552
     12 C           0.8090    4.6550    4.3566 C.ar    1  LIG1       -0.0487
     13 C           2.8913    4.2896    6.1768 C.ar    1  LIG1        0.0006
     14 C           0.5761    4.8103    5.7231 C.ar    1  LIG1        0.0042
     15 C           1.4713    2.8365   -0.5939 C.ar    1  LIG1       -0.0743
     16 C           2.1121    5.2906   -0.7790 C.ar    1  LIG1       -0.0684
     17 C           2.0830    4.3169    3.9002 C.ar    1  LIG1       -0.0423
     18 C           1.6173    4.6276    6.6332 C.ar    1  LIG1        0.2906
     19 C           1.4057    4.3131    1.4721 C.2     1  LIG1        0.1135
     20 C          -0.9592    3.3228    8.0353 C.3     1  LIG1        0.0307
     21 C           1.0168    2.1461    8.9137 C.3     1  LIG1        0.0308
     22 C           2.0645    4.0518    0.1090 C.3     1  LIG1        0.0883
     23 N           2.3159    4.1616    2.5334 N.am    1  LIG1       -0.3038
     24 N           0.3405    3.4570    8.7410 N.3     1  LIG1       -0.1776
     25 O           0.2206    4.6179    1.5739 O.2     1  LIG1       -0.4631
     26 O           2.6018    4.6991    9.0403 O.2     1  LIG1       -0.0772
     27 O           0.5436    6.0386    8.5368 O.2     1  LIG1       -0.0772
     28 S           1.3217    4.8252    8.3681 S.O2    1  LIG1       -0.0450
     29 H          -0.0390   -0.2534   -2.3810 H       1  LIG1        0.1179
     30 H           2.2322    8.4401   -3.0347 H       1  LIG1        0.1156
     31 H           2.3312    0.3683   -2.7687 H       1  LIG1        0.1181
     32 H          -1.4427    1.1034   -0.8491 H       1  LIG1        0.1190
     33 H           3.9935    6.7042   -3.2332 H       1  LIG1        0.1157
     34 H           0.3940    8.1598   -1.3916 H       1  LIG1        0.1154
     35 H           3.2997    2.3385   -1.6307 H       1  LIG1        0.1146
     36 H          -0.4838    3.0752    0.2934 H       1  LIG1        0.1220
     37 H           3.9212    4.6927   -1.7967 H       1  LIG1        0.1212
     38 H           0.3128    6.1523    0.0495 H       1  LIG1        0.1182
     39 H           4.1210    3.8709    4.4659 H       1  LIG1        0.1311
     40 H          -0.0099    4.7997    3.6565 H       1  LIG1        0.1455
     41 H           3.7096    4.1452    6.8772 H       1  LIG1        0.1534
     42 H          -0.4203    5.0736    6.0678 H       1  LIG1        0.1534
     43 H          -1.4297    4.3033    7.9248 H       1  LIG1        0.0879
     44 H          -1.6310    2.6718    8.6011 H       1  LIG1        0.0969
     45 H          -0.8072    2.8915    7.0422 H       1  LIG1        0.0945
     46 H           1.9681    2.2800    9.4353 H       1  LIG1        0.0852
     47 H           1.2109    1.6897    7.9393 H       1  LIG1        0.1021
     48 H           0.3871    1.4700    9.4983 H       1  LIG1        0.0927
     49 H           3.1126    3.8050    0.3411 H       1  LIG1        0.1462
     50 H           3.2746    3.9126    2.2639 H       1  LIG1        0.3275
@<TRIPOS>BOND
     1     1     3   ar
     2     1     4   ar
     3     2     5   ar
     4     2     6   ar
     5     3     7   ar
     6     4     8   ar
     7     5     9   ar
     8     6    10   ar
     9     7    15   ar
    10     8    15   ar
    11     9    16   ar
    12    10    16   ar
    13    11    13   ar
    14    11    17   ar
    15    12    14   ar
    16    12    17   ar
    17    13    18   ar
    18    14    18   ar
    19    15    22    1
    20    16    22    1
    21    17    23    1
    22    18    28    1
    23    19    22    1
    24    19    23   am
    25    19    25    2
    26    20    24    1
    27    21    24    1
    28    24    28    1
    29    26    28    2
    30    27    28    2
    31     1    29    1
    32     2    30    1
    33     3    31    1
    34     4    32    1
    35     5    33    1
    36     6    34    1
    37     7    35    1
    38     8    36    1
    39     9    37    1
    40    10    38    1
    41    11    39    1
    42    12    40    1
    43    13    41    1
    44    14    42    1
    45    20    43    1
    46    20    44    1
    47    20    45    1
    48    21    46    1
    49    21    47    1
    50    21    48    1
    51    22    49    1
    52    23    50    1
