@<TRIPOS>MOLECULE
AK-968/41927203
 44 46 0 0 0
SMALL
USER_CHARGES

@<TRIPOS>ATOM
      1 C           0.3763    0.5989   -1.8883 C.ar    1  LIG1       -0.1082
      2 C           2.2048    7.5772   -2.3235 C.ar    1  LIG1       -0.1064
      3 C           1.7072    0.9512   -2.1122 C.ar    1  LIG1       -0.1068
      4 C          -0.4078    1.3538   -1.0158 C.ar    1  LIG1       -0.1022
      5 C           3.1744    6.5870   -2.4811 C.ar    1  LIG1       -0.1047
      6 C           1.1869    7.4135   -1.3839 C.ar    1  LIG1       -0.1048
      7 C           2.2541    2.0583   -1.4635 C.ar    1  LIG1       -0.0975
      8 C           0.1392    2.4609   -0.3672 C.ar    1  LIG1       -0.0916
      9 C           3.1262    5.4329   -1.6990 C.ar    1  LIG1       -0.0988
     10 C           1.1388    6.2595   -0.6018 C.ar    1  LIG1       -0.0985
     11 C           1.6162    4.6598    6.5761 C.ar    1  LIG1       -0.0727
     12 C           0.8169    4.6506    4.3078 C.ar    1  LIG1       -0.0400
     13 C           1.4702    2.8132   -0.5910 C.ar    1  LIG1       -0.0685
     14 C           2.1084    5.2692   -0.7593 C.ar    1  LIG1       -0.0750
     15 C           0.5771    4.8219    5.6666 C.ar    1  LIG1       -0.1026
     16 C           2.8667    4.3287    6.0799 C.ar    1  LIG1       -0.0468
     17 C           2.1033    4.3202    3.9130 C.ar    1  LIG1        0.0118
     18 C           1.4171    4.2722    1.4879 C.2     1  LIG1        0.1302
     19 C          -0.7888    5.1784    6.1464 C.3     1  LIG1       -0.0358
     20 C           4.0058    4.1475    7.0268 C.3     1  LIG1       -0.0052
     21 C           2.0544    3.9970    0.1032 C.3     1  LIG1        0.0890
     22 N           3.1380    4.1542    4.7670 N.ar    1  LIG1       -0.3625
     23 N           2.3371    4.1485    2.5279 N.am    1  LIG1       -0.2732
     24 O           0.2268    4.5555    1.5904 O.2     1  LIG1       -0.4382
     25 H          -0.0498   -0.2624   -2.3945 H       1  LIG1        0.1142
     26 H           2.2432    8.4763   -2.9317 H       1  LIG1        0.1166
     27 H           2.3175    0.3642   -2.7923 H       1  LIG1        0.1138
     28 H          -1.4443    1.0804   -0.8421 H       1  LIG1        0.1147
     29 H           3.9676    6.7147   -3.2119 H       1  LIG1        0.1170
     30 H           0.4325    8.1848   -1.2602 H       1  LIG1        0.1178
     31 H           3.2922    2.3253   -1.6438 H       1  LIG1        0.1176
     32 H          -0.4792    3.0431    0.3109 H       1  LIG1        0.1241
     33 H           3.8858    4.6665   -1.8287 H       1  LIG1        0.1180
     34 H           0.3420    6.1406    0.1277 H       1  LIG1        0.1208
     35 H           1.4512    4.7886    7.6413 H       1  LIG1        0.1173
     36 H           0.0163    4.7736    3.5842 H       1  LIG1        0.1240
     37 H          -0.9086    6.2681    6.1841 H       1  LIG1        0.0647
     38 H          -1.5636    4.7662    5.4867 H       1  LIG1        0.0611
     39 H          -0.9778    4.7729    7.1492 H       1  LIG1        0.0598
     40 H           4.0663    3.1028    7.3545 H       1  LIG1        0.0761
     41 H           4.9595    4.4220    6.5586 H       1  LIG1        0.0765
     42 H           3.8911    4.7848    7.9130 H       1  LIG1        0.0736
     43 H           3.1170    3.7748    0.3415 H       1  LIG1        0.1428
     44 H           3.2957    3.9153    2.2774 H       1  LIG1        0.3386
@<TRIPOS>BOND
     1     1     3   ar
     2     1     4   ar
     3     2     5   ar
     4     2     6   ar
     5     3     7   ar
     6     4     8   ar
     7     5     9   ar
     8     6    10   ar
     9     7    13   ar
    10     8    13   ar
    11     9    14   ar
    12    10    14   ar
    13    11    15   ar
    14    11    16   ar
    15    12    15   ar
    16    12    17   ar
    17    13    21    1
    18    14    21    1
    19    15    19    1
    20    16    20    1
    21    16    22   ar
    22    17    22   ar
    23    17    23    1
    24    18    21    1
    25    18    23   am
    26    18    24    2
    27     1    25    1
    28     2    26    1
    29     3    27    1
    30     4    28    1
    31     5    29    1
    32     6    30    1
    33     7    31    1
    34     8    32    1
    35     9    33    1
    36    10    34    1
    37    11    35    1
    38    12    36    1
    39    19    37    1
    40    19    38    1
    41    19    39    1
    42    20    40    1
    43    20    41    1
    44    20    42    1
    45    21    43    1
    46    23    44    1
