@<TRIPOS>MOLECULE
AG-205/07762008
 41 44 0 0 0
SMALL
USER_CHARGES

@<TRIPOS>ATOM
      1 C           2.9070    3.5960    4.7233 C.ar    1  LIG1       -0.0640
      2 C           0.9815    4.9940    4.3047 C.ar    1  LIG1       -0.0662
      3 C           2.2708    1.3938   -0.9766 C.ar    1  LIG1       -0.0852
      4 C           0.5803    3.0320   -0.4333 C.ar    1  LIG1       -0.0844
      5 C           2.6269    3.6194    6.0895 C.ar    1  LIG1       -0.0656
      6 C           0.7014    5.0173    5.6709 C.ar    1  LIG1       -0.0668
      7 C           1.3083    0.6126   -1.6159 C.ar    1  LIG1       -0.0718
      8 C          -0.3823    2.2510   -1.0727 C.ar    1  LIG1       -0.0713
      9 C           1.9490    7.3281   -2.9366 C.ar    1  LIG1       -0.0590
     10 C           3.2071    6.7733   -2.7017 C.ar    1  LIG1       -0.0490
     11 C           1.0905    6.2125   -0.9731 C.ar    1  LIG1       -0.0121
     12 C           2.0843    4.2833    3.8308 C.ar    1  LIG1       -0.0306
     13 C           1.9068    2.6035   -0.3851 C.ar    1  LIG1       -0.0741
     14 C           2.3485    5.6576   -0.7382 C.ar    1  LIG1        0.0161
     15 C           1.5241    4.3300    6.5634 C.ar    1  LIG1       -0.0144
     16 C          -0.0183    1.0412   -1.6641 C.ar    1  LIG1       -0.0155
     17 C           0.8907    7.0477   -2.0722 C.ar    1  LIG1        0.0057
     18 C           3.4068    5.9382   -1.6025 C.ar    1  LIG1        0.0443
     19 C           2.3758    4.2589    2.4064 C.2     1  LIG1        0.0125
     20 C           3.0537    3.0715    1.7796 C.3     1  LIG1        0.0298
     21 C           2.9379    3.4415    0.2985 C.3     1  LIG1        0.0208
     22 N           2.1107    5.2311    1.5916 N.2     1  LIG1       -0.3215
     23 N           2.5149    4.8415    0.3494 N.pl3   1  LIG1       -0.3194
     24 CL          1.1779    4.3575    8.2486 Cl      1  LIG1       -0.1425
     25 CL         -1.2054    0.0773   -2.4531 Cl      1  LIG1       -0.1423
     26 CL         -0.6612    7.7327   -2.3626 Cl      1  LIG1       -0.1312
     27 CL          4.9806    5.2731   -1.3483 Cl      1  LIG1       -0.1143
     28 H           3.7692    3.0396    4.3649 H       1  LIG1        0.1446
     29 H           0.3334    5.5329    3.6183 H       1  LIG1        0.1400
     30 H           3.3022    1.0529   -0.9432 H       1  LIG1        0.1284
     31 H           0.2885    3.9735    0.0249 H       1  LIG1        0.1323
     32 H           3.2761    3.0788    6.7736 H       1  LIG1        0.1353
     33 H          -0.1613    5.5755    6.0256 H       1  LIG1        0.1357
     34 H           1.6067   -0.3276   -2.0726 H       1  LIG1        0.1325
     35 H          -1.4121    2.5975   -1.1022 H       1  LIG1        0.1340
     36 H           1.8080    7.9772   -3.7970 H       1  LIG1        0.1473
     37 H           4.0213    7.0020   -3.3847 H       1  LIG1        0.1484
     38 H           0.2663    5.9924   -0.2977 H       1  LIG1        0.1584
     39 H           4.1001    3.0617    2.1035 H       1  LIG1        0.0996
     40 H           2.5695    2.1315    2.0584 H       1  LIG1        0.0987
     41 H           3.8976    3.3253   -0.2160 H       1  LIG1        0.1368
@<TRIPOS>BOND
     1     1     5   ar
     2     1    12   ar
     3     2     6   ar
     4     2    12   ar
     5     3     7   ar
     6     3    13   ar
     7     4     8   ar
     8     4    13   ar
     9     5    15   ar
    10     6    15   ar
    11     7    16   ar
    12     8    16   ar
    13     9    10   ar
    14     9    17   ar
    15    10    18   ar
    16    11    14   ar
    17    11    17   ar
    18    12    19    1
    19    13    21    1
    20    14    18   ar
    21    14    23    1
    22    15    24    1
    23    16    25    1
    24    17    26    1
    25    18    27    1
    26    19    20    1
    27    19    22    2
    28    20    21    1
    29    21    23    1
    30    22    23    1
    31     1    28    1
    32     2    29    1
    33     3    30    1
    34     4    31    1
    35     5    32    1
    36     6    33    1
    37     7    34    1
    38     8    35    1
    39     9    36    1
    40    10    37    1
    41    11    38    1
    42    20    39    1
    43    20    40    1
    44    21    41    1
