@<TRIPOS>MOLECULE
AK-823/41252352
 44 47 0 0 0
SMALL
USER_CHARGES

@<TRIPOS>ATOM
      1 C           0.3608    1.3240   -2.2582 C.ar    1  LIG1       -0.1098
      2 C           0.9872    4.3322    6.2916 C.ar    1  LIG1       -0.1095
      3 C           2.3058    6.7452   -2.6283 C.ar    1  LIG1       -0.0956
      4 C           1.1826    7.3236   -2.0140 C.ar    1  LIG1       -0.0973
      5 C          -0.5116    2.0442   -1.4422 C.ar    1  LIG1       -0.1084
      6 C           1.6709    1.0878   -1.8416 C.ar    1  LIG1       -0.1079
      7 C           1.0603    5.5357    5.5902 C.ar    1  LIG1       -0.1083
      8 C           1.6294    3.1968    5.7973 C.ar    1  LIG1       -0.1082
      9 C           3.0195    5.7313   -1.9897 C.ar    1  LIG1       -0.0807
     10 C           0.7584    6.8959   -0.7517 C.ar    1  LIG1       -0.0945
     11 C          -0.0738    2.5283   -0.2095 C.ar    1  LIG1       -0.1052
     12 C           2.1087    1.5719   -0.6089 C.ar    1  LIG1       -0.1044
     13 C           1.7755    5.6038    4.3946 C.ar    1  LIG1       -0.1061
     14 C           2.3446    3.2650    4.6018 C.ar    1  LIG1       -0.1061
     15 C           2.5757    5.3298   -0.7430 C.ar    1  LIG1       -0.0081
     16 C           1.4690    5.8886   -0.1183 C.ar    1  LIG1       -0.0899
     17 C           1.2363    2.2923    0.2072 C.ar    1  LIG1       -0.1103
     18 C           2.4176    4.4683    3.9003 C.ar    1  LIG1       -0.1120
     19 C           3.1291    4.3058    0.1291 C.2     1  LIG1        0.0852
     20 C           1.1869    5.2881    1.2235 C.3     1  LIG1       -0.0118
     21 C           2.3011    4.2184    1.4083 C.3     1  LIG1        0.0415
     22 C           1.7088    2.8138    1.5352 C.3     1  LIG1       -0.0182
     23 C           3.1882    4.5410    2.6120 C.3     1  LIG1       -0.0181
     24 O           4.1084    3.6376   -0.1522 O.2     1  LIG1       -0.4493
     25 H           0.0194    0.9459   -3.2175 H       1  LIG1        0.1123
     26 H           0.4314    4.2798    7.2232 H       1  LIG1        0.1123
     27 H           2.6191    7.0924   -3.6092 H       1  LIG1        0.1196
     28 H           0.6389    8.1129   -2.5265 H       1  LIG1        0.1295
     29 H          -1.5320    2.2271   -1.7660 H       1  LIG1        0.1140
     30 H           2.3499    0.5262   -2.4762 H       1  LIG1        0.1144
     31 H           0.5613    6.4201    5.9755 H       1  LIG1        0.1136
     32 H           1.5736    2.2600    6.3437 H       1  LIG1        0.1135
     33 H           3.8865    5.2818   -2.4600 H       1  LIG1        0.1336
     34 H          -0.1096    7.3480   -0.2831 H       1  LIG1        0.1214
     35 H          -0.7604    3.0887    0.4197 H       1  LIG1        0.1154
     36 H           3.1311    1.3833   -0.2926 H       1  LIG1        0.1169
     37 H           1.8269    6.5457    3.8548 H       1  LIG1        0.1160
     38 H           2.8416    2.3752    4.2242 H       1  LIG1        0.1154
     39 H           1.2306    6.0623    1.9973 H       1  LIG1        0.0843
     40 H           0.1864    4.8410    1.2312 H       1  LIG1        0.0854
     41 H           0.8786    2.8345    2.2474 H       1  LIG1        0.0793
     42 H           2.4610    2.1407    1.9569 H       1  LIG1        0.0755
     43 H           3.6180    5.5391    2.4873 H       1  LIG1        0.0832
     44 H           4.0301    3.8430    2.6382 H       1  LIG1        0.0775
@<TRIPOS>BOND
     1     1     5   ar
     2     1     6   ar
     3     2     7   ar
     4     2     8   ar
     5     3     4   ar
     6     3     9   ar
     7     4    10   ar
     8     5    11   ar
     9     6    12   ar
    10     7    13   ar
    11     8    14   ar
    12     9    15   ar
    13    10    16   ar
    14    11    17   ar
    15    12    17   ar
    16    13    18   ar
    17    14    18   ar
    18    15    16   ar
    19    15    19    1
    20    16    20    1
    21    17    22    1
    22    18    23    1
    23    19    21    1
    24    19    24    2
    25    20    21    1
    26    21    22    1
    27    21    23    1
    28     1    25    1
    29     2    26    1
    30     3    27    1
    31     4    28    1
    32     5    29    1
    33     6    30    1
    34     7    31    1
    35     8    32    1
    36     9    33    1
    37    10    34    1
    38    11    35    1
    39    12    36    1
    40    13    37    1
    41    14    38    1
    42    20    39    1
    43    20    40    1
    44    22    41    1
    45    22    42    1
    46    23    43    1
    47    23    44    1
