@<TRIPOS>MOLECULE
AK-968/11493810
 42 45 0 0 0
SMALL
USER_CHARGES

@<TRIPOS>ATOM
      1 C           1.2078    7.1682   -1.3302 C.ar    1  LIG1       -0.1029
      2 C           1.9527    7.3540   -2.4948 C.ar    1  LIG1       -0.1039
      3 C           1.2639    0.9850   -2.2505 C.ar    1  LIG1       -0.1052
      4 C           1.5644    6.1674   -0.4263 C.ar    1  LIG1       -0.0901
      5 C           3.1021    4.3498    4.5688 C.ar    1  LIG1       -0.0505
      6 C           0.7043    4.5852    4.3893 C.ar    1  LIG1       -0.0458
      7 C           3.0543    6.5389   -2.7555 C.ar    1  LIG1       -0.0695
      8 C           3.0045    4.4149    5.9587 C.ar    1  LIG1       -0.0689
      9 C           0.6067    4.6503    5.7791 C.ar    1  LIG1       -0.0666
     10 C           2.0975    1.8265   -1.4586 C.ar    1  LIG1       -0.0845
     11 C          -0.0427    0.9926   -1.8144 C.ar    1  LIG1       -0.0424
     12 C           2.6658    5.3523   -0.6871 C.ar    1  LIG1       -0.0430
     13 C           1.9521    4.4350    3.7840 C.ar    1  LIG1       -0.0228
     14 C           3.4108    5.5379   -1.8516 C.ar    1  LIG1       -0.0076
     15 C           1.7567    4.5652    6.5639 C.ar    1  LIG1       -0.0202
     16 C           1.3959    2.4456   -0.4472 C.ar    1  LIG1        0.0166
     17 C           1.8691    3.3504    0.5410 C.2     1  LIG1        0.0317
     18 C           3.2246    4.8473    1.7032 C.3     1  LIG1        0.0175
     19 C           3.0325    4.2860    0.2913 C.3     1  LIG1        0.0497
     20 C           5.1933    5.0092   -3.3346 C.3     1  LIG1        0.0247
     21 N           1.3398    3.4439    1.7229 N.2     1  LIG1       -0.3113
     22 N           2.0493    4.3727    2.4151 N.pl3   1  LIG1       -0.3249
     23 O           4.4890    4.7500   -2.1218 O.3     1  LIG1       -0.4146
     24 S          -0.2605    2.0114   -0.4554 S.2     1  LIG1       -0.1078
     25 CL          1.6367    4.6455    8.2786 Cl      1  LIG1       -0.1572
     26 H           0.3496    7.8024   -1.1270 H       1  LIG1        0.1120
     27 H           1.6743    8.1327   -3.1986 H       1  LIG1        0.1256
     28 H           1.6057    0.4027   -3.0962 H       1  LIG1        0.1149
     29 H           0.9765    6.0297    0.4774 H       1  LIG1        0.1269
     30 H           4.0792    4.2337    4.1071 H       1  LIG1        0.1270
     31 H          -0.1981    4.6541    3.7870 H       1  LIG1        0.1373
     32 H           3.6307    6.6883   -3.6644 H       1  LIG1        0.1134
     33 H           3.9095    4.3490    6.5572 H       1  LIG1        0.1406
     34 H          -0.3724    4.7693    6.2364 H       1  LIG1        0.1400
     35 H           3.1578    1.9673   -1.6269 H       1  LIG1        0.1294
     36 H          -0.8794    0.4478   -2.2285 H       1  LIG1        0.1669
     37 H           4.1309    4.4190    2.1495 H       1  LIG1        0.1172
     38 H           3.3042    5.9398    1.7381 H       1  LIG1        0.1165
     39 H           3.9124    3.7433   -0.0624 H       1  LIG1        0.1295
     40 H           6.0290    4.3114   -3.4276 H       1  LIG1        0.0901
     41 H           5.5622    6.0379   -3.3300 H       1  LIG1        0.0892
     42 H           4.5118    4.8723   -4.1775 H       1  LIG1        0.1224
@<TRIPOS>BOND
     1     1     2   ar
     2     1     4   ar
     3     2     7   ar
     4     3    10   ar
     5     3    11   ar
     6     4    12   ar
     7     5     8   ar
     8     5    13   ar
     9     6     9   ar
    10     6    13   ar
    11     7    14   ar
    12     8    15   ar
    13     9    15   ar
    14    10    16   ar
    15    11    24   ar
    16    12    14   ar
    17    12    19    1
    18    13    22    1
    19    14    23    1
    20    15    25    1
    21    16    17    1
    22    16    24   ar
    23    17    19    1
    24    17    21    2
    25    18    19    1
    26    18    22    1
    27    20    23    1
    28    21    22    1
    29     1    26    1
    30     2    27    1
    31     3    28    1
    32     4    29    1
    33     5    30    1
    34     6    31    1
    35     7    32    1
    36     8    33    1
    37     9    34    1
    38    10    35    1
    39    11    36    1
    40    18    37    1
    41    18    38    1
    42    19    39    1
    43    20    40    1
    44    20    41    1
    45    20    42    1
