@<TRIPOS>MOLECULE
AB-131/42301236
 46 49 0 0 0
SMALL
USER_CHARGES

@<TRIPOS>ATOM
      1 C           2.0858    4.9689    6.5336 C.ar    1  LIG1       -0.0969
      2 C           2.1354    7.4934   -2.1605 C.ar    1  LIG1       -0.1025
      3 C           3.1592    4.2215    6.0488 C.ar    1  LIG1       -0.0916
      4 C           1.0755    5.3826    5.6653 C.ar    1  LIG1       -0.0904
      5 C           0.9121    6.8293   -2.0712 C.ar    1  LIG1       -0.0984
      6 C           3.2735    6.9407   -1.5732 C.ar    1  LIG1       -0.0995
      7 C           3.2222    3.8879    4.6959 C.ar    1  LIG1       -0.0696
      8 C           1.1386    5.0491    4.3125 C.ar    1  LIG1       -0.0671
      9 C           0.8267    5.6127   -1.3945 C.ar    1  LIG1       -0.0841
     10 C           3.1882    5.7240   -0.8964 C.ar    1  LIG1       -0.0863
     11 C           2.3147    1.8390   -1.7067 C.ar    1  LIG1       -0.0832
     12 C           1.8763    0.8162   -2.5477 C.ar    1  LIG1       -0.0535
     13 C           0.0256    2.3287   -1.1091 C.ar    1  LIG1       -0.0384
     14 C           2.2120    4.3017    3.8277 C.ar    1  LIG1       -0.0142
     15 C           1.9648    5.0599   -0.8071 C.ar    1  LIG1       -0.0401
     16 C           1.3893    2.5953   -0.9874 C.ar    1  LIG1       -0.0379
     17 C           0.5127    0.5496   -2.6694 C.ar    1  LIG1        0.0367
     18 C          -0.4128    1.3058   -1.9501 C.ar    1  LIG1        0.0405
     19 C           2.2791    3.9473    2.3900 C.2     1  LIG1        0.0674
     20 C           1.8714    3.7184   -0.0605 C.3     1  LIG1        0.1314
     21 C           1.1076   -1.1767   -4.1931 C.3     1  LIG1        0.0260
     22 C          -2.6266    1.8737   -1.2925 C.3     1  LIG1        0.0256
     23 N           3.4017    3.7869    1.7639 N.2     1  LIG1       -0.2439
     24 O           3.2092    3.4233    0.4055 O.2     1  LIG1       -0.3068
     25 O           0.0974   -0.4521   -3.4943 O.3     1  LIG1       -0.4064
     26 O          -1.7471    1.0553   -2.0614 O.3     1  LIG1       -0.4070
     27 S           0.8344    3.7461    1.4467 S.3     1  LIG1       -0.0911
     28 H           2.0368    5.2285    7.5870 H       1  LIG1        0.1289
     29 H           2.2019    8.4401   -2.6887 H       1  LIG1        0.1215
     30 H           3.9458    3.8996    6.7249 H       1  LIG1        0.1269
     31 H           0.2396    5.9643    6.0429 H       1  LIG1        0.1268
     32 H           0.0260    7.2590   -2.5294 H       1  LIG1        0.1214
     33 H           4.2263    7.4570   -1.6435 H       1  LIG1        0.1215
     34 H           4.0632    3.3051    4.3288 H       1  LIG1        0.1358
     35 H           0.3458    5.3770    3.6451 H       1  LIG1        0.1417
     36 H          -0.1307    5.1024   -1.3298 H       1  LIG1        0.1302
     37 H           4.0801    5.3011   -0.4418 H       1  LIG1        0.1250
     38 H           3.3791    2.0386   -1.6169 H       1  LIG1        0.1288
     39 H           2.6026    0.2313   -3.1055 H       1  LIG1        0.1298
     40 H          -0.6978    2.9163   -0.5489 H       1  LIG1        0.1395
     41 H           0.6419   -1.9454   -4.8146 H       1  LIG1        0.1230
     42 H           1.7897   -1.6380   -3.4744 H       1  LIG1        0.0894
     43 H           1.6652   -0.4853   -4.8294 H       1  LIG1        0.0894
     44 H          -3.6603    1.5690   -1.4733 H       1  LIG1        0.0890
     45 H          -2.4897    2.9210   -1.5730 H       1  LIG1        0.0894
     46 H          -2.3925    1.7488   -0.2325 H       1  LIG1        0.1231
@<TRIPOS>BOND
     1     1     3   ar
     2     1     4   ar
     3     2     5   ar
     4     2     6   ar
     5     3     7   ar
     6     4     8   ar
     7     5     9   ar
     8     6    10   ar
     9     7    14   ar
    10     8    14   ar
    11     9    15   ar
    12    10    15   ar
    13    11    12   ar
    14    11    16   ar
    15    12    17   ar
    16    13    16   ar
    17    13    18   ar
    18    14    19    1
    19    15    20    1
    20    16    20    1
    21    17    18   ar
    22    17    25    1
    23    18    26    1
    24    19    23    2
    25    19    27    1
    26    20    24    1
    27    20    27    1
    28    21    25    1
    29    22    26    1
    30    23    24    1
    31     1    28    1
    32     2    29    1
    33     3    30    1
    34     4    31    1
    35     5    32    1
    36     6    33    1
    37     7    34    1
    38     8    35    1
    39     9    36    1
    40    10    37    1
    41    11    38    1
    42    12    39    1
    43    13    40    1
    44    21    41    1
    45    21    42    1
    46    21    43    1
    47    22    44    1
    48    22    45    1
    49    22    46    1
