@<TRIPOS>MOLECULE
AN-329/40140580
 50 52 0 0 0
SMALL
USER_CHARGES

@<TRIPOS>ATOM
      1 C           0.3172    0.6919   -1.6290 C.ar    1  LIG1       -0.1052
      2 C           2.0908    7.5456   -2.6496 C.ar    1  LIG1       -0.1062
      3 C           1.6179    1.0185   -2.0125 C.ar    1  LIG1       -0.1046
      4 C          -0.3598    1.4911   -0.7079 C.ar    1  LIG1       -0.1021
      5 C           0.9832    6.7081   -2.5181 C.ar    1  LIG1       -0.1021
      6 C           3.2482    7.2922   -1.9134 C.ar    1  LIG1       -0.1043
      7 C           2.2415    2.1444   -1.4748 C.ar    1  LIG1       -0.0984
      8 C           0.2638    2.6170   -0.1702 C.ar    1  LIG1       -0.0941
      9 C           1.0328    5.6173   -1.6503 C.ar    1  LIG1       -0.0929
     10 C           3.2978    6.2012   -1.0456 C.ar    1  LIG1       -0.0956
     11 C           2.8014    4.8620    5.8963 C.ar    1  LIG1       -0.0885
     12 C           0.5796    4.0151    5.4680 C.ar    1  LIG1       -0.0878
     13 C           3.1523    4.6123    4.5696 C.ar    1  LIG1       -0.0582
     14 C           0.9305    3.7655    4.1412 C.ar    1  LIG1       -0.0572
     15 C           1.5645    2.9437   -0.5537 C.ar    1  LIG1       -0.0692
     16 C           2.1902    5.3638   -0.9140 C.ar    1  LIG1       -0.0662
     17 C           1.5149    4.5633    6.3456 C.ar    1  LIG1       -0.1073
     18 C           2.2169    4.0642    3.6921 C.ar    1  LIG1        0.0211
     19 C           1.7795    4.5147    1.4472 C.2     1  LIG1        0.1906
     20 C           1.2854    6.3445    8.1119 C.3     1  LIG1       -0.0618
     21 C           2.0470    4.0318    8.7499 C.3     1  LIG1       -0.0618
     22 C          -0.3290    4.4540    8.1520 C.3     1  LIG1       -0.0618
     23 C           2.2449    4.1729    0.0339 C.3     1  LIG1        0.1040
     24 C           1.1278    4.8389    7.8079 C.3     1  LIG1       -0.0619
     25 O           0.8909    5.3095    1.7279 O.2     1  LIG1       -0.4367
     26 O           2.5592    3.8218    2.3972 O.3     1  LIG1       -0.3048
     27 H          -0.1687   -0.1840   -2.0488 H       1  LIG1        0.1178
     28 H           2.0526    8.3943   -3.3264 H       1  LIG1        0.1169
     29 H           2.1449    0.3970   -2.7306 H       1  LIG1        0.1180
     30 H          -1.3730    1.2377   -0.4099 H       1  LIG1        0.1198
     31 H           0.0824    6.9048   -3.0921 H       1  LIG1        0.1166
     32 H           4.1112    7.9433   -2.0164 H       1  LIG1        0.1169
     33 H           3.2553    2.3911   -1.7793 H       1  LIG1        0.1139
     34 H          -0.2714    3.2338    0.5469 H       1  LIG1        0.1242
     35 H           0.1649    4.9702   -1.5542 H       1  LIG1        0.1222
     36 H           4.2037    6.0116   -0.4759 H       1  LIG1        0.1210
     37 H           3.5364    5.2892    6.5731 H       1  LIG1        0.1269
     38 H          -0.4251    3.7791    5.8093 H       1  LIG1        0.1307
     39 H           4.1560    4.8475    4.2256 H       1  LIG1        0.1268
     40 H           0.1974    3.3387    3.4627 H       1  LIG1        0.1320
     41 H           1.0150    6.5685    9.1505 H       1  LIG1        0.0384
     42 H           2.3145    6.6913    7.9674 H       1  LIG1        0.0408
     43 H           0.6407    6.9478    7.4618 H       1  LIG1        0.0383
     44 H           1.8070    4.1975    9.8058 H       1  LIG1        0.0386
     45 H           1.9544    2.9550    8.5658 H       1  LIG1        0.0395
     46 H           3.0987    4.3056    8.6048 H       1  LIG1        0.0387
     47 H          -0.5566    4.6688    9.2032 H       1  LIG1        0.0381
     48 H          -1.0491    5.0159    7.5458 H       1  LIG1        0.0407
     49 H          -0.5115    3.3844    7.9955 H       1  LIG1        0.0383
     50 H           3.3073    3.9219    0.1789 H       1  LIG1        0.1576
@<TRIPOS>BOND
     1     1     3   ar
     2     1     4   ar
     3     2     5   ar
     4     2     6   ar
     5     3     7   ar
     6     4     8   ar
     7     5     9   ar
     8     6    10   ar
     9     7    15   ar
    10     8    15   ar
    11     9    16   ar
    12    10    16   ar
    13    11    13   ar
    14    11    17   ar
    15    12    14   ar
    16    12    17   ar
    17    13    18   ar
    18    14    18   ar
    19    15    23    1
    20    16    23    1
    21    17    24    1
    22    18    26    1
    23    19    23    1
    24    19    25    2
    25    19    26    1
    26    20    24    1
    27    21    24    1
    28    22    24    1
    29     1    27    1
    30     2    28    1
    31     3    29    1
    32     4    30    1
    33     5    31    1
    34     6    32    1
    35     7    33    1
    36     8    34    1
    37     9    35    1
    38    10    36    1
    39    11    37    1
    40    12    38    1
    41    13    39    1
    42    14    40    1
    43    20    41    1
    44    20    42    1
    45    20    43    1
    46    21    44    1
    47    21    45    1
    48    21    46    1
    49    22    47    1
    50    22    48    1
    51    22    49    1
    52    23    50    1
