@<TRIPOS>MOLECULE
AK-968/13408117
 41 44 0 0 0
SMALL
USER_CHARGES

@<TRIPOS>ATOM
      1 C           2.1166    6.9799   -2.2144 C.ar    1  LIG1       -0.1134
      2 C           3.1204    4.1355    4.7983 C.ar    1  LIG1       -0.0739
      3 C           0.8351    4.7736    4.3432 C.ar    1  LIG1       -0.0764
      4 C           2.9250    4.4023    6.1534 C.ar    1  LIG1       -0.0951
      5 C           0.6396    5.0404    5.6983 C.ar    1  LIG1       -0.0965
      6 C           2.2759    1.6980   -1.3390 C.ar    1  LIG1       -0.0414
      7 C           1.6767    0.9253   -2.3337 C.ar    1  LIG1       -0.0568
      8 C           2.9302    5.9191   -1.7212 C.ar    1  LIG1       -0.1081
      9 C           0.0948    2.3805   -0.5553 C.ar    1  LIG1       -0.0136
     10 C           1.0372    7.2279   -1.3954 C.ar    1  LIG1       -0.0530
     11 C           2.0754    4.3212    3.8931 C.ar    1  LIG1       -0.0346
     12 C           1.6846    4.8548    6.6034 C.ar    1  LIG1       -0.1145
     13 C           1.4850    2.4256   -0.4497 C.ar    1  LIG1       -0.0084
     14 C           0.2866    0.8802   -2.4392 C.ar    1  LIG1        0.0140
     15 C          -0.5044    1.6078   -1.5500 C.ar    1  LIG1        0.0255
     16 C           2.4416    5.3970   -0.5437 C.ar    1  LIG1       -0.0390
     17 C           2.2778    4.0428    2.4801 C.2     1  LIG1        0.0121
     18 C           3.3239    4.7825    1.6921 C.3     1  LIG1        0.0366
     19 C           2.9981    4.2925    0.2786 C.3     1  LIG1        0.0320
     20 C           1.4759    5.1388    8.0527 C.3     1  LIG1       -0.0418
     21 N           1.6187    3.1498    1.8117 N.2     1  LIG1       -0.3199
     22 N           2.0744    3.1850    0.5277 N.pl3   1  LIG1       -0.3149
     23 S           1.0076    6.1844   -0.0379 S.2     1  LIG1       -0.1413
     24 CL         -0.3961   -0.0952   -3.6926 Cl      1  LIG1       -0.1372
     25 CL         -2.2312    1.5926   -1.6299 Cl      1  LIG1       -0.1169
     26 H           2.3129    7.5337   -3.1231 H       1  LIG1        0.1121
     27 H           4.0906    3.7834    4.4580 H       1  LIG1        0.1361
     28 H           0.0136    4.9220    3.6470 H       1  LIG1        0.1309
     29 H           3.7446    4.2545    6.8516 H       1  LIG1        0.1210
     30 H          -0.3303    5.3920    6.0402 H       1  LIG1        0.1211
     31 H           3.3601    1.7260   -1.2657 H       1  LIG1        0.1343
     32 H           2.3083    0.3645   -3.0182 H       1  LIG1        0.1511
     33 H           3.8285    5.5619   -2.2086 H       1  LIG1        0.1165
     34 H          -0.5159    2.9506    0.1416 H       1  LIG1        0.1523
     35 H           0.2643    7.9715   -1.5293 H       1  LIG1        0.1645
     36 H           3.2453    5.8640    1.8354 H       1  LIG1        0.1069
     37 H           4.3116    4.4360    2.0148 H       1  LIG1        0.1046
     38 H           3.9089    3.9245   -0.2084 H       1  LIG1        0.1568
     39 H           1.7236    6.1836    8.2765 H       1  LIG1        0.0586
     40 H           0.4345    4.9570    8.3482 H       1  LIG1        0.0547
     41 H           2.1019    4.4907    8.6797 H       1  LIG1        0.0548
@<TRIPOS>BOND
     1     1     8   ar
     2     1    10   ar
     3     2     4   ar
     4     2    11   ar
     5     3     5   ar
     6     3    11   ar
     7     4    12   ar
     8     5    12   ar
     9     6     7   ar
    10     6    13   ar
    11     7    14   ar
    12     8    16   ar
    13     9    13   ar
    14     9    15   ar
    15    10    23   ar
    16    11    17    1
    17    12    20    1
    18    13    22    1
    19    14    15   ar
    20    14    24    1
    21    15    25    1
    22    16    19    1
    23    16    23   ar
    24    17    18    1
    25    17    21    2
    26    18    19    1
    27    19    22    1
    28    21    22    1
    29     1    26    1
    30     2    27    1
    31     3    28    1
    32     4    29    1
    33     5    30    1
    34     6    31    1
    35     7    32    1
    36     8    33    1
    37     9    34    1
    38    10    35    1
    39    18    36    1
    40    18    37    1
    41    19    38    1
    42    20    39    1
    43    20    40    1
    44    20    41    1
