@<TRIPOS>MOLECULE
AN-651/14405035
 49 52 0 0 0
SMALL
USER_CHARGES

@<TRIPOS>ATOM
      1 C           1.4398    4.8604    6.5311 C.ar    1  LIG1       -0.1073
      2 C           1.5860    7.5813   -2.0142 C.ar    1  LIG1       -0.1029
      3 C           0.9511    5.6253    5.4721 C.ar    1  LIG1       -0.1031
      4 C           2.3768    3.8553    6.2913 C.ar    1  LIG1       -0.1022
      5 C           2.8143    7.0979   -2.4648 C.ar    1  LIG1       -0.1016
      6 C           0.9238    6.9370   -0.9692 C.ar    1  LIG1       -0.1004
      7 C           1.3991    5.3852    4.1732 C.ar    1  LIG1       -0.0903
      8 C           2.8250    3.6151    4.9924 C.ar    1  LIG1       -0.0896
      9 C           3.3805    5.9701   -1.8704 C.ar    1  LIG1       -0.0919
     10 C           1.4899    5.8093   -0.3749 C.ar    1  LIG1       -0.0893
     11 C           0.2729    1.9745   -0.2846 C.ar    1  LIG1       -0.0506
     12 C           2.1767    1.8924   -1.7698 C.ar    1  LIG1       -0.0644
     13 C          -0.4627    1.2037   -1.1850 C.ar    1  LIG1       -0.0453
     14 C           1.4412    1.1216   -2.6700 C.ar    1  LIG1       -0.0615
     15 C           2.3362    4.3801    3.9334 C.ar    1  LIG1       -0.0632
     16 C           2.7182    5.3258   -0.8254 C.ar    1  LIG1       -0.0455
     17 C           1.5926    2.3188   -0.5771 C.ar    1  LIG1       -0.0293
     18 C           0.1215    0.7773   -2.3777 C.ar    1  LIG1       -0.0110
     19 C           2.8096    4.1260    2.5624 C.2     1  LIG1        0.0574
     20 C           3.8814    4.7497    2.0451 C.2     1  LIG1        0.0230
     21 C           2.1274    3.0718    1.7461 C.2     1  LIG1        0.1330
     22 C           3.3346    4.0963   -0.1773 C.3     1  LIG1        0.1037
     23 C           4.7276    5.7711    2.7493 C.3     1  LIG1        0.0100
     24 C          -1.9397   -0.2904   -2.8944 C.3     1  LIG1        0.0237
     25 N           2.3616    3.1245    0.3640 N.am    1  LIG1       -0.2809
     26 O           1.4380    2.2440    2.3413 O.2     1  LIG1       -0.4580
     27 O           4.3320    4.5066    0.7714 O.2     1  LIG1       -0.3623
     28 O          -0.5962    0.0252   -3.2562 O.3     1  LIG1       -0.4176
     29 H           1.0918    5.0482    7.5426 H       1  LIG1        0.1147
     30 H           1.1460    8.4603   -2.4762 H       1  LIG1        0.1218
     31 H           0.2223    6.4088    5.6588 H       1  LIG1        0.1164
     32 H           2.7583    3.2603    7.1160 H       1  LIG1        0.1161
     33 H           3.3307    7.6001   -3.2778 H       1  LIG1        0.1182
     34 H          -0.0321    7.3139   -0.6173 H       1  LIG1        0.1203
     35 H           1.0088    5.9897    3.3579 H       1  LIG1        0.1213
     36 H           3.5556    2.8280    4.8215 H       1  LIG1        0.1192
     37 H           4.3379    5.6004   -2.2281 H       1  LIG1        0.1184
     38 H           0.9667    5.3137    0.4387 H       1  LIG1        0.1275
     39 H          -0.1924    2.3012    0.6419 H       1  LIG1        0.1453
     40 H           3.2044    2.1548   -2.0082 H       1  LIG1        0.1365
     41 H          -1.4903    0.9386   -0.9515 H       1  LIG1        0.1353
     42 H           1.9018    0.7925   -3.5976 H       1  LIG1        0.1179
     43 H           3.9036    3.5821   -0.9913 H       1  LIG1        0.2330
     44 H           5.5370    5.2698    3.2739 H       1  LIG1        0.0867
     45 H           4.1149    6.3199    3.4605 H       1  LIG1        0.0808
     46 H           5.1382    6.4649    2.0199 H       1  LIG1        0.0877
     47 H          -2.3977   -0.8938   -3.6820 H       1  LIG1        0.0893
     48 H          -2.5064    0.6333   -2.7524 H       1  LIG1        0.1221
     49 H          -1.9325   -0.8583   -1.9611 H       1  LIG1        0.0893
@<TRIPOS>BOND
     1     1     3   ar
     2     1     4   ar
     3     2     5   ar
     4     2     6   ar
     5     3     7   ar
     6     4     8   ar
     7     5     9   ar
     8     6    10   ar
     9     7    15   ar
    10     8    15   ar
    11     9    16   ar
    12    10    16   ar
    13    11    13   ar
    14    11    17   ar
    15    12    14   ar
    16    12    17   ar
    17    13    18   ar
    18    14    18   ar
    19    15    19    1
    20    16    22    1
    21    17    25    1
    22    18    28    1
    23    19    20    2
    24    19    21    1
    25    20    23    1
    26    20    27    1
    27    21    25   am
    28    21    26    2
    29    22    25    1
    30    22    27    1
    31    24    28    1
    32     1    29    1
    33     2    30    1
    34     3    31    1
    35     4    32    1
    36     5    33    1
    37     6    34    1
    38     7    35    1
    39     8    36    1
    40     9    37    1
    41    10    38    1
    42    11    39    1
    43    12    40    1
    44    13    41    1
    45    14    42    1
    46    22    43    1
    47    23    44    1
    48    23    45    1
    49    23    46    1
    50    24    47    1
    51    24    48    1
    52    24    49    1
