@<TRIPOS>MOLECULE
AN-651/14405040
 45 48 0 0 0
SMALL
USER_CHARGES

@<TRIPOS>ATOM
      1 C           1.3894    4.5014    6.5220 C.ar    1  LIG1       -0.1075
      2 C          -0.1541    0.9371   -1.5454 C.ar    1  LIG1       -0.1027
      3 C           1.8645    7.4781   -2.8950 C.ar    1  LIG1       -0.1021
      4 C           2.6869    4.8806    6.1781 C.ar    1  LIG1       -0.1046
      5 C           0.5494    3.9384    5.5611 C.ar    1  LIG1       -0.1010
      6 C           1.1332    0.6956   -2.0248 C.ar    1  LIG1       -0.1016
      7 C          -0.3738    1.9572   -0.6197 C.ar    1  LIG1       -0.1001
      8 C           1.1980    7.5556   -1.6721 C.ar    1  LIG1       -0.0922
      9 C           2.8357    6.4979   -3.0991 C.ar    1  LIG1       -0.0958
     10 C           3.1444    4.6969    4.8733 C.ar    1  LIG1       -0.0924
     11 C           1.0071    3.7547    4.2563 C.ar    1  LIG1       -0.0877
     12 C           2.2012    1.4741   -1.5785 C.ar    1  LIG1       -0.0919
     13 C           0.6941    2.7357   -0.1733 C.ar    1  LIG1       -0.0891
     14 C           1.5028    6.6529   -0.6534 C.ar    1  LIG1       -0.0621
     15 C           3.1404    5.5952   -2.0803 C.ar    1  LIG1       -0.0665
     16 C           2.3046    4.1339    3.9124 C.ar    1  LIG1       -0.0634
     17 C           1.9815    2.4942   -0.6528 C.ar    1  LIG1       -0.0455
     18 C           2.4739    5.6727   -0.8575 C.ar    1  LIG1       -0.0315
     19 C           2.7871    3.9398    2.5348 C.2     1  LIG1        0.0572
     20 C           3.3987    2.8107    2.1394 C.2     1  LIG1        0.0230
     21 C           2.6725    5.0734    1.5626 C.2     1  LIG1        0.1333
     22 C           3.1452    3.3431   -0.1656 C.3     1  LIG1        0.1043
     23 C           3.6688    1.6101    3.0003 C.3     1  LIG1        0.0101
     24 N           2.7923    4.7289    0.2079 N.am    1  LIG1       -0.2793
     25 O           2.5001    6.2032    2.0193 O.2     1  LIG1       -0.4580
     26 O           3.8589    2.6324    0.8583 O.2     1  LIG1       -0.3621
     27 H           1.0335    4.6433    7.5382 H       1  LIG1        0.1146
     28 H          -0.9857    0.3317   -1.8941 H       1  LIG1        0.1222
     29 H           1.6269    8.1803   -3.6888 H       1  LIG1        0.1196
     30 H           3.3414    5.3180    6.9264 H       1  LIG1        0.1151
     31 H          -0.4604    3.6420    5.8291 H       1  LIG1        0.1167
     32 H           1.3043   -0.0979   -2.7464 H       1  LIG1        0.1183
     33 H          -1.3761    2.1462   -0.2472 H       1  LIG1        0.1207
     34 H           0.4412    8.3181   -1.5132 H       1  LIG1        0.1230
     35 H           3.3539    6.4373   -4.0518 H       1  LIG1        0.1226
     36 H           4.1584    4.9976    4.6203 H       1  LIG1        0.1182
     37 H           0.3404    3.3144    3.5186 H       1  LIG1        0.1247
     38 H           3.2009    1.2787   -1.9573 H       1  LIG1        0.1189
     39 H           0.5135    3.5282    0.5481 H       1  LIG1        0.1280
     40 H           0.9766    6.7228    0.2954 H       1  LIG1        0.1308
     41 H           3.8991    4.8355   -2.2508 H       1  LIG1        0.1274
     42 H           3.8560    3.3997   -1.0274 H       1  LIG1        0.2334
     43 H           2.8274    0.9247    2.9382 H       1  LIG1        0.0868
     44 H           3.8071    1.9279    4.0308 H       1  LIG1        0.0811
     45 H           4.5721    1.1136    2.6542 H       1  LIG1        0.0875
@<TRIPOS>BOND
     1     1     4   ar
     2     1     5   ar
     3     2     6   ar
     4     2     7   ar
     5     3     8   ar
     6     3     9   ar
     7     4    10   ar
     8     5    11   ar
     9     6    12   ar
    10     7    13   ar
    11     8    14   ar
    12     9    15   ar
    13    10    16   ar
    14    11    16   ar
    15    12    17   ar
    16    13    17   ar
    17    14    18   ar
    18    15    18   ar
    19    16    19    1
    20    17    22    1
    21    18    24    1
    22    19    20    2
    23    19    21    1
    24    20    23    1
    25    20    26    1
    26    21    24   am
    27    21    25    2
    28    22    24    1
    29    22    26    1
    30     1    27    1
    31     2    28    1
    32     3    29    1
    33     4    30    1
    34     5    31    1
    35     6    32    1
    36     7    33    1
    37     8    34    1
    38     9    35    1
    39    10    36    1
    40    11    37    1
    41    12    38    1
    42    13    39    1
    43    14    40    1
    44    15    41    1
    45    22    42    1
    46    23    43    1
    47    23    44    1
    48    23    45    1
