@<TRIPOS>MOLECULE
AN-329/36726003
 44 46 0 0 0
SMALL
USER_CHARGES

@<TRIPOS>ATOM
      1 C           0.3765    0.5965   -1.9153 C.ar    1  LIG1       -0.1073
      2 C           2.2055    7.5755   -2.3378 C.ar    1  LIG1       -0.1053
      3 C           1.7080    0.9492   -2.1350 C.ar    1  LIG1       -0.1060
      4 C          -0.4101    1.3504   -1.0442 C.ar    1  LIG1       -0.1019
      5 C           3.1757    6.5855   -2.4936 C.ar    1  LIG1       -0.1041
      6 C           1.1851    7.4106   -1.4012 C.ar    1  LIG1       -0.1040
      7 C           2.2530    2.0557   -1.4836 C.ar    1  LIG1       -0.0975
      8 C           0.1350    2.4568   -0.3928 C.ar    1  LIG1       -0.0922
      9 C           3.1254    5.4306   -1.7130 C.ar    1  LIG1       -0.0993
     10 C           1.1348    6.2558   -0.6205 C.ar    1  LIG1       -0.0986
     11 C           3.1332    4.1651    4.8055 C.ar    1  LIG1       -0.0480
     12 C           0.8110    4.6491    4.3472 C.ar    1  LIG1       -0.0546
     13 C           2.9006    4.3404    6.1695 C.ar    1  LIG1        0.0048
     14 C           0.5784    4.8245    5.7113 C.ar    1  LIG1        0.0017
     15 C           1.4665    2.8095   -0.6125 C.ar    1  LIG1       -0.0689
     16 C           2.1049    5.2657   -0.7763 C.ar    1  LIG1       -0.0753
     17 C           2.0884    4.3194    3.8943 C.ar    1  LIG1       -0.0418
     18 C           1.6232    4.6701    6.6225 C.ar    1  LIG1        0.2871
     19 C           1.4074    4.2663    1.4678 C.2     1  LIG1        0.1149
     20 C           2.0487    3.9926    0.0846 C.3     1  LIG1        0.0878
     21 N           1.6462    6.5608    8.5012 N.3     1  LIG1       -0.1587
     22 N           2.3244    4.1415    2.5103 N.am    1  LIG1       -0.3019
     23 O           0.2167    4.5493    1.5673 O.2     1  LIG1       -0.4612
     24 O          -0.0801    4.6485    8.5900 O.2     1  LIG1       -0.0822
     25 O           2.3415    4.1464    9.0707 O.2     1  LIG1       -0.0822
     26 S           1.3321    4.8900    8.3298 S.O2    1  LIG1       -0.0680
     27 H          -0.0481   -0.2643   -2.4236 H       1  LIG1        0.1156
     28 H           2.2457    8.4752   -2.9448 H       1  LIG1        0.1181
     29 H           2.3203    0.3630   -2.8140 H       1  LIG1        0.1149
     30 H          -1.4471    1.0767   -0.8737 H       1  LIG1        0.1156
     31 H           3.9710    6.7140   -3.2221 H       1  LIG1        0.1182
     32 H           0.4302    8.1817   -1.2788 H       1  LIG1        0.1188
     33 H           3.2915    2.3229   -1.6607 H       1  LIG1        0.1183
     34 H          -0.4854    3.0382    0.2842 H       1  LIG1        0.1238
     35 H           3.8855    4.6644   -1.8413 H       1  LIG1        0.1177
     36 H           0.3360    6.1360    0.1066 H       1  LIG1        0.1212
     37 H           4.1328    3.9083    4.4638 H       1  LIG1        0.1475
     38 H          -0.0107    4.7717    3.6461 H       1  LIG1        0.1307
     39 H           3.7217    4.2181    6.8708 H       1  LIG1        0.1572
     40 H          -0.4207    5.0812    6.0533 H       1  LIG1        0.1572
     41 H           3.1105    3.7703    0.3257 H       1  LIG1        0.1465
     42 H           0.8485    7.1867    8.6661 H       1  LIG1        0.3179
     43 H           2.5033    6.8422    8.9927 H       1  LIG1        0.3214
     44 H           3.2824    3.9025    2.2628 H       1  LIG1        0.3293
@<TRIPOS>BOND
     1     1     3   ar
     2     1     4   ar
     3     2     5   ar
     4     2     6   ar
     5     3     7   ar
     6     4     8   ar
     7     5     9   ar
     8     6    10   ar
     9     7    15   ar
    10     8    15   ar
    11     9    16   ar
    12    10    16   ar
    13    11    13   ar
    14    11    17   ar
    15    12    14   ar
    16    12    17   ar
    17    13    18   ar
    18    14    18   ar
    19    15    20    1
    20    16    20    1
    21    17    22    1
    22    18    26    1
    23    19    20    1
    24    19    22   am
    25    19    23    2
    26    21    26    1
    27    24    26    2
    28    25    26    2
    29     1    27    1
    30     2    28    1
    31     3    29    1
    32     4    30    1
    33     5    31    1
    34     6    32    1
    35     7    33    1
    36     8    34    1
    37     9    35    1
    38    10    36    1
    39    11    37    1
    40    12    38    1
    41    13    39    1
    42    14    40    1
    43    20    41    1
    44    21    42    1
    45    21    43    1
    46    22    44    1
