@<TRIPOS>MOLECULE
AG-690/33407059
 41 44 0 0 0
SMALL
USER_CHARGES

@<TRIPOS>ATOM
      1 C           2.6545    3.6087    6.0657 C.ar    1  LIG1       -0.0905
      2 C           1.5563    4.2994    6.5781 C.ar    1  LIG1       -0.0917
      3 C           2.9014    3.6111    4.6929 C.ar    1  LIG1       -0.0673
      4 C           2.2741    1.4046   -0.9674 C.ar    1  LIG1       -0.0845
      5 C           0.5700    3.0319   -0.4339 C.ar    1  LIG1       -0.0853
      6 C           3.3987    5.9366   -1.5825 C.ar    1  LIG1       -0.0376
      7 C           0.7050    4.9926    5.7176 C.ar    1  LIG1       -0.0656
      8 C           1.3194    0.6149   -1.6082 C.ar    1  LIG1       -0.0698
      9 C          -0.3848    2.2423   -1.0748 C.ar    1  LIG1       -0.0710
     10 C           3.2277    6.7636   -2.6926 C.ar    1  LIG1       -0.0550
     11 C           1.0710    6.2295   -1.0056 C.ar    1  LIG1       -0.0180
     12 C           2.0500    4.3042    3.8324 C.ar    1  LIG1       -0.0074
     13 C           1.8994    2.6130   -0.3801 C.ar    1  LIG1       -0.0751
     14 C           2.3203    5.6694   -0.7390 C.ar    1  LIG1       -0.0087
     15 C          -0.0100    1.0338   -1.6620 C.ar    1  LIG1       -0.0140
     16 C           0.9518    4.9950    4.3447 C.ar    1  LIG1        0.0169
     17 C           1.9784    7.3237   -2.9591 C.ar    1  LIG1        0.0140
     18 C           0.9000    7.0567   -2.1156 C.ar    1  LIG1        0.0234
     19 C           2.3474    4.2784    2.4054 C.2     1  LIG1        0.0193
     20 C           3.0353    3.0944    1.7875 C.3     1  LIG1        0.0323
     21 C           2.9220    3.4599    0.3051 C.3     1  LIG1        0.0249
     22 N           2.0775    5.2467    1.5910 N.2     1  LIG1       -0.3126
     23 N           2.4888    4.8572    0.3511 N.pl3   1  LIG1       -0.3140
     24 CL         -1.1874    0.0597   -2.4527 Cl      1  LIG1       -0.1409
     25 CL         -0.1264    5.8656    3.3142 Cl      1  LIG1       -0.1157
     26 CL          1.8301    8.3402   -4.3496 Cl      1  LIG1       -0.1368
     27 CL         -0.6718    7.7209   -2.3931 Cl      1  LIG1       -0.1167
     28 H           3.3171    3.0688    6.7359 H       1  LIG1        0.1281
     29 H           1.3644    4.2975    7.6471 H       1  LIG1        0.1322
     30 H           3.7605    3.0686    4.3066 H       1  LIG1        0.1401
     31 H           3.3078    1.0711   -0.9296 H       1  LIG1        0.1291
     32 H           0.2699    3.9723    0.0209 H       1  LIG1        0.1329
     33 H           4.3766    5.5053   -1.3840 H       1  LIG1        0.1435
     34 H          -0.1463    5.5259    6.1331 H       1  LIG1        0.1350
     35 H           1.6262   -0.3241   -2.0615 H       1  LIG1        0.1335
     36 H          -1.4168    2.5815   -1.1087 H       1  LIG1        0.1351
     37 H           4.0791    6.9612   -3.3393 H       1  LIG1        0.1506
     38 H           0.2341    6.0171   -0.3436 H       1  LIG1        0.1420
     39 H           4.0806    3.0930    2.1150 H       1  LIG1        0.1032
     40 H           2.5568    2.1517    2.0668 H       1  LIG1        0.1018
     41 H           3.8843    3.3495   -0.2058 H       1  LIG1        0.1403
@<TRIPOS>BOND
     1     1     2   ar
     2     1     3   ar
     3     2     7   ar
     4     3    12   ar
     5     4     8   ar
     6     4    13   ar
     7     5     9   ar
     8     5    13   ar
     9     6    10   ar
    10     6    14   ar
    11     7    16   ar
    12     8    15   ar
    13     9    15   ar
    14    10    17   ar
    15    11    14   ar
    16    11    18   ar
    17    12    16   ar
    18    12    19    1
    19    13    21    1
    20    14    23    1
    21    15    24    1
    22    16    25    1
    23    17    18   ar
    24    17    26    1
    25    18    27    1
    26    19    20    1
    27    19    22    2
    28    20    21    1
    29    21    23    1
    30    22    23    1
    31     1    28    1
    32     2    29    1
    33     3    30    1
    34     4    31    1
    35     5    32    1
    36     6    33    1
    37     7    34    1
    38     8    35    1
    39     9    36    1
    40    10    37    1
    41    11    38    1
    42    20    39    1
    43    20    40    1
    44    21    41    1
