@<TRIPOS>MOLECULE
AD-310/37069006
 37 39 0 0 0
SMALL
USER_CHARGES

@<TRIPOS>ATOM
      1 C           0.3786    0.4482   -2.0279 C.ar    1  LIG1       -0.1070
      2 C           2.2890    7.6827   -2.0117 C.ar    1  LIG1       -0.1079
      3 C           1.7471    0.7177   -2.0326 C.ar    1  LIG1       -0.1028
      4 C          -0.4998    1.3104   -1.3716 C.ar    1  LIG1       -0.1028
      5 C           2.9805    6.5693   -2.4890 C.ar    1  LIG1       -0.1032
      6 C           1.4615    7.5639   -0.8951 C.ar    1  LIG1       -0.1043
      7 C           2.2374    1.8493   -1.3809 C.ar    1  LIG1       -0.0901
      8 C          -0.0096    2.4421   -0.7199 C.ar    1  LIG1       -0.0901
      9 C           2.8443    5.3370   -1.8498 C.ar    1  LIG1       -0.0894
     10 C           1.3253    6.3316   -0.2560 C.ar    1  LIG1       -0.0908
     11 C           0.9467    4.7424    4.0541 C.ar    1  LIG1       -0.0784
     12 C           3.2383    4.7289    4.8195 C.ar    1  LIG1       -0.0781
     13 C           0.5128    4.4541    5.3481 C.ar    1  LIG1       -0.0660
     14 C           2.8044    4.4408    6.1135 C.ar    1  LIG1       -0.0658
     15 C           1.3590    2.7116   -0.7245 C.ar    1  LIG1       -0.0746
     16 C           2.0167    5.2181   -0.7332 C.ar    1  LIG1       -0.0742
     17 C           2.3094    4.8797    3.7898 C.ar    1  LIG1       -0.0463
     18 C           1.4417    4.3034    6.3777 C.ar    1  LIG1       -0.0103
     19 C           2.2494    3.8785    1.2673 C.2     1  LIG1       -0.0433
     20 C           1.8697    3.8917   -0.0446 C.2     1  LIG1       -0.0622
     21 S           2.8647    5.2478    2.1342 S.3     1  LIG1       -0.1558
     22 CL          0.9062    3.9507    7.9746 Cl      1  LIG1       -0.1345
     23 H          -0.0033   -0.4322   -2.5364 H       1  LIG1        0.1149
     24 H           2.3960    8.6424   -2.5086 H       1  LIG1        0.1145
     25 H           2.4312    0.0471   -2.5446 H       1  LIG1        0.1167
     26 H          -1.5656    1.1014   -1.3689 H       1  LIG1        0.1159
     27 H           3.6258    6.6619   -3.3577 H       1  LIG1        0.1164
     28 H           0.9239    8.4309   -0.5227 H       1  LIG1        0.1159
     29 H           3.3068    2.0460   -1.3932 H       1  LIG1        0.1237
     30 H          -0.7070    3.1045   -0.2127 H       1  LIG1        0.1223
     31 H           3.3897    4.4781   -2.2336 H       1  LIG1        0.1226
     32 H           0.6764    6.2550    0.6134 H       1  LIG1        0.1208
     33 H           0.2079    4.8566    3.2647 H       1  LIG1        0.1448
     34 H           4.3044    4.8328    4.6331 H       1  LIG1        0.1457
     35 H          -0.5521    4.3500    5.5397 H       1  LIG1        0.1362
     36 H           3.5393    4.3260    6.9061 H       1  LIG1        0.1364
     37 H           2.1896    2.9659    1.8547 H       1  LIG1        0.1308
@<TRIPOS>BOND
     1     1     3   ar
     2     1     4   ar
     3     2     5   ar
     4     2     6   ar
     5     3     7   ar
     6     4     8   ar
     7     5     9   ar
     8     6    10   ar
     9     7    15   ar
    10     8    15   ar
    11     9    16   ar
    12    10    16   ar
    13    11    13   ar
    14    11    17   ar
    15    12    14   ar
    16    12    17   ar
    17    13    18   ar
    18    14    18   ar
    19    15    20    1
    20    16    20    1
    21    17    21    1
    22    18    22    1
    23    19    20    2
    24    19    21    1
    25     1    23    1
    26     2    24    1
    27     3    25    1
    28     4    26    1
    29     5    27    1
    30     6    28    1
    31     7    29    1
    32     8    30    1
    33     9    31    1
    34    10    32    1
    35    11    33    1
    36    12    34    1
    37    13    35    1
    38    14    36    1
    39    19    37    1
