@<TRIPOS>MOLECULE
ZINC04657414
 41 43 0 0 0
SMALL
USER_CHARGES

@<TRIPOS>ATOM
      1 C           0.9005    0.4661   -2.2578 C.ar    1  LIG1       -0.0943
      2 C           2.7303    7.3872   -2.1159 C.ar    1  LIG1       -0.0940
      3 C           2.0094    1.3121   -2.2767 C.ar    1  LIG1       -0.0932
      4 C          -0.2254    0.8086   -1.5091 C.ar    1  LIG1       -0.0993
      5 C           1.4190    7.0233   -2.4221 C.ar    1  LIG1       -0.0990
      6 C           3.4319    6.6994   -1.1258 C.ar    1  LIG1       -0.0929
      7 C           1.9924    2.5006   -1.5469 C.ar    1  LIG1       -0.0972
      8 C          -0.2425    1.9972   -0.7792 C.ar    1  LIG1       -0.1072
      9 C           0.8093    5.9716   -1.7382 C.ar    1  LIG1       -0.1067
     10 C           2.8222    5.6476   -0.4419 C.ar    1  LIG1       -0.0965
     11 C           0.5828    5.2982    4.7935 C.ar    1  LIG1       -0.0954
     12 C           2.5796    4.2204    3.9638 C.ar    1  LIG1       -0.0957
     13 C           1.0284    5.1160    6.1027 C.ar    1  LIG1       -0.0651
     14 C           3.0252    4.0382    5.2730 C.ar    1  LIG1       -0.0652
     15 C           1.3584    4.8504    3.7241 C.ar    1  LIG1       -0.1257
     16 C           0.8664    2.8432   -0.7981 C.ar    1  LIG1       -0.1183
     17 C           1.5109    5.2837   -0.7481 C.ar    1  LIG1       -0.1176
     18 C           2.2496    4.4860    6.3424 C.ar    1  LIG1       -0.0019
     19 C           0.8831    5.0465    2.3241 C.3     1  LIG1       -0.0833
     20 C           0.8473    4.1380   -0.0024 C.3     1  LIG1       -0.0787
     21 N           1.3569    3.9916    1.3859 N.4     1  LIG1        0.4312
     22 CL          2.7991    4.2615    7.9574 Cl      1  LIG1       -0.1191
     23 H           0.9134   -0.4587   -2.8272 H       1  LIG1        0.1327
     24 H           3.2053    8.2052   -2.6496 H       1  LIG1        0.1328
     25 H           2.8857    1.0460   -2.8605 H       1  LIG1        0.1315
     26 H          -1.0893    0.1508   -1.4950 H       1  LIG1        0.1287
     27 H           0.8729    7.5580   -3.1938 H       1  LIG1        0.1293
     28 H           4.4531    6.9817   -0.8880 H       1  LIG1        0.1319
     29 H           2.8609    3.1536   -1.5673 H       1  LIG1        0.1310
     30 H          -1.1241    2.2559   -0.1987 H       1  LIG1        0.1097
     31 H          -0.2128    5.6951   -1.9834 H       1  LIG1        0.1093
     32 H           3.3765    5.1175    0.3281 H       1  LIG1        0.1312
     33 H          -0.3699    5.7898    4.6149 H       1  LIG1        0.1386
     34 H           3.1900    3.8688    3.1361 H       1  LIG1        0.1376
     35 H           0.4135    5.4704    6.9258 H       1  LIG1        0.1435
     36 H           3.9788    3.5456    5.4446 H       1  LIG1        0.1433
     37 H          -0.2138    5.0414    2.2644 H       1  LIG1        0.1107
     38 H           1.2279    6.0040    1.9103 H       1  LIG1        0.1116
     39 H          -0.2065    4.3966    0.1695 H       1  LIG1        0.1373
     40 H           2.3853    3.9939    1.3709 H       1  LIG1        0.1652
     41 H           1.0829    3.0702    1.7519 H       1  LIG1        0.1589
@<TRIPOS>BOND
     1     1     3   ar
     2     1     4   ar
     3     2     5   ar
     4     2     6   ar
     5     3     7   ar
     6     4     8   ar
     7     5     9   ar
     8     6    10   ar
     9     7    16   ar
    10     8    16   ar
    11     9    17   ar
    12    10    17   ar
    13    11    13   ar
    14    11    15   ar
    15    12    14   ar
    16    12    15   ar
    17    13    18   ar
    18    14    18   ar
    19    15    19    1
    20    16    20    1
    21    17    20    1
    22    18    22    1
    23    19    21    1
    24    20    21    1
    25     1    23    1
    26     2    24    1
    27     3    25    1
    28     4    26    1
    29     5    27    1
    30     6    28    1
    31     7    29    1
    32     8    30    1
    33     9    31    1
    34    10    32    1
    35    11    33    1
    36    12    34    1
    37    13    35    1
    38    14    36    1
    39    19    37    1
    40    19    38    1
    41    20    39    1
    42    21    40    1
    43    21    41    1
