@<TRIPOS>MOLECULE
AO-476/13265360
 49 53 0 0 0
SMALL
USER_CHARGES

@<TRIPOS>ATOM
      1 C           0.3122    0.6887   -2.5036 C.ar    1  LIG1       -0.1105
      2 C           0.8976    4.0908    5.8722 C.ar    1  LIG1       -0.0967
      3 C           1.7476    5.0266    6.4602 C.ar    1  LIG1       -0.1025
      4 C           1.6735    0.6292   -2.2055 C.ar    1  LIG1       -0.1019
      5 C          -0.5086    1.5988   -1.8374 C.ar    1  LIG1       -0.1007
      6 C           1.0511    3.7521    4.5286 C.ar    1  LIG1       -0.0731
      7 C           2.7527    5.6337    5.7049 C.ar    1  LIG1       -0.0956
      8 C           3.1368    5.7722   -1.8216 C.ar    1  LIG1       -0.0849
      9 C           1.4577    6.2108   -0.1409 C.ar    1  LIG1       -0.0925
     10 C           2.2140    1.4798   -1.2411 C.ar    1  LIG1       -0.0615
     11 C           0.0319    2.4492   -0.8730 C.ar    1  LIG1       -0.0585
     12 C           2.6974    6.8780   -2.5493 C.ar    1  LIG1       -0.0585
     13 C           1.0182    7.3167   -0.8684 C.ar    1  LIG1       -0.0692
     14 C           2.0616    4.3572    3.7768 C.ar    1  LIG1       -0.0308
     15 C           2.5170    5.4385   -0.6174 C.ar    1  LIG1       -0.0763
     16 C           2.9144    5.3167    4.3499 C.ar    1  LIG1       -0.0842
     17 C           1.3932    2.3898   -0.5748 C.ar    1  LIG1       -0.0271
     18 C           1.6381    7.6503   -2.0727 C.ar    1  LIG1       -0.0153
     19 C           2.2405    4.0076    2.3601 C.2     1  LIG1        0.0128
     20 C           4.0205    5.9754    3.5587 C.3     1  LIG1       -0.0332
     21 C           3.7496    5.9518    2.0507 C.3     1  LIG1       -0.0358
     22 C           2.9956    4.2354    0.1750 C.3     1  LIG1        0.0209
     23 C           3.4411    4.5278    1.6183 C.3     1  LIG1        0.0233
     24 C           0.1226    9.4758   -2.2373 C.3     1  LIG1        0.0232
     25 N           1.4485    3.2508    1.6684 N.2     1  LIG1       -0.3204
     26 N           1.9333    3.2404    0.3895 N.pl3   1  LIG1       -0.3223
     27 O           1.2103    8.7301   -2.7822 O.3     1  LIG1       -0.4186
     28 H          -0.1087    0.0262   -3.2545 H       1  LIG1        0.1039
     29 H           0.1164    3.6218    6.4636 H       1  LIG1        0.1198
     30 H           1.6281    5.2837    7.5087 H       1  LIG1        0.1202
     31 H           2.3122   -0.0793   -2.7241 H       1  LIG1        0.1220
     32 H          -1.5688    1.6449   -2.0698 H       1  LIG1        0.1214
     33 H           0.3827    3.0159    4.0913 H       1  LIG1        0.1345
     34 H           3.4079    6.3591    6.1809 H       1  LIG1        0.1200
     35 H           3.9628    5.1761   -2.2005 H       1  LIG1        0.1331
     36 H           0.9687    5.9581    0.7965 H       1  LIG1        0.1256
     37 H           3.2759    1.4254   -1.0159 H       1  LIG1        0.1160
     38 H          -0.6174    3.1545   -0.3604 H       1  LIG1        0.1240
     39 H           3.1845    7.1331   -3.4867 H       1  LIG1        0.1284
     40 H           0.1929    7.9143   -0.4917 H       1  LIG1        0.1106
     41 H           4.1362    7.0186    3.8764 H       1  LIG1        0.0719
     42 H           4.9608    5.4542    3.7765 H       1  LIG1        0.0717
     43 H           2.9035    6.6178    1.8382 H       1  LIG1        0.0598
     44 H           4.6195    6.3390    1.5091 H       1  LIG1        0.0627
     45 H           3.8408    3.7776   -0.3911 H       1  LIG1        0.1387
     46 H           4.2793    3.8626    1.8703 H       1  LIG1        0.1060
     47 H          -0.1180   10.3091   -2.9019 H       1  LIG1        0.0886
     48 H           0.3967    9.8518   -1.2485 H       1  LIG1        0.1219
     49 H          -0.7476    8.8211   -2.1477 H       1  LIG1        0.0887
@<TRIPOS>BOND
     1     1     4   ar
     2     1     5   ar
     3     2     3   ar
     4     2     6   ar
     5     3     7   ar
     6     4    10   ar
     7     5    11   ar
     8     6    14   ar
     9     7    16   ar
    10     8    12   ar
    11     8    15   ar
    12     9    13   ar
    13     9    15   ar
    14    10    17   ar
    15    11    17   ar
    16    12    18   ar
    17    13    18   ar
    18    14    16   ar
    19    14    19    1
    20    15    22    1
    21    16    20    1
    22    17    26    1
    23    18    27    1
    24    19    23    1
    25    19    25    2
    26    20    21    1
    27    21    23    1
    28    22    23    1
    29    22    26    1
    30    24    27    1
    31    25    26    1
    32     1    28    1
    33     2    29    1
    34     3    30    1
    35     4    31    1
    36     5    32    1
    37     6    33    1
    38     7    34    1
    39     8    35    1
    40     9    36    1
    41    10    37    1
    42    11    38    1
    43    12    39    1
    44    13    40    1
    45    20    41    1
    46    20    42    1
    47    21    43    1
    48    21    44    1
    49    22    45    1
    50    23    46    1
    51    24    47    1
    52    24    48    1
    53    24    49    1
