@<TRIPOS>MOLECULE
AK-968/11492088
 42 45 0 0 0
SMALL
USER_CHARGES

@<TRIPOS>ATOM
      1 C           1.2303    7.1803   -1.3132 C.ar    1  LIG1       -0.1028
      2 C           1.9675    7.3353   -2.4871 C.ar    1  LIG1       -0.1038
      3 C           3.0141    4.3913    5.9660 C.ar    1  LIG1       -0.0858
      4 C          -0.1525    1.1244   -1.6868 C.ar    1  LIG1       -0.1052
      5 C           1.5621    6.1711   -0.4093 C.ar    1  LIG1       -0.0901
      6 C           3.0935    4.3194    4.5754 C.ar    1  LIG1       -0.0480
      7 C           3.0365    6.4808   -2.7572 C.ar    1  LIG1       -0.0694
      8 C           1.7793    4.5858    6.5851 C.ar    1  LIG1       -0.0839
      9 C          -0.0329    2.0211   -0.5860 C.ar    1  LIG1       -0.0845
     10 C           0.7033    4.6366    4.4225 C.ar    1  LIG1       -0.0385
     11 C           1.0556    0.9097   -2.3130 C.ar    1  LIG1       -0.0424
     12 C           2.6309    5.3166   -0.6795 C.ar    1  LIG1       -0.0430
     13 C           1.9382    4.4421    3.8035 C.ar    1  LIG1       -0.0188
     14 C           3.3682    5.4714   -1.8534 C.ar    1  LIG1       -0.0075
     15 C           0.6239    4.7085    5.8132 C.ar    1  LIG1       -0.0365
     16 C           1.2622    2.4574   -0.4125 C.ar    1  LIG1        0.0167
     17 C           1.7787    3.3487    0.5663 C.2     1  LIG1        0.0320
     18 C           3.1997    4.8013    1.7063 C.3     1  LIG1        0.0176
     19 C           2.9714    4.2417    0.2991 C.3     1  LIG1        0.0497
     20 C           5.1132    4.8743   -3.3548 C.3     1  LIG1        0.0247
     21 N           1.2670    3.4654    1.7539 N.2     1  LIG1       -0.3108
     22 N           2.0170    4.3711    2.4338 N.pl3   1  LIG1       -0.3238
     23 O           4.4146    4.6448   -2.1328 O.3     1  LIG1       -0.4145
     24 S           2.3270    1.7871   -1.5741 S.2     1  LIG1       -0.1076
     25 BR         -1.0489    4.9721    6.6526 Br      1  LIG1       -0.1053
     26 H           0.3975    7.8452   -1.1027 H       1  LIG1        0.1120
     27 H           1.7084    8.1206   -3.1910 H       1  LIG1        0.1256
     28 H           3.9138    4.2958    6.5670 H       1  LIG1        0.1355
     29 H          -1.0778    0.6614   -2.0040 H       1  LIG1        0.1149
     30 H           0.9804    6.0577    0.5018 H       1  LIG1        0.1268
     31 H           4.0609    4.1675    4.1036 H       1  LIG1        0.1361
     32 H           3.6071    6.6063   -3.6735 H       1  LIG1        0.1135
     33 H           1.7348    4.6396    7.6698 H       1  LIG1        0.1238
     34 H          -0.8588    2.3268    0.0439 H       1  LIG1        0.1293
     35 H          -0.1945    4.7317    3.8154 H       1  LIG1        0.1324
     36 H           1.2518    0.2802   -3.1695 H       1  LIG1        0.1669
     37 H           4.0956    4.3430    2.1438 H       1  LIG1        0.1169
     38 H           3.3182    5.8904    1.7356 H       1  LIG1        0.1165
     39 H           3.8274    3.6670   -0.0626 H       1  LIG1        0.1297
     40 H           5.9227    4.1471   -3.4547 H       1  LIG1        0.0901
     41 H           5.5182    5.8894   -3.3589 H       1  LIG1        0.0893
     42 H           4.4174    4.7584   -4.1891 H       1  LIG1        0.1224
@<TRIPOS>BOND
     1     1     2   ar
     2     1     5   ar
     3     2     7   ar
     4     3     6   ar
     5     3     8   ar
     6     4     9   ar
     7     4    11   ar
     8     5    12   ar
     9     6    13   ar
    10     7    14   ar
    11     8    15   ar
    12     9    16   ar
    13    10    13   ar
    14    10    15   ar
    15    11    24   ar
    16    12    14   ar
    17    12    19    1
    18    13    22    1
    19    14    23    1
    20    15    25    1
    21    16    17    1
    22    16    24   ar
    23    17    19    1
    24    17    21    2
    25    18    19    1
    26    18    22    1
    27    20    23    1
    28    21    22    1
    29     1    26    1
    30     2    27    1
    31     3    28    1
    32     4    29    1
    33     5    30    1
    34     6    31    1
    35     7    32    1
    36     8    33    1
    37     9    34    1
    38    10    35    1
    39    11    36    1
    40    18    37    1
    41    18    38    1
    42    19    39    1
    43    20    40    1
    44    20    41    1
    45    20    42    1
