@<TRIPOS>MOLECULE
AP-518/41793713
 42 44 0 0 0
SMALL
USER_CHARGES

@<TRIPOS>ATOM
      1 C           2.0402    7.6702   -2.1329 C.ar    1  LIG1       -0.1090
      2 C           3.1454    6.8571   -2.3839 C.ar    1  LIG1       -0.1032
      3 C           1.0351    7.2341   -1.2696 C.ar    1  LIG1       -0.1082
      4 C           2.9000    4.9227    5.7668 C.ar    1  LIG1       -0.0841
      5 C           3.2453    5.6076   -1.7718 C.ar    1  LIG1       -0.0940
      6 C           1.1350    5.9846   -0.6576 C.ar    1  LIG1       -0.1015
      7 C           3.1909    4.7950    4.4087 C.ar    1  LIG1       -0.0581
      8 C           1.6241    4.6142    6.2389 C.ar    1  LIG1       -0.0818
      9 C           0.9301    4.0504    3.9944 C.ar    1  LIG1       -0.0509
     10 C           2.2401    5.1715   -0.9086 C.ar    1  LIG1       -0.0792
     11 C           2.2060    4.3588    3.5225 C.ar    1  LIG1       -0.0454
     12 C           0.6392    4.1781    5.3526 C.ar    1  LIG1       -0.0364
     13 C           1.6453    3.8152    1.1272 C.2     1  LIG1        0.1001
     14 C           0.9064    0.4878   -1.3320 C.3     1  LIG1       -0.0731
     15 C          -0.0668    1.4760   -1.9771 C.3     1  LIG1       -0.0730
     16 C           1.8655    1.3248   -0.4912 C.3     1  LIG1       -0.0676
     17 C           0.3424    2.8580   -1.4786 C.3     1  LIG1       -0.0663
     18 C           1.8219    2.7042   -1.1412 C.3     1  LIG1       -0.0398
     19 C           2.3486    3.8076   -0.2403 C.3     1  LIG1        0.0633
     20 N           2.5015    4.2290    2.1448 N.am    1  LIG1       -0.3106
     21 O           0.4672    3.4879    1.2384 O.2     1  LIG1       -0.4720
     22 BR         -1.0898    3.7624    5.9932 Br      1  LIG1       -0.1085
     23 H           1.9632    8.6436   -2.6086 H       1  LIG1        0.1136
     24 H           3.9287    7.1970   -3.0552 H       1  LIG1        0.1143
     25 H           0.1750    7.8673   -1.0731 H       1  LIG1        0.1130
     26 H           3.6666    5.2624    6.4569 H       1  LIG1        0.1330
     27 H           4.1099    4.9807   -1.9735 H       1  LIG1        0.1283
     28 H           0.3470    5.6531    0.0134 H       1  LIG1        0.1156
     29 H           4.1890    5.0377    4.0532 H       1  LIG1        0.1474
     30 H           1.4142    4.7191    7.3002 H       1  LIG1        0.1306
     31 H           0.1659    3.7103    3.2990 H       1  LIG1        0.1383
     32 H           0.3861   -0.2553   -0.7189 H       1  LIG1        0.0437
     33 H           1.4545   -0.0548   -2.1108 H       1  LIG1        0.0436
     34 H           0.0210    1.4238   -3.0688 H       1  LIG1        0.0422
     35 H          -1.1066    1.2508   -1.7205 H       1  LIG1        0.0418
     36 H           1.5064    1.3689    0.5445 H       1  LIG1        0.0434
     37 H           2.8747    0.9018   -0.4773 H       1  LIG1        0.0447
     38 H           0.1644    3.6342   -2.2295 H       1  LIG1        0.0464
     39 H          -0.2383    3.1152   -0.5841 H       1  LIG1        0.0488
     40 H           2.4073    2.6874   -2.0700 H       1  LIG1        0.0667
     41 H           3.4118    3.5923   -0.0425 H       1  LIG1        0.1210
     42 H           3.4539    4.4730    1.8814 H       1  LIG1        0.3227
@<TRIPOS>BOND
     1     1     2   ar
     2     1     3   ar
     3     2     5   ar
     4     3     6   ar
     5     4     7   ar
     6     4     8   ar
     7     5    10   ar
     8     6    10   ar
     9     7    11   ar
    10     8    12   ar
    11     9    11   ar
    12     9    12   ar
    13    10    19    1
    14    11    20    1
    15    12    22    1
    16    13    19    1
    17    13    20   am
    18    13    21    2
    19    14    15    1
    20    14    16    1
    21    15    17    1
    22    16    18    1
    23    17    18    1
    24    18    19    1
    25     1    23    1
    26     2    24    1
    27     3    25    1
    28     4    26    1
    29     5    27    1
    30     6    28    1
    31     7    29    1
    32     8    30    1
    33     9    31    1
    34    14    32    1
    35    14    33    1
    36    15    34    1
    37    15    35    1
    38    16    36    1
    39    16    37    1
    40    17    38    1
    41    17    39    1
    42    18    40    1
    43    19    41    1
    44    20    42    1
