@<TRIPOS>MOLECULE
AG-690/09392028
 43 45 0 0 0
SMALL
USER_CHARGES

@<TRIPOS>ATOM
      1 C           0.3821    0.6122   -1.8808 C.ar    1  LIG1       -0.1083
      2 C           2.1960    7.5578   -2.3970 C.ar    1  LIG1       -0.1057
      3 C           1.6029    4.6417    6.6256 C.ar    1  LIG1       -0.0967
      4 C           1.7141    0.9618   -2.1021 C.ar    1  LIG1       -0.1066
      5 C          -0.4045    1.3735   -1.0162 C.ar    1  LIG1       -0.1026
      6 C           3.1859    6.5819   -2.5131 C.ar    1  LIG1       -0.1041
      7 C           1.1653    7.3990   -1.4706 C.ar    1  LIG1       -0.1035
      8 C           0.8681    5.3683    5.6887 C.ar    1  LIG1       -0.0891
      9 C           2.5852    3.7474    6.2002 C.ar    1  LIG1       -0.0690
     10 C           2.2597    2.0727   -1.4588 C.ar    1  LIG1       -0.0971
     11 C           0.1411    2.4844   -0.3730 C.ar    1  LIG1       -0.0917
     12 C           3.1449    5.4472   -1.7030 C.ar    1  LIG1       -0.0979
     13 C           1.1245    6.2643   -0.6605 C.ar    1  LIG1       -0.0969
     14 C           1.1157    5.2005    4.3262 C.ar    1  LIG1       -0.0519
     15 C           2.8328    3.5796    4.8377 C.ar    1  LIG1        0.0469
     16 C           1.4732    2.8341   -0.5942 C.ar    1  LIG1       -0.0680
     17 C           2.1142    5.2884   -0.7766 C.ar    1  LIG1       -0.0729
     18 C           2.0980    4.3062    3.9008 C.ar    1  LIG1       -0.0152
     19 C           3.8661    2.6373    4.4269 C.2     1  LIG1        0.0862
     20 C           1.4139    4.3069    1.4746 C.2     1  LIG1        0.1140
     21 C           2.0688    4.0480    0.1091 C.3     1  LIG1        0.0887
     22 N           5.1615    3.1223    4.2866 N.am    1  LIG1       -0.3454
     23 N           2.3275    4.1530    2.5307 N.am    1  LIG1       -0.2944
     24 O           3.5979    1.4474    4.1936 O.2     1  LIG1       -0.4914
     25 O           0.2292    4.6119    1.5803 O.2     1  LIG1       -0.4680
     26 H          -0.0430   -0.2521   -2.3827 H       1  LIG1        0.1141
     27 H           2.2288    8.4420   -3.0270 H       1  LIG1        0.1159
     28 H           1.4096    4.7723    7.6865 H       1  LIG1        0.1171
     29 H           2.3263    0.3697   -2.7760 H       1  LIG1        0.1141
     30 H          -1.4419    1.1022   -0.8446 H       1  LIG1        0.1145
     31 H           3.9891    6.7059   -3.2336 H       1  LIG1        0.1160
     32 H           0.3952    8.1591   -1.3791 H       1  LIG1        0.1175
     33 H           0.1036    6.0646    6.0204 H       1  LIG1        0.1340
     34 H           3.1511    3.1873    6.9403 H       1  LIG1        0.1331
     35 H           3.2986    2.3375   -1.6371 H       1  LIG1        0.1181
     36 H          -0.4791    3.0717    0.2991 H       1  LIG1        0.1242
     37 H           3.9204    4.6919   -1.8006 H       1  LIG1        0.1175
     38 H           0.3176    6.1490    0.0584 H       1  LIG1        0.1205
     39 H           0.5363    5.7727    3.6060 H       1  LIG1        0.1468
     40 H           3.1174    3.8004    0.3378 H       1  LIG1        0.1445
     41 H           5.3479    4.1021    4.4711 H       1  LIG1        0.2740
     42 H           5.9244    2.5158    4.0034 H       1  LIG1        0.2777
     43 H           3.2849    3.9045    2.2603 H       1  LIG1        0.3409
@<TRIPOS>BOND
     1     1     4   ar
     2     1     5   ar
     3     2     6   ar
     4     2     7   ar
     5     3     8   ar
     6     3     9   ar
     7     4    10   ar
     8     5    11   ar
     9     6    12   ar
    10     7    13   ar
    11     8    14   ar
    12     9    15   ar
    13    10    16   ar
    14    11    16   ar
    15    12    17   ar
    16    13    17   ar
    17    14    18   ar
    18    15    18   ar
    19    15    19    1
    20    16    21    1
    21    17    21    1
    22    18    23    1
    23    19    22   am
    24    19    24    2
    25    20    21    1
    26    20    23   am
    27    20    25    2
    28     1    26    1
    29     2    27    1
    30     3    28    1
    31     4    29    1
    32     5    30    1
    33     6    31    1
    34     7    32    1
    35     8    33    1
    36     9    34    1
    37    10    35    1
    38    11    36    1
    39    12    37    1
    40    13    38    1
    41    14    39    1
    42    21    40    1
    43    22    41    1
    44    22    42    1
    45    23    43    1
