@<TRIPOS>MOLECULE
AT-137/43420587
 38 40 0 0 0
SMALL
USER_CHARGES

@<TRIPOS>ATOM
      1 C           0.3786    0.5981   -1.8910 C.ar    1  LIG1       -0.1076
      2 C           2.2069    7.5764   -2.3264 C.ar    1  LIG1       -0.1056
      3 C           1.7101    0.9505   -2.1106 C.ar    1  LIG1       -0.1061
      4 C          -0.4087    1.3536   -1.0219 C.ar    1  LIG1       -0.1019
      5 C           3.1774    6.5863   -2.4797 C.ar    1  LIG1       -0.1043
      6 C           1.1859    7.4134   -1.3901 C.ar    1  LIG1       -0.1041
      7 C           2.2546    2.0584   -1.4610 C.ar    1  LIG1       -0.0971
      8 C           0.1358    2.4615   -0.3724 C.ar    1  LIG1       -0.0917
      9 C           3.1267    5.4330   -1.6967 C.ar    1  LIG1       -0.0991
     10 C           1.1353    6.2601   -0.6071 C.ar    1  LIG1       -0.0983
     11 C           2.8772    4.3444    6.1550 C.ar    1  LIG1       -0.0233
     12 C           0.6074    4.7972    5.6079 C.ar    1  LIG1        0.0136
     13 C           1.4674    2.8139   -0.5920 C.ar    1  LIG1       -0.0684
     14 C           2.1056    5.2699   -0.7604 C.ar    1  LIG1       -0.0751
     15 C           1.5908    4.6640    6.5748 C.ar    1  LIG1        0.0320
     16 C           3.1372    4.1701    4.8002 C.ar    1  LIG1        0.0638
     17 C           2.0846    4.3252    3.9128 C.ar    1  LIG1        0.0531
     18 C           1.4069    4.2749    1.4853 C.2     1  LIG1        0.1341
     19 C           2.0490    3.9984    0.1031 C.3     1  LIG1        0.0898
     20 N           0.8219    4.6355    4.2830 N.ar    1  LIG1       -0.3314
     21 N           2.3233    4.1523    2.5286 N.am    1  LIG1       -0.2626
     22 O           0.2161    4.5579    1.5835 O.2     1  LIG1       -0.4344
     23 CL          1.2321    4.8895    8.2365 Cl      1  LIG1       -0.1309
     24 CL          4.7369    3.7746    4.2964 Cl      1  LIG1       -0.1211
     25 H          -0.0456   -0.2637   -2.3978 H       1  LIG1        0.1149
     26 H           2.2473    8.4749   -2.9352 H       1  LIG1        0.1175
     27 H           2.3229    0.3631   -2.7880 H       1  LIG1        0.1145
     28 H          -1.4458    1.0802   -0.8515 H       1  LIG1        0.1153
     29 H           3.9730    6.7135   -3.2078 H       1  LIG1        0.1177
     30 H           0.4309    8.1846   -1.2697 H       1  LIG1        0.1186
     31 H           3.2932    2.3254   -1.6380 H       1  LIG1        0.1184
     32 H          -0.4851    3.0442    0.3030 H       1  LIG1        0.1239
     33 H           3.8869    4.6666   -1.8230 H       1  LIG1        0.1176
     34 H           0.3360    6.1417    0.1197 H       1  LIG1        0.1214
     35 H           3.6753    4.2304    6.8853 H       1  LIG1        0.1719
     36 H          -0.4166    5.0444    5.8717 H       1  LIG1        0.2349
     37 H           3.1108    3.7768    0.3453 H       1  LIG1        0.1451
     38 H           3.2828    3.9191    2.2817 H       1  LIG1        0.3446
@<TRIPOS>BOND
     1     1     3   ar
     2     1     4   ar
     3     2     5   ar
     4     2     6   ar
     5     3     7   ar
     6     4     8   ar
     7     5     9   ar
     8     6    10   ar
     9     7    13   ar
    10     8    13   ar
    11     9    14   ar
    12    10    14   ar
    13    11    15   ar
    14    11    16   ar
    15    12    15   ar
    16    12    20   ar
    17    13    19    1
    18    14    19    1
    19    15    23    1
    20    16    17   ar
    21    16    24    1
    22    17    20   ar
    23    17    21    1
    24    18    19    1
    25    18    21   am
    26    18    22    2
    27     1    25    1
    28     2    26    1
    29     3    27    1
    30     4    28    1
    31     5    29    1
    32     6    30    1
    33     7    31    1
    34     8    32    1
    35     9    33    1
    36    10    34    1
    37    11    35    1
    38    12    36    1
    39    19    37    1
    40    21    38    1
