@<TRIPOS>MOLECULE
AO-801/41077581
 33 35 0 0 0
SMALL
USER_CHARGES

@<TRIPOS>ATOM
      1 C          -0.4410    1.7904   -1.2123 C.ar    1  LIG1       -0.0951
      2 C           3.1483    3.8741    3.9392 C.ar    1  LIG1       -0.0890
      3 C           2.4393    6.7315   -2.1442 C.ar    1  LIG1       -0.0929
      4 C           0.2520    0.7979   -1.8964 C.ar    1  LIG1       -0.0742
      5 C           1.8858    4.1965    4.4242 C.ar    1  LIG1       -0.0724
      6 C           1.3546    7.4427   -1.6433 C.ar    1  LIG1       -0.0726
      7 C           0.2620    2.7681   -0.5171 C.ar    1  LIG1       -0.0583
      8 C           3.3435    3.7230    2.5709 C.ar    1  LIG1       -0.0473
      9 C           2.8039    5.5252   -1.5567 C.ar    1  LIG1       -0.0591
     10 C           1.6366    0.8271   -1.8544 C.ar    1  LIG1       -0.0322
     11 C           0.8598    4.3559    3.5068 C.ar    1  LIG1       -0.0350
     12 C           0.6727    6.9087   -0.5617 C.ar    1  LIG1       -0.0353
     13 C           1.6462    2.7090   -0.5368 C.ar    1  LIG1        0.0253
     14 C           2.2523    3.9034    1.7364 C.ar    1  LIG1        0.0321
     15 C           2.0572    5.0772   -0.4789 C.ar    1  LIG1        0.0192
     16 C           2.4328    3.7422    0.1987 C.3     1  LIG1        0.1351
     17 N           2.3541    1.7604   -1.1899 N.ar    1  LIG1       -0.3660
     18 N           1.0110    4.2172    2.1706 N.ar    1  LIG1       -0.3703
     19 N           0.9972    5.7400    0.0355 N.ar    1  LIG1       -0.3763
     20 O           3.8560    3.4727    0.0701 O.3     1  LIG1       -0.4257
     21 H          -1.5267    1.8020   -1.2211 H       1  LIG1        0.1300
     22 H           3.9785    3.7408    4.6264 H       1  LIG1        0.1327
     23 H           2.9993    7.1168   -2.9910 H       1  LIG1        0.1342
     24 H          -0.2751    0.0258   -2.4450 H       1  LIG1        0.1202
     25 H           1.7105    4.3192    5.4869 H       1  LIG1        0.1237
     26 H           1.0524    8.3851   -2.0854 H       1  LIG1        0.1239
     27 H          -0.2667    3.5480    0.0205 H       1  LIG1        0.1244
     28 H           4.3235    3.4716    2.1797 H       1  LIG1        0.1304
     29 H           3.6481    4.9608   -1.9380 H       1  LIG1        0.1288
     30 H           2.2238    0.0754   -2.3716 H       1  LIG1        0.1976
     31 H          -0.1436    4.6077    3.8341 H       1  LIG1        0.1988
     32 H          -0.1806    7.4245   -0.1337 H       1  LIG1        0.1998
     33 H           4.2865    4.1754    0.5663 H       1  LIG1        0.3454
@<TRIPOS>BOND
     1     1     4   ar
     2     1     7   ar
     3     2     5   ar
     4     2     8   ar
     5     3     6   ar
     6     3     9   ar
     7     4    10   ar
     8     5    11   ar
     9     6    12   ar
    10     7    13   ar
    11     8    14   ar
    12     9    15   ar
    13    10    17   ar
    14    11    18   ar
    15    12    19   ar
    16    13    16    1
    17    13    17   ar
    18    14    16    1
    19    14    18   ar
    20    15    16    1
    21    15    19   ar
    22    16    20    1
    23     1    21    1
    24     2    22    1
    25     3    23    1
    26     4    24    1
    27     5    25    1
    28     6    26    1
    29     7    27    1
    30     8    28    1
    31     9    29    1
    32    10    30    1
    33    11    31    1
    34    12    32    1
    35    20    33    1
