@<TRIPOS>MOLECULE
AP-518/42324226
 45 47 0 0 0
SMALL
USER_CHARGES

@<TRIPOS>ATOM
      1 C           0.2529    1.0986   -1.6725 C.ar    1  LIG1       -0.1075
      2 C           0.4621    4.1792    5.4128 C.ar    1  LIG1       -0.1003
      3 C          -0.3136    1.9507   -0.7245 C.ar    1  LIG1       -0.1064
      4 C           1.5855    1.2633   -2.0504 C.ar    1  LIG1       -0.1043
      5 C           1.3173    4.6592    6.4046 C.ar    1  LIG1       -0.1011
      6 C           0.9617    3.8825    4.1447 C.ar    1  LIG1       -0.0760
      7 C           0.4524    2.9676   -0.1546 C.ar    1  LIG1       -0.0972
      8 C           2.3515    2.2802   -1.4805 C.ar    1  LIG1       -0.0939
      9 C           2.6721    4.8425    6.1284 C.ar    1  LIG1       -0.0940
     10 C           2.3165    4.0659    3.8684 C.ar    1  LIG1        0.0195
     11 C           1.7850    3.1324   -0.5326 C.ar    1  LIG1       -0.0830
     12 C           3.1718    4.5460    4.8603 C.ar    1  LIG1       -0.0822
     13 C           2.8216    3.7427    2.5093 C.2     1  LIG1        0.1032
     14 C           2.4198    6.6333   -2.8317 C.3     1  LIG1       -0.0744
     15 C           1.2251    7.0759   -1.9852 C.3     1  LIG1       -0.0740
     16 C           2.9915    5.3969   -2.1447 C.3     1  LIG1       -0.0652
     17 C           1.1244    6.0736   -0.8401 C.3     1  LIG1       -0.0646
     18 C           2.5456    5.5395   -0.6928 C.3     1  LIG1       -0.0464
     19 C           4.6267    4.7522    4.5916 C.3     1  LIG1       -0.0321
     20 C           2.6185    4.2381    0.0866 C.3     1  LIG1       -0.0106
     21 N           2.2499    4.4563    1.4698 N.am    1  LIG1       -0.3368
     22 O           3.6782    2.8723    2.3788 O.2     1  LIG1       -0.4772
     23 H          -0.3433    0.3059   -2.1151 H       1  LIG1        0.1146
     24 H          -0.5932    4.0360    5.6274 H       1  LIG1        0.1173
     25 H          -1.3508    1.8219   -0.4293 H       1  LIG1        0.1158
     26 H           2.0272    0.5993   -2.7876 H       1  LIG1        0.1173
     27 H           0.9276    4.8903    7.3918 H       1  LIG1        0.1255
     28 H           0.2847    3.5102    3.3800 H       1  LIG1        0.1244
     29 H           0.0025    3.6269    0.5830 H       1  LIG1        0.1138
     30 H           3.3889    2.4011   -1.7812 H       1  LIG1        0.1210
     31 H           3.3300    5.2166    6.9085 H       1  LIG1        0.1215
     32 H           2.1291    6.4148   -3.8644 H       1  LIG1        0.0410
     33 H           3.1684    7.4334   -2.8637 H       1  LIG1        0.0403
     34 H           1.4015    8.0846   -1.5935 H       1  LIG1        0.0403
     35 H           0.3004    7.1079   -2.5700 H       1  LIG1        0.0411
     36 H           2.5660    4.4928   -2.5975 H       1  LIG1        0.0499
     37 H           4.0798    5.3396   -2.2432 H       1  LIG1        0.0391
     38 H           0.7559    6.5377    0.0801 H       1  LIG1        0.0434
     39 H           0.4303    5.2691   -1.1130 H       1  LIG1        0.0470
     40 H           3.1680    6.2937   -0.1934 H       1  LIG1        0.0689
     41 H           5.1888    3.8406    4.8246 H       1  LIG1        0.0592
     42 H           4.8024    5.0126    3.5407 H       1  LIG1        0.0480
     43 H           5.0282    5.5750    5.1959 H       1  LIG1        0.0792
     44 H           3.6690    3.9143    0.1166 H       1  LIG1        0.1370
     45 H           1.5017    5.1166    1.6466 H       1  LIG1        0.2984
@<TRIPOS>BOND
     1     1     3   ar
     2     1     4   ar
     3     2     5   ar
     4     2     6   ar
     5     3     7   ar
     6     4     8   ar
     7     5     9   ar
     8     6    10   ar
     9     7    11   ar
    10     8    11   ar
    11     9    12   ar
    12    10    12   ar
    13    10    13    1
    14    11    20    1
    15    12    19    1
    16    13    21   am
    17    13    22    2
    18    14    15    1
    19    14    16    1
    20    15    17    1
    21    16    18    1
    22    17    18    1
    23    18    20    1
    24    20    21    1
    25     1    23    1
    26     2    24    1
    27     3    25    1
    28     4    26    1
    29     5    27    1
    30     6    28    1
    31     7    29    1
    32     8    30    1
    33     9    31    1
    34    14    32    1
    35    14    33    1
    36    15    34    1
    37    15    35    1
    38    16    36    1
    39    16    37    1
    40    17    38    1
    41    17    39    1
    42    18    40    1
    43    19    41    1
    44    19    42    1
    45    19    43    1
    46    20    44    1
    47    21    45    1
