@<TRIPOS>MOLECULE
AG-690/09705039
 41 44 0 0 0
SMALL
USER_CHARGES

@<TRIPOS>ATOM
      1 C           1.9723    7.3272   -2.9480 C.ar    1  LIG1       -0.1091
      2 C           3.2228    6.7652   -2.6910 C.ar    1  LIG1       -0.0994
      3 C           0.8989    7.0581   -2.0987 C.ar    1  LIG1       -0.1010
      4 C           3.1212    4.1881    4.7562 C.ar    1  LIG1       -0.0651
      5 C           0.7630    4.4006    4.2756 C.ar    1  LIG1       -0.0630
      6 C           2.2731    1.4003   -0.9778 C.ar    1  LIG1       -0.0839
      7 C           0.5746    3.0287   -0.4297 C.ar    1  LIG1       -0.0826
      8 C           3.4000    5.9340   -1.5850 C.ar    1  LIG1       -0.0581
      9 C           1.0761    6.2269   -0.9927 C.ar    1  LIG1       -0.0616
     10 C           1.3135    0.6139   -1.6151 C.ar    1  LIG1       -0.0477
     11 C          -0.3850    2.2422   -1.0671 C.ar    1  LIG1       -0.0462
     12 C           2.8445    4.2085    6.1231 C.ar    1  LIG1       -0.0738
     13 C           0.4862    4.4210    5.6426 C.ar    1  LIG1       -0.0727
     14 C           2.0804    4.2842    3.8323 C.ar    1  LIG1       -0.0288
     15 C           1.9037    2.6077   -0.3850 C.ar    1  LIG1       -0.0746
     16 C           2.3265    5.6648   -0.7357 C.ar    1  LIG1       -0.0271
     17 C          -0.0156    1.0348   -1.6598 C.ar    1  LIG1        0.0623
     18 C           1.5269    4.3249    6.5664 C.ar    1  LIG1       -0.0386
     19 C           2.3689    4.2630    2.4072 C.2     1  LIG1        0.0125
     20 C           3.0526    3.0802    1.7778 C.3     1  LIG1        0.0305
     21 C           2.9313    3.4509    0.2973 C.3     1  LIG1        0.0224
     22 N           2.0964    5.2344    1.5940 N.2     1  LIG1       -0.3208
     23 N           2.5001    4.8485    0.3506 N.pl3   1  LIG1       -0.3222
     24 F          -0.9367    0.2810   -2.2743 F       1  LIG1       -0.2685
     25 BR          1.1521    4.3525    8.4184 Br      1  LIG1       -0.1090
     26 H           1.8344    7.9743   -3.8094 H       1  LIG1        0.1060
     27 H           4.0583    6.9747   -3.3522 H       1  LIG1        0.1228
     28 H          -0.0749    7.4958   -2.2990 H       1  LIG1        0.1227
     29 H           4.1513    4.0969    4.4217 H       1  LIG1        0.1403
     30 H          -0.0556    4.4762    3.5645 H       1  LIG1        0.1446
     31 H           3.3061    1.0636   -0.9475 H       1  LIG1        0.1353
     32 H           0.2775    3.9680    0.0292 H       1  LIG1        0.1319
     33 H           4.3783    5.5008   -1.3937 H       1  LIG1        0.1256
     34 H           0.2324    6.0244   -0.3378 H       1  LIG1        0.1169
     35 H           1.6011   -0.3257   -2.0773 H       1  LIG1        0.1325
     36 H          -1.4199    2.5694   -1.1017 H       1  LIG1        0.1312
     37 H           3.6669    4.1327    6.8298 H       1  LIG1        0.1383
     38 H          -0.5458    4.5122    5.9714 H       1  LIG1        0.1379
     39 H           4.0996    3.0764    2.0993 H       1  LIG1        0.1004
     40 H           2.5745    2.1371    2.0566 H       1  LIG1        0.1014
     41 H           3.8906    3.3411   -0.2195 H       1  LIG1        0.1385
@<TRIPOS>BOND
     1     1     2   ar
     2     1     3   ar
     3     2     8   ar
     4     3     9   ar
     5     4    12   ar
     6     4    14   ar
     7     5    13   ar
     8     5    14   ar
     9     6    10   ar
    10     6    15   ar
    11     7    11   ar
    12     7    15   ar
    13     8    16   ar
    14     9    16   ar
    15    10    17   ar
    16    11    17   ar
    17    12    18   ar
    18    13    18   ar
    19    14    19    1
    20    15    21    1
    21    16    23    1
    22    17    24    1
    23    18    25    1
    24    19    20    1
    25    19    22    2
    26    20    21    1
    27    21    23    1
    28    22    23    1
    29     1    26    1
    30     2    27    1
    31     3    28    1
    32     4    29    1
    33     5    30    1
    34     6    31    1
    35     7    32    1
    36     8    33    1
    37     9    34    1
    38    10    35    1
    39    11    36    1
    40    12    37    1
    41    13    38    1
    42    20    39    1
    43    20    40    1
    44    21    41    1
