@<TRIPOS>MOLECULE
AN-465/41988191
 41 43 0 0 0
SMALL
USER_CHARGES

@<TRIPOS>ATOM
      1 C           0.9005    0.4661   -2.2573 C.ar    1  LIG1       -0.0942
      2 C           2.7302    7.3873   -2.1166 C.ar    1  LIG1       -0.0939
      3 C           2.0093    1.3121   -2.2766 C.ar    1  LIG1       -0.0931
      4 C          -0.2254    0.8088   -1.5083 C.ar    1  LIG1       -0.0992
      5 C           1.4188    7.0233   -2.4225 C.ar    1  LIG1       -0.0989
      6 C           3.4320    6.6996   -1.1266 C.ar    1  LIG1       -0.0929
      7 C           1.9924    2.5008   -1.5468 C.ar    1  LIG1       -0.0972
      8 C          -0.2423    1.9973   -0.7787 C.ar    1  LIG1       -0.1072
      9 C           0.8093    5.9717   -1.7383 C.ar    1  LIG1       -0.1067
     10 C           2.8224    5.6479   -0.4423 C.ar    1  LIG1       -0.0965
     11 C           0.5829    5.2980    4.7931 C.ar    1  LIG1       -0.0947
     12 C           2.5806    4.2214    3.9641 C.ar    1  LIG1       -0.0950
     13 C           1.0276    5.1148    6.1025 C.ar    1  LIG1       -0.0730
     14 C           3.0253    4.0382    5.2734 C.ar    1  LIG1       -0.0732
     15 C           1.3594    4.8512    3.7239 C.ar    1  LIG1       -0.1242
     16 C           0.8666    2.8434   -0.7979 C.ar    1  LIG1       -0.1183
     17 C           1.5111    5.2839   -0.7483 C.ar    1  LIG1       -0.1177
     18 C           2.2488    4.4850    6.3426 C.ar    1  LIG1       -0.0276
     19 C           0.8839    5.0470    2.3240 C.3     1  LIG1       -0.0821
     20 C           0.8476    4.1383   -0.0023 C.3     1  LIG1       -0.0787
     21 N           1.3576    3.9921    1.3859 N.4     1  LIG1        0.4314
     22 BR          2.8503    4.2367    8.1168 Br      1  LIG1       -0.0854
     23 H           0.9133   -0.4587   -2.8267 H       1  LIG1        0.1328
     24 H           3.2051    8.2053   -2.6505 H       1  LIG1        0.1329
     25 H           2.8855    1.0460   -2.8605 H       1  LIG1        0.1316
     26 H          -1.0892    0.1509   -1.4941 H       1  LIG1        0.1287
     27 H           0.8726    7.5580   -3.1941 H       1  LIG1        0.1293
     28 H           4.4533    6.9820   -0.8889 H       1  LIG1        0.1319
     29 H           2.8610    3.1537   -1.5675 H       1  LIG1        0.1311
     30 H          -1.1236    2.2561   -0.1979 H       1  LIG1        0.1097
     31 H          -0.2129    5.6951   -1.9832 H       1  LIG1        0.1093
     32 H           3.3769    5.1179    0.3275 H       1  LIG1        0.1312
     33 H          -0.3697    5.7899    4.6155 H       1  LIG1        0.1378
     34 H           3.1918    3.8692    3.1373 H       1  LIG1        0.1368
     35 H           0.4100    5.4680    6.9243 H       1  LIG1        0.1451
     36 H           3.9792    3.5458    5.4434 H       1  LIG1        0.1449
     37 H          -0.2130    5.0419    2.2645 H       1  LIG1        0.1112
     38 H           1.2286    6.0045    1.9099 H       1  LIG1        0.1121
     39 H          -0.2060    4.3968    0.1698 H       1  LIG1        0.1375
     40 H           2.3860    3.9944    1.3707 H       1  LIG1        0.1653
     41 H           1.0835    3.0707    1.7521 H       1  LIG1        0.1590
@<TRIPOS>BOND
     1     1     3   ar
     2     1     4   ar
     3     2     5   ar
     4     2     6   ar
     5     3     7   ar
     6     4     8   ar
     7     5     9   ar
     8     6    10   ar
     9     7    16   ar
    10     8    16   ar
    11     9    17   ar
    12    10    17   ar
    13    11    13   ar
    14    11    15   ar
    15    12    14   ar
    16    12    15   ar
    17    13    18   ar
    18    14    18   ar
    19    15    19    1
    20    16    20    1
    21    17    20    1
    22    18    22    1
    23    19    21    1
    24    20    21    1
    25     1    23    1
    26     2    24    1
    27     3    25    1
    28     4    26    1
    29     5    27    1
    30     6    28    1
    31     7    29    1
    32     8    30    1
    33     9    31    1
    34    10    32    1
    35    11    33    1
    36    12    34    1
    37    13    35    1
    38    14    36    1
    39    19    37    1
    40    19    38    1
    41    20    39    1
    42    21    40    1
    43    21    41    1
