@<TRIPOS>MOLECULE
AE-473/30684040
 36 38 0 0 0
SMALL
USER_CHARGES

@<TRIPOS>ATOM
      1 C           2.2836    7.2645   -2.6358 C.ar    1  LIG1       -0.1081
      2 C           2.2727    4.4529    6.0108 C.ar    1  LIG1       -0.1048
      3 C           3.3372    6.4088   -2.3143 C.ar    1  LIG1       -0.1041
      4 C           1.0187    7.0496   -2.0884 C.ar    1  LIG1       -0.1040
      5 C           0.9288    4.0890    5.9526 C.ar    1  LIG1       -0.1016
      6 C           3.0286    4.5920    4.8411 C.ar    1  LIG1       -0.0950
      7 C           3.1258    5.3383   -1.4455 C.ar    1  LIG1       -0.0910
      8 C           0.8073    5.9791   -1.2196 C.ar    1  LIG1       -0.0901
      9 C           0.2985    3.8530    4.7274 C.ar    1  LIG1       -0.0789
     10 C           2.8627    4.4057    2.2446 C.ar    1  LIG1       -0.0719
     11 C           2.4147    4.3592    3.5944 C.ar    1  LIG1       -0.0741
     12 C           1.8609    5.1233   -0.8981 C.ar    1  LIG1       -0.0717
     13 C           1.0665    3.9958    3.5664 C.ar    1  LIG1       -0.0679
     14 C           1.7980    4.0756    1.4383 C.ar    1  LIG1       -0.0571
     15 C           1.6296    3.9548    0.0503 C.2     1  LIG1       -0.0535
     16 C           1.2379    2.7616   -0.5699 C.2     1  LIG1       -0.1152
     17 C           0.9368    1.4390    0.1029 C.3     1  LIG1       -0.0440
     18 C           1.0660    2.6697   -2.0716 C.3     1  LIG1       -0.0433
     19 N           0.7190    3.8303    2.2447 N.ar    1  LIG1       -0.3649
     20 H           2.4484    8.0988   -3.3113 H       1  LIG1        0.1142
     21 H           2.7405    4.6313    6.9755 H       1  LIG1        0.1096
     22 H           4.3224    6.5766   -2.7394 H       1  LIG1        0.1153
     23 H           0.1986    7.7165   -2.3378 H       1  LIG1        0.1162
     24 H           0.3609    3.9874    6.8738 H       1  LIG1        0.1200
     25 H           4.0752    4.8762    4.9014 H       1  LIG1        0.1254
     26 H           3.9570    4.6798   -1.2043 H       1  LIG1        0.1176
     27 H          -0.1844    5.8248   -0.8011 H       1  LIG1        0.1224
     28 H          -0.7478    3.5703    4.6818 H       1  LIG1        0.1180
     29 H           3.8592    4.6554    1.9044 H       1  LIG1        0.1269
     30 H          -0.1255    1.3873    0.3654 H       1  LIG1        0.0524
     31 H           1.1632    0.6131   -0.5801 H       1  LIG1        0.0568
     32 H           1.5040    1.2613    1.0194 H       1  LIG1        0.0538
     33 H           1.9699    2.3772   -2.6105 H       1  LIG1        0.0567
     34 H           0.7535    3.6405   -2.4714 H       1  LIG1        0.0544
     35 H           0.2927    1.9326   -2.3139 H       1  LIG1        0.0558
     36 H          -0.2034    3.5656    1.9254 H       1  LIG1        0.3261
@<TRIPOS>BOND
     1     1     3   ar
     2     1     4   ar
     3     2     5   ar
     4     2     6   ar
     5     3     7   ar
     6     4     8   ar
     7     5     9   ar
     8     6    11   ar
     9     7    12   ar
    10     8    12   ar
    11     9    13   ar
    12    10    11   ar
    13    10    14   ar
    14    11    13   ar
    15    12    15    1
    16    13    19   ar
    17    14    15    1
    18    14    19   ar
    19    15    16    2
    20    16    17    1
    21    16    18    1
    22     1    20    1
    23     2    21    1
    24     3    22    1
    25     4    23    1
    26     5    24    1
    27     6    25    1
    28     7    26    1
    29     8    27    1
    30     9    28    1
    31    10    29    1
    32    17    30    1
    33    17    31    1
    34    17    32    1
    35    18    33    1
    36    18    34    1
    37    18    35    1
    38    19    36    1
