@<TRIPOS>MOLECULE
AO-365/11609687
 43 45 0 0 0
SMALL
USER_CHARGES

@<TRIPOS>ATOM
      1 C           0.9764    0.4416   -1.9197 C.ar    1  LIG1       -0.1084
      2 C           2.8085    7.4088   -2.0688 C.ar    1  LIG1       -0.1063
      3 C           2.0593    1.3191   -1.9718 C.ar    1  LIG1       -0.1061
      4 C          -0.1842    0.8056   -1.2367 C.ar    1  LIG1       -0.1046
      5 C           1.4971    7.0857   -2.4169 C.ar    1  LIG1       -0.1050
      6 C           3.4485    6.7152   -1.0415 C.ar    1  LIG1       -0.1030
      7 C           1.1135    4.7956    6.1644 C.ar    1  LIG1       -0.0975
      8 C           0.5423    4.9872    4.9065 C.ar    1  LIG1       -0.0736
      9 C           1.9819    2.5607   -1.3409 C.ar    1  LIG1       -0.0947
     10 C          -0.2615    2.0472   -0.6058 C.ar    1  LIG1       -0.0926
     11 C           0.8254    6.0692   -1.7378 C.ar    1  LIG1       -0.0952
     12 C           2.7769    5.6986   -0.3625 C.ar    1  LIG1       -0.0919
     13 C           2.4327    4.3548    6.2716 C.ar    1  LIG1       -0.0672
     14 C           2.6091    4.2974    3.8628 C.ar    1  LIG1       -0.0210
     15 C           1.2900    4.7381    3.7556 C.ar    1  LIG1        0.0310
     16 C           0.8214    2.9248   -0.6579 C.ar    1  LIG1       -0.0729
     17 C           1.4653    5.3756   -0.7105 C.ar    1  LIG1       -0.0738
     18 C           3.1804    4.1057    5.1207 C.ar    1  LIG1       -0.0040
     19 C           0.6949    4.9381    2.4436 C.2     1  LIG1        0.1118
     20 C           5.1741    3.4405    4.0079 C.3     1  LIG1        0.0239
     21 C           0.7367    4.2721    0.0273 C.3     1  LIG1        0.0148
     22 N           1.2063    4.1712    1.3904 N.am    1  LIG1       -0.3257
     23 O          -0.2126    5.7734    2.2829 O.2     1  LIG1       -0.4725
     24 O           4.4675    3.6758    5.2249 O.3     1  LIG1       -0.4169
     25 H           1.0363   -0.5246   -2.4121 H       1  LIG1        0.1139
     26 H           3.3318    8.1995   -2.5986 H       1  LIG1        0.1164
     27 H           2.9626    1.0361   -2.5044 H       1  LIG1        0.1137
     28 H          -1.0278    0.1231   -1.1968 H       1  LIG1        0.1161
     29 H           0.9989    7.6250   -3.2174 H       1  LIG1        0.1173
     30 H           4.4700    6.9657   -0.7710 H       1  LIG1        0.1187
     31 H           0.5313    4.9896    7.0603 H       1  LIG1        0.1290
     32 H          -0.4859    5.3319    4.8343 H       1  LIG1        0.1197
     33 H           2.8307    3.2379   -1.3865 H       1  LIG1        0.1146
     34 H          -1.1697    2.3223   -0.0760 H       1  LIG1        0.1207
     35 H          -0.1964    5.8244   -2.0157 H       1  LIG1        0.1145
     36 H           3.2834    5.1638    0.4366 H       1  LIG1        0.1225
     37 H           2.8721    4.2075    7.2543 H       1  LIG1        0.1195
     38 H           3.1968    4.1023    2.9685 H       1  LIG1        0.1534
     39 H           6.1881    3.1017    4.2342 H       1  LIG1        0.0896
     40 H           5.2088    4.3622    3.4216 H       1  LIG1        0.0895
     41 H           4.6529    2.6678    3.4380 H       1  LIG1        0.1231
     42 H          -0.3176    4.5633    0.1212 H       1  LIG1        0.1564
     43 H           1.9897    3.5500    1.5639 H       1  LIG1        0.3028
@<TRIPOS>BOND
     1     1     3   ar
     2     1     4   ar
     3     2     5   ar
     4     2     6   ar
     5     3     9   ar
     6     4    10   ar
     7     5    11   ar
     8     6    12   ar
     9     7     8   ar
    10     7    13   ar
    11     8    15   ar
    12     9    16   ar
    13    10    16   ar
    14    11    17   ar
    15    12    17   ar
    16    13    18   ar
    17    14    15   ar
    18    14    18   ar
    19    15    19    1
    20    16    21    1
    21    17    21    1
    22    18    24    1
    23    19    22   am
    24    19    23    2
    25    20    24    1
    26    21    22    1
    27     1    25    1
    28     2    26    1
    29     3    27    1
    30     4    28    1
    31     5    29    1
    32     6    30    1
    33     7    31    1
    34     8    32    1
    35     9    33    1
    36    10    34    1
    37    11    35    1
    38    12    36    1
    39    13    37    1
    40    14    38    1
    41    20    39    1
    42    20    40    1
    43    20    41    1
    44    21    42    1
    45    22    43    1
