@<TRIPOS>MOLECULE
AK-968/12164215
 38 41 0 0 0
SMALL
USER_CHARGES

@<TRIPOS>ATOM
      1 C           1.9904    4.3122    6.1345 C.ar    1  LIG1       -0.1028
      2 C           0.5590    2.9946   -0.3927 C.ar    1  LIG1       -0.0728
      3 C           3.1116    5.4778   -1.8235 C.ar    1  LIG1       -0.0488
      4 C           1.3268    6.6645   -0.7083 C.ar    1  LIG1       -0.0443
      5 C          -0.3926    2.2212   -1.0575 C.ar    1  LIG1       -0.0618
      6 C           2.9680    6.3070   -2.9359 C.ar    1  LIG1       -0.0752
      7 C           1.1832    7.4939   -1.8207 C.ar    1  LIG1       -0.0733
      8 C           2.7170    4.2433    4.9108 C.ar    1  LIG1       -0.0847
      9 C           1.3269    0.6441   -1.6843 C.ar    1  LIG1       -0.0397
     10 C           0.6328    4.4152    5.9250 C.ar    1  LIG1       -0.0417
     11 C           1.8947    2.5928   -0.3738 C.ar    1  LIG1       -0.0449
     12 C           2.2910    5.6565   -0.7097 C.ar    1  LIG1       -0.0180
     13 C          -0.0086    1.0460   -1.7033 C.ar    1  LIG1       -0.0015
     14 C           2.2786    1.4175   -1.0195 C.ar    1  LIG1        0.0052
     15 C           2.0038    7.3151   -2.9344 C.ar    1  LIG1       -0.0437
     16 C           1.8869    4.2961    3.8125 C.ar    1  LIG1        0.0105
     17 C           2.2289    4.2547    2.4358 C.2     1  LIG1        0.0218
     18 C           2.9531    3.0814    1.8312 C.3     1  LIG1        0.0377
     19 C           2.8839    3.4505    0.3472 C.3     1  LIG1        0.0323
     20 N           1.9750    5.2221    1.6094 N.2     1  LIG1       -0.3116
     21 N           2.4313    4.8417    0.3826 N.pl3   1  LIG1       -0.3160
     22 S           0.2390    4.4284    4.2586 S.2     1  LIG1       -0.1123
     23 CL         -1.1833    0.0912   -2.5220 Cl      1  LIG1       -0.1287
     24 CL          3.9220    0.8893   -1.0188 Cl      1  LIG1       -0.1261
     25 BR          1.8106    8.4397   -4.4408 Br      1  LIG1       -0.1238
     26 H           2.4407    4.2886    7.1182 H       1  LIG1        0.1171
     27 H           0.2497    3.9096    0.1058 H       1  LIG1        0.1428
     28 H           3.8655    4.6950   -1.8350 H       1  LIG1        0.1259
     29 H           0.6818    6.8115    0.1545 H       1  LIG1        0.1379
     30 H          -1.4299    2.5461   -1.0634 H       1  LIG1        0.1423
     31 H           3.6141    6.1533   -3.7962 H       1  LIG1        0.1424
     32 H           0.4261    8.2735   -1.8044 H       1  LIG1        0.1422
     33 H           3.7946    4.1590    4.8454 H       1  LIG1        0.1318
     34 H           1.6249   -0.2725   -2.1892 H       1  LIG1        0.1504
     35 H          -0.1464    4.4841    6.6711 H       1  LIG1        0.1714
     36 H           3.9860    3.0890    2.1957 H       1  LIG1        0.1049
     37 H           2.4772    2.1321    2.0928 H       1  LIG1        0.1078
     38 H           3.8633    3.3537   -0.1323 H       1  LIG1        0.1470
@<TRIPOS>BOND
     1     1     8   ar
     2     1    10   ar
     3     2     5   ar
     4     2    11   ar
     5     3     6   ar
     6     3    12   ar
     7     4     7   ar
     8     4    12   ar
     9     5    13   ar
    10     6    15   ar
    11     7    15   ar
    12     8    16   ar
    13     9    13   ar
    14     9    14   ar
    15    10    22   ar
    16    11    14   ar
    17    11    19    1
    18    12    21    1
    19    13    23    1
    20    14    24    1
    21    15    25    1
    22    16    17    1
    23    16    22   ar
    24    17    18    1
    25    17    20    2
    26    18    19    1
    27    19    21    1
    28    20    21    1
    29     1    26    1
    30     2    27    1
    31     3    28    1
    32     4    29    1
    33     5    30    1
    34     6    31    1
    35     7    32    1
    36     8    33    1
    37     9    34    1
    38    10    35    1
    39    18    36    1
    40    18    37    1
    41    19    38    1
