@<TRIPOS>MOLECULE
AE-848/33203009
 38 41 0 0 0
SMALL
USER_CHARGES

@<TRIPOS>ATOM
      1 C           0.9374    1.3406   -2.0540 C.ar    1  LIG1       -0.1007
      2 C           0.0878    0.8045   -1.0881 C.ar    1  LIG1       -0.0935
      3 C           1.0455    4.7517    5.7955 C.ar    1  LIG1       -0.1073
      4 C           1.7863    2.3999   -1.7295 C.ar    1  LIG1       -0.0923
      5 C           3.3993    5.8715   -1.7314 C.ar    1  LIG1       -0.0982
      6 C           1.1740    5.9761   -0.7965 C.ar    1  LIG1       -0.0973
      7 C           3.1394    7.0202   -2.4786 C.ar    1  LIG1       -0.1053
      8 C           0.9141    7.1248   -1.5438 C.ar    1  LIG1       -0.1041
      9 C           0.0899    1.3215    0.2060 C.ar    1  LIG1       -0.0531
     10 C           0.7028    4.5828    4.4228 C.ar    1  LIG1       -0.0916
     11 C           2.3493    4.3886    6.0518 C.ar    1  LIG1       -0.0451
     12 C           2.4167    5.3493   -0.8903 C.ar    1  LIG1       -0.0936
     13 C           1.7898    2.9378   -0.4337 C.ar    1  LIG1       -0.0525
     14 C           1.8968    7.6470   -2.3848 C.ar    1  LIG1       -0.1196
     15 C           0.9420    2.3792    0.5315 C.ar    1  LIG1        0.0227
     16 C           1.7581    4.0972    3.6821 C.ar    1  LIG1        0.0063
     17 C           2.6641    4.3999    1.4025 C.2     1  LIG1       -0.0600
     18 C           1.8060    3.7915    2.2397 C.2     1  LIG1        0.0310
     19 C           2.6996    4.0958   -0.0739 C.3     1  LIG1       -0.0029
     20 C           1.6202    8.8761   -3.1829 C.3     1  LIG1       -0.0448
     21 O           0.9012    2.8208    1.8341 O.3     1  LIG1       -0.3532
     22 S           3.1545    3.8467    4.6410 S.2     1  LIG1       -0.1182
     23 H           0.9392    0.9336   -3.0611 H       1  LIG1        0.1168
     24 H          -0.5723   -0.0194   -1.3428 H       1  LIG1        0.1305
     25 H           0.3694    5.1198    6.5563 H       1  LIG1        0.1156
     26 H           2.4436    2.8045   -2.4950 H       1  LIG1        0.1288
     27 H           4.3703    5.3896   -1.8109 H       1  LIG1        0.1191
     28 H           0.4031    5.5767   -0.1425 H       1  LIG1        0.1158
     29 H           3.9117    7.4207   -3.1298 H       1  LIG1        0.1158
     30 H          -0.0567    7.6070   -1.4648 H       1  LIG1        0.1150
     31 H          -0.5694    0.8932    0.9560 H       1  LIG1        0.1327
     32 H          -0.2718    4.8090    4.0082 H       1  LIG1        0.1253
     33 H           2.8672    4.4150    7.0000 H       1  LIG1        0.1691
     34 H           3.3635    5.1449    1.7771 H       1  LIG1        0.1162
     35 H           3.7399    3.7838   -0.3123 H       1  LIG1        0.1116
     36 H           1.1982    8.6103   -4.1598 H       1  LIG1        0.0559
     37 H           0.9115    9.5359   -2.6656 H       1  LIG1        0.0526
     38 H           2.5358    9.4593   -3.3464 H       1  LIG1        0.0530
@<TRIPOS>BOND
     1     1     2   ar
     2     1     4   ar
     3     2     9   ar
     4     3    10   ar
     5     3    11   ar
     6     4    13   ar
     7     5     7   ar
     8     5    12   ar
     9     6     8   ar
    10     6    12   ar
    11     7    14   ar
    12     8    14   ar
    13     9    15   ar
    14    10    16   ar
    15    11    22   ar
    16    12    19    1
    17    13    15   ar
    18    13    19    1
    19    14    20    1
    20    15    21    1
    21    16    18    1
    22    16    22   ar
    23    17    18    2
    24    17    19    1
    25    18    21    1
    26     1    23    1
    27     2    24    1
    28     3    25    1
    29     4    26    1
    30     5    27    1
    31     6    28    1
    32     7    29    1
    33     8    30    1
    34     9    31    1
    35    10    32    1
    36    11    33    1
    37    17    34    1
    38    19    35    1
    39    20    36    1
    40    20    37    1
    41    20    38    1
