@<TRIPOS>MOLECULE
AQ-405/42300335
 38 41 0 0 0
SMALL
USER_CHARGES

@<TRIPOS>ATOM
      1 C           0.7271    1.1620   -2.3128 C.ar    1  LIG1       -0.0958
      2 C           2.2010    6.8240   -2.9025 C.ar    1  LIG1       -0.0955
      3 C          -0.3141    1.8787   -1.7230 C.ar    1  LIG1       -0.0930
      4 C           2.0207    1.2624   -1.8005 C.ar    1  LIG1       -0.0952
      5 C           3.3091    6.2128   -2.3157 C.ar    1  LIG1       -0.0923
      6 C           0.9740    6.8281   -2.2390 C.ar    1  LIG1       -0.0956
      7 C           1.7883    4.1660    5.8451 C.3     1  LIG1       -0.0530
      8 C           2.1319    5.4927    5.6554 C.3     1  LIG1       -0.0373
      9 C          -0.0618    2.6958   -0.6211 C.ar    1  LIG1       -0.0859
     10 C           2.2730    2.0794   -0.6986 C.ar    1  LIG1       -0.0887
     11 C           3.1901    5.6055   -1.0657 C.ar    1  LIG1       -0.0855
     12 C           0.8551    6.2208   -0.9889 C.ar    1  LIG1       -0.0897
     13 C           1.5402    3.3619    4.7416 C.3     1  LIG1       -0.0252
     14 C           1.3913    3.0987    2.3087 C.3     1  LIG1       -0.0069
     15 C           2.2210    5.9915    4.3642 C.3     1  LIG1        0.0067
     16 C           2.0778    5.7393    2.0323 C.3     1  LIG1        0.0252
     17 C           1.2318    2.7962   -0.1089 C.ar    1  LIG1       -0.0622
     18 C           1.9631    5.6095   -0.4023 C.ar    1  LIG1       -0.0614
     19 C           1.4937    3.6461    1.0375 C.3     1  LIG1       -0.0225
     20 C           1.8399    4.9782    0.8974 C.3     1  LIG1       -0.0071
     21 C           1.6369    3.8898    3.4433 C.3     1  LIG1        0.0202
     22 N           1.9804    5.2137    3.2790 N.3     1  LIG1       -0.3352
     23 H           0.5301    0.5246   -3.1697 H       1  LIG1        0.1309
     24 H           2.2943    7.2983   -3.8750 H       1  LIG1        0.1312
     25 H          -1.3216    1.7994   -2.1207 H       1  LIG1        0.1264
     26 H           2.8317    0.7035   -2.2583 H       1  LIG1        0.1267
     27 H           4.2649    6.2111   -2.8315 H       1  LIG1        0.1273
     28 H           0.1112    7.3051   -2.6945 H       1  LIG1        0.1268
     29 H           1.7141    3.7560    6.8475 H       1  LIG1        0.1765
     30 H           2.3291    6.1374    6.5055 H       1  LIG1        0.1810
     31 H          -0.8842    3.2481   -0.1723 H       1  LIG1        0.1296
     32 H           3.2863    2.1472   -0.3098 H       1  LIG1        0.1279
     33 H           4.0633    5.1334   -0.6215 H       1  LIG1        0.1305
     34 H          -0.1077    6.2323   -0.4835 H       1  LIG1        0.1260
     35 H           1.2702    2.3200    4.8972 H       1  LIG1        0.1807
     36 H           1.1177    2.0517    2.4315 H       1  LIG1        0.1873
     37 H           2.4883    7.0283    4.1838 H       1  LIG1        0.2299
     38 H           2.3518    6.7890    1.9699 H       1  LIG1        0.2374
@<TRIPOS>BOND
     1     1     3   ar
     2     1     4   ar
     3     2     5   ar
     4     2     6   ar
     5     3     9   ar
     6     4    10   ar
     7     5    11   ar
     8     6    12   ar
     9     7     8    1
    10     7    13    1
    11     8    15    1
    12     9    17   ar
    13    10    17   ar
    14    11    18   ar
    15    12    18   ar
    16    13    21    1
    17    14    19    1
    18    14    21    1
    19    15    22    1
    20    16    20    1
    21    16    22    1
    22    17    19    1
    23    18    20    1
    24    19    20    1
    25    21    22    1
    26     1    23    1
    27     2    24    1
    28     3    25    1
    29     4    26    1
    30     5    27    1
    31     6    28    1
    32     7    29    1
    33     8    30    1
    34     9    31    1
    35    10    32    1
    36    11    33    1
    37    12    34    1
    38    13    35    1
    39    14    36    1
    40    15    37    1
    41    16    38    1
