@<TRIPOS>MOLECULE
AB-337/13036037
 39 41 0 0 0
SMALL
USER_CHARGES

@<TRIPOS>ATOM
      1 C           0.3838    0.4632   -2.1689 C.ar    1  LIG1       -0.1008
      2 C           2.2872    7.6424   -1.8594 C.ar    1  LIG1       -0.1037
      3 C           1.4947    4.4306    6.3822 C.ar    1  LIG1       -0.0956
      4 C           1.7523    0.7312   -2.1407 C.ar    1  LIG1       -0.0957
      5 C          -0.5054    1.3022   -1.4973 C.ar    1  LIG1       -0.0980
      6 C           1.0851    7.3022   -1.2394 C.ar    1  LIG1       -0.0999
      7 C           3.3430    6.7311   -1.8816 C.ar    1  LIG1       -0.1007
      8 C           2.7408    3.9840    5.9426 C.ar    1  LIG1       -0.0918
      9 C           0.6470    5.1072    5.5050 C.ar    1  LIG1       -0.0923
     10 C           2.2317    1.8383   -1.4406 C.ar    1  LIG1       -0.0833
     11 C          -0.0259    2.4093   -0.7973 C.ar    1  LIG1       -0.0850
     12 C           0.9386    6.0506   -0.6413 C.ar    1  LIG1       -0.0869
     13 C           3.1966    5.4795   -1.2834 C.ar    1  LIG1       -0.0878
     14 C           3.1393    4.2142    4.6259 C.ar    1  LIG1       -0.0170
     15 C           1.0455    5.3373    4.1883 C.ar    1  LIG1       -0.0179
     16 C           1.3426    2.6775   -0.7689 C.ar    1  LIG1       -0.0559
     17 C           1.9944    5.1392   -0.6633 C.ar    1  LIG1       -0.0598
     18 C           2.2918    4.8909    3.7487 C.ar    1  LIG1        0.2468
     19 C           2.2155    3.7791    1.2725 C.2     1  LIG1        0.2574
     20 C           1.8420    3.8320   -0.0387 C.2     1  LIG1        0.0194
     21 O           2.0728    6.3485    1.5996 O.2     1  LIG1       -0.1284
     22 O           4.2519    5.1893    2.0767 O.2     1  LIG1       -0.1284
     23 S           2.7994    5.1857    2.0786 S.O2    1  LIG1       -0.1214
     24 H           0.0104   -0.3981   -2.7150 H       1  LIG1        0.1185
     25 H           2.4009    8.6164   -2.3263 H       1  LIG1        0.1204
     26 H           1.1839    4.2522    7.4076 H       1  LIG1        0.1345
     27 H           2.4447    0.0786   -2.6645 H       1  LIG1        0.1210
     28 H          -1.5711    1.0942   -1.5202 H       1  LIG1        0.1180
     29 H           0.2625    8.0112   -1.2230 H       1  LIG1        0.1210
     30 H           4.2787    6.9954   -2.3654 H       1  LIG1        0.1203
     31 H           3.4015    3.4581    6.6254 H       1  LIG1        0.1230
     32 H          -0.3228    5.4553    5.8479 H       1  LIG1        0.1235
     33 H           3.3013    2.0343   -1.4277 H       1  LIG1        0.1232
     34 H          -0.7316    3.0539   -0.2787 H       1  LIG1        0.1232
     35 H          -0.0045    5.7998   -0.1616 H       1  LIG1        0.1268
     36 H           4.0288    4.7800   -1.3090 H       1  LIG1        0.1253
     37 H           4.1127    3.8628    4.2939 H       1  LIG1        0.1470
     38 H           0.3778    5.8666    3.5141 H       1  LIG1        0.1454
     39 H           2.1552    2.8706    1.8639 H       1  LIG1        0.1936
@<TRIPOS>BOND
     1     1     4   ar
     2     1     5   ar
     3     2     6   ar
     4     2     7   ar
     5     3     8   ar
     6     3     9   ar
     7     4    10   ar
     8     5    11   ar
     9     6    12   ar
    10     7    13   ar
    11     8    14   ar
    12     9    15   ar
    13    10    16   ar
    14    11    16   ar
    15    12    17   ar
    16    13    17   ar
    17    14    18   ar
    18    15    18   ar
    19    16    20    1
    20    17    20    1
    21    18    23    1
    22    19    20    2
    23    19    23    1
    24    21    23    2
    25    22    23    2
    26     1    24    1
    27     2    25    1
    28     3    26    1
    29     4    27    1
    30     5    28    1
    31     6    29    1
    32     7    30    1
    33     8    31    1
    34     9    32    1
    35    10    33    1
    36    11    34    1
    37    12    35    1
    38    13    36    1
    39    14    37    1
    40    15    38    1
    41    19    39    1
