@<TRIPOS>MOLECULE
AK-918/43219902
 48 50 0 0 0
SMALL
USER_CHARGES

@<TRIPOS>ATOM
      1 C           0.2022    0.6650   -1.8587 C.ar    1  LIG1       -0.1068
      2 C           2.0250    7.6032   -2.0492 C.ar    1  LIG1       -0.1063
      3 C           0.5099    4.8586    5.1163 C.ar    1  LIG1       -0.0912
      4 C           1.4916    0.9837   -2.2845 C.ar    1  LIG1       -0.1042
      5 C          -0.3848    1.3812   -0.8154 C.ar    1  LIG1       -0.1043
      6 C           2.9982    6.6788   -2.4287 C.ar    1  LIG1       -0.1023
      7 C           1.1639    7.3145   -0.9905 C.ar    1  LIG1       -0.1038
      8 C           1.3154    4.6187    6.2295 C.ar    1  LIG1       -0.0865
      9 C           1.0499    4.7720    3.8331 C.ar    1  LIG1       -0.0589
     10 C           2.1944    2.0183   -1.6668 C.ar    1  LIG1       -0.0944
     11 C           0.3180    2.4158   -0.1978 C.ar    1  LIG1       -0.0950
     12 C           3.1101    5.4656   -1.7496 C.ar    1  LIG1       -0.0897
     13 C           1.2758    6.1012   -0.3115 C.ar    1  LIG1       -0.0926
     14 C           2.6608    4.2922    6.0595 C.ar    1  LIG1       -0.0501
     15 C           2.3953    4.4455    3.6631 C.ar    1  LIG1        0.0715
     16 C           1.6075    2.7344   -0.6235 C.ar    1  LIG1       -0.0656
     17 C           2.2490    5.1768   -0.6910 C.ar    1  LIG1       -0.0613
     18 C           3.2008    4.2056    4.7763 C.ar    1  LIG1       -0.0138
     19 C           2.9280    4.3634    2.3088 C.2     1  LIG1        0.1899
     20 C           5.3465    3.0845    5.4700 C.2     1  LIG1        0.0823
     21 C           6.8428    2.3364    3.5707 C.3     1  LIG1       -0.0414
     22 C           6.7699    2.9832    4.9423 C.3     1  LIG1        0.0429
     23 C           2.3700    3.8579    0.0476 C.3     1  LIG1        0.0765
     24 N           4.5518    3.8787    4.6302 N.am    1  LIG1       -0.3030
     25 O           4.1005    4.6107    2.0048 O.2     1  LIG1       -0.4540
     26 O           4.9938    2.5230    6.5019 O.2     1  LIG1       -0.4833
     27 O           1.9674    3.9766    1.4164 O.3     1  LIG1       -0.3186
     28 H          -0.3453   -0.1397   -2.3405 H       1  LIG1        0.1166
     29 H           1.9389    8.5485   -2.5773 H       1  LIG1        0.1171
     30 H          -0.5376    5.1132    5.2489 H       1  LIG1        0.1196
     31 H           1.9484    0.4269   -3.0975 H       1  LIG1        0.1163
     32 H          -1.3891    1.1341   -0.4844 H       1  LIG1        0.1170
     33 H           3.6696    6.9040   -3.2523 H       1  LIG1        0.1174
     34 H           0.4068    8.0344   -0.6941 H       1  LIG1        0.1179
     35 H           0.8944    4.6860    7.2284 H       1  LIG1        0.1381
     36 H           0.4117    4.9612    2.9735 H       1  LIG1        0.1485
     37 H           3.1986    2.2594   -2.0051 H       1  LIG1        0.1226
     38 H          -0.1472    2.9682    0.6144 H       1  LIG1        0.1208
     39 H           3.8713    4.7512   -2.0522 H       1  LIG1        0.1264
     40 H           0.6004    5.8848    0.5121 H       1  LIG1        0.1206
     41 H           3.2780    4.1074    6.9352 H       1  LIG1        0.1482
     42 H           6.4240    1.3250    3.5902 H       1  LIG1        0.0418
     43 H           7.8824    2.2697    3.2358 H       1  LIG1        0.0419
     44 H           6.2819    2.9178    2.8316 H       1  LIG1        0.0435
     45 H           7.1950    3.9923    4.8936 H       1  LIG1        0.0965
     46 H           7.3638    2.3986    5.6543 H       1  LIG1        0.0968
     47 H           3.4305    3.5791    0.0985 H       1  LIG1        0.1596
     48 H           5.0245    4.2664    3.8068 H       1  LIG1        0.3370
@<TRIPOS>BOND
     1     1     4   ar
     2     1     5   ar
     3     2     6   ar
     4     2     7   ar
     5     3     8   ar
     6     3     9   ar
     7     4    10   ar
     8     5    11   ar
     9     6    12   ar
    10     7    13   ar
    11     8    14   ar
    12     9    15   ar
    13    10    16   ar
    14    11    16   ar
    15    12    17   ar
    16    13    17   ar
    17    14    18   ar
    18    15    18   ar
    19    15    19    1
    20    16    23    1
    21    17    23    1
    22    18    24    1
    23    19    25    2
    24    19    27    1
    25    20    22    1
    26    20    24   am
    27    20    26    2
    28    21    22    1
    29    23    27    1
    30     1    28    1
    31     2    29    1
    32     3    30    1
    33     4    31    1
    34     5    32    1
    35     6    33    1
    36     7    34    1
    37     8    35    1
    38     9    36    1
    39    10    37    1
    40    11    38    1
    41    12    39    1
    42    13    40    1
    43    14    41    1
    44    21    42    1
    45    21    43    1
    46    21    44    1
    47    22    45    1
    48    22    46    1
    49    23    47    1
    50    24    48    1
