@<TRIPOS>MOLECULE
AG-690/12557772
 35 37 0 0 0
SMALL
USER_CHARGES

@<TRIPOS>ATOM
      1 C           1.3168    4.1058    6.3863 C.ar    1  LIG1       -0.1081
      2 C           0.5622    4.8177    5.4539 C.ar    1  LIG1       -0.1078
      3 C           2.5456    3.5583    6.0170 C.ar    1  LIG1       -0.1040
      4 C           0.1748    0.6351   -1.2371 C.ar    1  LIG1       -0.0908
      5 C           0.7401    1.4111   -2.2517 C.ar    1  LIG1       -0.0952
      6 C           1.0362    4.9821    4.1524 C.ar    1  LIG1       -0.1029
      7 C           3.0196    3.7228    4.7156 C.ar    1  LIG1       -0.0968
      8 C           0.3570    0.9669    0.1113 C.ar    1  LIG1       -0.0607
      9 C           1.5060    2.5440   -1.9578 C.ar    1  LIG1       -0.0720
     10 C           2.2649    4.4347    3.7832 C.ar    1  LIG1       -0.0845
     11 C           1.1237    2.1019    0.4249 C.ar    1  LIG1       -0.0187
     12 C           1.6740    2.8553   -0.6081 C.ar    1  LIG1       -0.0272
     13 C           2.1822    3.6944    1.3749 C.ar    1  LIG1        0.0121
     14 C           1.0245    6.3378   -0.6667 C.2     1  LIG1       -0.0930
     15 C           2.2221    6.0205   -1.1776 C.2     1  LIG1       -0.0450
     16 C           2.7823    4.6133    2.3639 C.3     1  LIG1        0.0434
     17 C           3.0906    4.9264   -0.6140 C.3     1  LIG1        0.0202
     18 N           1.4499    2.6383    1.6493 N.ar    1  LIG1       -0.3722
     19 N           2.3457    3.8674    0.0286 N.ar    1  LIG1       -0.3381
     20 BR          2.8882    6.8880   -2.6986 Br      1  LIG1       -0.1266
     21 H           0.9482    3.9790    7.4000 H       1  LIG1        0.1149
     22 H          -0.3941    5.2450    5.7414 H       1  LIG1        0.1147
     23 H           3.1338    3.0049    6.7430 H       1  LIG1        0.1170
     24 H          -0.4166   -0.2390   -1.4972 H       1  LIG1        0.1210
     25 H           0.5826    1.1295   -3.2901 H       1  LIG1        0.1250
     26 H           0.4413    5.5381    3.4326 H       1  LIG1        0.1118
     27 H           3.9779    3.2926    4.4370 H       1  LIG1        0.1251
     28 H          -0.0871    0.3577    0.8919 H       1  LIG1        0.1411
     29 H           1.9437    3.1464   -2.7459 H       1  LIG1        0.1210
     30 H           0.4242    7.1324   -1.0978 H       1  LIG1        0.1198
     31 H           0.6117    5.8142    0.1893 H       1  LIG1        0.1185
     32 H           2.6303    5.6724    2.0710 H       1  LIG1        0.1306
     33 H           3.8871    4.5155    2.3831 H       1  LIG1        0.1192
     34 H           3.7041    4.4761   -1.4067 H       1  LIG1        0.1434
     35 H           3.8185    5.3551    0.0878 H       1  LIG1        0.1450
@<TRIPOS>BOND
     1     1     2   ar
     2     1     3   ar
     3     2     6   ar
     4     3     7   ar
     5     4     5   ar
     6     4     8   ar
     7     5     9   ar
     8     6    10   ar
     9     7    10   ar
    10     8    11   ar
    11     9    12   ar
    12    10    16    1
    13    11    12   ar
    14    11    18   ar
    15    12    19   ar
    16    13    16    1
    17    13    18   ar
    18    13    19   ar
    19    14    15    2
    20    15    17    1
    21    15    20    1
    22    17    19    1
    23     1    21    1
    24     2    22    1
    25     3    23    1
    26     4    24    1
    27     5    25    1
    28     6    26    1
    29     7    27    1
    30     8    28    1
    31     9    29    1
    32    14    30    1
    33    14    31    1
    34    16    32    1
    35    16    33    1
    36    17    34    1
    37    17    35    1
