@<TRIPOS>MOLECULE
AN-329/40529357
 41 43 0 0 0
SMALL
USER_CHARGES

@<TRIPOS>ATOM
      1 C           0.3766    0.5965   -1.9156 C.ar    1  LIG1       -0.1048
      2 C           2.2056    7.5754   -2.3376 C.ar    1  LIG1       -0.1072
      3 C           1.7081    0.9491   -2.1351 C.ar    1  LIG1       -0.1040
      4 C          -0.4102    1.3503   -1.0445 C.ar    1  LIG1       -0.1033
      5 C           3.1758    6.5855   -2.4934 C.ar    1  LIG1       -0.1057
      6 C           1.1850    7.4106   -1.4012 C.ar    1  LIG1       -0.1019
      7 C           2.2530    2.0556   -1.4836 C.ar    1  LIG1       -0.0995
      8 C           0.1348    2.4567   -0.3931 C.ar    1  LIG1       -0.0981
      9 C           3.1254    5.4305   -1.7128 C.ar    1  LIG1       -0.0971
     10 C           1.1347    6.2557   -0.6205 C.ar    1  LIG1       -0.0923
     11 C           3.1329    4.1646    4.8051 C.ar    1  LIG1       -0.0338
     12 C           2.9010    4.3404    6.1692 C.ar    1  LIG1       -0.0354
     13 C           0.8107    4.6494    4.3477 C.ar    1  LIG1       -0.0038
     14 C           1.4664    2.8094   -0.6126 C.ar    1  LIG1       -0.0748
     15 C           2.1048    5.2656   -0.7762 C.ar    1  LIG1       -0.0684
     16 C           2.0878    4.3192    3.8943 C.ar    1  LIG1       -0.0226
     17 C           0.5787    4.8252    5.7118 C.ar    1  LIG1        0.1012
     18 C           1.6239    4.6707    6.6226 C.ar    1  LIG1        0.0510
     19 C           1.4071    4.2661    1.4678 C.2     1  LIG1        0.1138
     20 C           2.0485    3.9924    0.0846 C.3     1  LIG1        0.0885
     21 N           2.3240    4.1413    2.5103 N.am    1  LIG1       -0.3016
     22 N          -0.7380    5.1611    6.1361 N.pl3   1  LIG1       -0.0383
     23 O          -1.5382    4.2371    6.4122 O.2     1  LIG1       -0.1392
     24 O           0.2164    4.5491    1.5671 O.2     1  LIG1       -0.4642
     25 O          -1.0559    6.3701    6.2204 O.2     1  LIG1       -0.2478
     26 CL          1.3871    4.8780    8.3224 Cl      1  LIG1       -0.0884
     27 H          -0.0479   -0.2643   -2.4240 H       1  LIG1        0.1187
     28 H           2.2458    8.4752   -2.9446 H       1  LIG1        0.1157
     29 H           2.3204    0.3630   -2.8141 H       1  LIG1        0.1182
     30 H          -1.4472    1.0766   -0.8742 H       1  LIG1        0.1195
     31 H           3.9711    6.7140   -3.2217 H       1  LIG1        0.1153
     32 H           0.4301    8.1816   -1.2788 H       1  LIG1        0.1154
     33 H           3.2915    2.3229   -1.6606 H       1  LIG1        0.1166
     34 H          -0.4856    3.0381    0.2839 H       1  LIG1        0.1217
     35 H           3.8855    4.6644   -1.8411 H       1  LIG1        0.1189
     36 H           0.3358    6.1359    0.1065 H       1  LIG1        0.1233
     37 H           4.1328    3.9085    4.4637 H       1  LIG1        0.1767
     38 H           3.7268    4.2161    6.8653 H       1  LIG1        0.1622
     39 H          -0.0014    4.7690    3.6327 H       1  LIG1        0.1768
     40 H           3.1103    3.7701    0.3258 H       1  LIG1        0.1477
     41 H           3.2819    3.9023    2.2630 H       1  LIG1        0.3309
@<TRIPOS>BOND
     1     1     3   ar
     2     1     4   ar
     3     2     5   ar
     4     2     6   ar
     5     3     7   ar
     6     4     8   ar
     7     5     9   ar
     8     6    10   ar
     9     7    14   ar
    10     8    14   ar
    11     9    15   ar
    12    10    15   ar
    13    11    12   ar
    14    11    16   ar
    15    12    18   ar
    16    13    16   ar
    17    13    17   ar
    18    14    20    1
    19    15    20    1
    20    16    21    1
    21    17    18   ar
    22    17    22    1
    23    18    26    1
    24    19    20    1
    25    19    21   am
    26    19    24    2
    27    22    23    1
    28    22    25    2
    29     1    27    1
    30     2    28    1
    31     3    29    1
    32     4    30    1
    33     5    31    1
    34     6    32    1
    35     7    33    1
    36     8    34    1
    37     9    35    1
    38    10    36    1
    39    11    37    1
    40    12    38    1
    41    13    39    1
    42    20    40    1
    43    21    41    1
