@<TRIPOS>MOLECULE
AG-927/14899009
 47 50 0 0 0
SMALL
USER_CHARGES

@<TRIPOS>ATOM
      1 C           1.8052    7.5972   -2.2792 C.ar    1  LIG1       -0.1076
      2 C           0.1030    0.8304   -1.4485 C.ar    1  LIG1       -0.1061
      3 C           0.7435    6.9922   -1.6066 C.ar    1  LIG1       -0.1019
      4 C           3.0916    7.0691   -2.1699 C.ar    1  LIG1       -0.1066
      5 C           1.4010    1.0338   -1.9170 C.ar    1  LIG1       -0.1023
      6 C          -0.4243    1.6709   -0.4681 C.ar    1  LIG1       -0.1042
      7 C           0.9682    5.8592   -0.8247 C.ar    1  LIG1       -0.0887
      8 C           3.3163    5.9361   -1.3880 C.ar    1  LIG1       -0.0954
      9 C           2.1717    2.0776   -1.4049 C.ar    1  LIG1       -0.0902
     10 C           0.3464    2.7147    0.0440 C.ar    1  LIG1       -0.0937
     11 C           2.2546    5.3311   -0.7154 C.ar    1  LIG1       -0.0668
     12 C           1.6445    2.9180   -0.4245 C.ar    1  LIG1       -0.0663
     13 C           1.5170    5.0056    4.5302 C.3     1  LIG1       -0.0765
     14 C           2.0895    3.6462    4.9833 C.3     1  LIG1       -0.0728
     15 C           2.4723    5.9127    3.7395 C.3     1  LIG1       -0.0728
     16 C           1.8511    2.4587    4.0382 C.3     1  LIG1       -0.0670
     17 C           2.4466    5.7767    2.2030 C.3     1  LIG1       -0.0568
     18 C           2.9266    2.2148    2.9685 C.3     1  LIG1       -0.0419
     19 C           2.3205    4.3347    1.6792 C.3     1  LIG1       -0.0022
     20 C           3.4262    3.4789    2.2875 C.3     1  LIG1        0.0365
     21 C           2.5032    4.0817    0.1469 C.3     1  LIG1        0.0730
     22 N           4.3396    3.1734    1.1817 N.2     1  LIG1       -0.2791
     23 N           3.9324    3.6458    0.0980 N.2     1  LIG1       -0.2598
     24 H           1.6298    8.4786   -2.8891 H       1  LIG1        0.1153
     25 H          -0.4974    0.0185   -1.8482 H       1  LIG1        0.1168
     26 H          -0.2585    7.4026   -1.6925 H       1  LIG1        0.1173
     27 H           3.9182    7.5392   -2.6943 H       1  LIG1        0.1151
     28 H           1.8114    0.3801   -2.6811 H       1  LIG1        0.1179
     29 H          -1.4352    1.5136   -0.1038 H       1  LIG1        0.1173
     30 H           0.1349    5.3946   -0.3041 H       1  LIG1        0.1295
     31 H           4.3220    5.5317   -1.3086 H       1  LIG1        0.1182
     32 H           3.1821    2.2284   -1.7758 H       1  LIG1        0.1236
     33 H          -0.0727    3.3644    0.8078 H       1  LIG1        0.1160
     34 H           0.6237    4.8361    3.9372 H       1  LIG1        0.0305
     35 H           1.2115    5.5393    5.4270 H       1  LIG1        0.0425
     36 H           3.1478    3.7477    5.2229 H       1  LIG1        0.0457
     37 H           1.6036    3.4025    5.9339 H       1  LIG1        0.0465
     38 H           2.3301    6.9581    4.0439 H       1  LIG1        0.0373
     39 H           3.4900    5.6661    4.0799 H       1  LIG1        0.0438
     40 H           1.7925    1.5647    4.6574 H       1  LIG1        0.0469
     41 H           0.8869    2.5709    3.5491 H       1  LIG1        0.0432
     42 H           1.5604    6.3318    1.8439 H       1  LIG1        0.0543
     43 H           3.3090    6.2972    1.7492 H       1  LIG1        0.0573
     44 H           3.7582    1.7035    3.4699 H       1  LIG1        0.0551
     45 H           2.5521    1.4919    2.2374 H       1  LIG1        0.0554
     46 H           1.3585    3.9522    1.9887 H       1  LIG1        0.0885
     47 H           4.0296    4.0818    3.0265 H       1  LIG1        0.1152
@<TRIPOS>BOND
     1     1     3   ar
     2     1     4   ar
     3     2     5   ar
     4     2     6   ar
     5     3     7   ar
     6     4     8   ar
     7     5     9   ar
     8     6    10   ar
     9     7    11   ar
    10     8    11   ar
    11     9    12   ar
    12    10    12   ar
    13    11    21    1
    14    12    21    1
    15    13    14    1
    16    13    15    1
    17    14    16    1
    18    15    17    1
    19    16    18    1
    20    17    19    1
    21    18    20    1
    22    19    20    1
    23    19    21    1
    24    20    22    1
    25    21    23    1
    26    22    23    2
    27     1    24    1
    28     2    25    1
    29     3    26    1
    30     4    27    1
    31     5    28    1
    32     6    29    1
    33     7    30    1
    34     8    31    1
    35     9    32    1
    36    10    33    1
    37    13    34    1
    38    13    35    1
    39    14    36    1
    40    14    37    1
    41    15    38    1
    42    15    39    1
    43    16    40    1
    44    16    41    1
    45    17    42    1
    46    17    43    1
    47    18    44    1
    48    18    45    1
    49    19    46    1
    50    20    47    1
