@<TRIPOS>MOLECULE
AG-205/33675041
 47 49 0 0 0
SMALL
USER_CHARGES

@<TRIPOS>ATOM
      1 C           0.3752    0.5966   -1.9136 C.ar    1  LIG1       -0.1061
      2 C           2.2049    7.5763   -2.3356 C.ar    1  LIG1       -0.1080
      3 C           1.7062    0.9495   -2.1362 C.ar    1  LIG1       -0.1041
      4 C          -0.4095    1.3499   -1.0402 C.ar    1  LIG1       -0.1041
      5 C           1.0900    6.7406   -2.3973 C.ar    1  LIG1       -0.1026
      6 C           3.2705    7.2565   -1.4940 C.ar    1  LIG1       -0.1062
      7 C           2.2525    2.0557   -1.4853 C.ar    1  LIG1       -0.0981
      8 C           0.1370    2.4560   -0.3895 C.ar    1  LIG1       -0.0972
      9 C           1.0403    5.5851   -1.6174 C.ar    1  LIG1       -0.0921
     10 C           3.2209    6.1011   -0.7141 C.ar    1  LIG1       -0.0966
     11 C           1.6113    4.6733    6.6174 C.ar    1  LIG1       -0.0713
     12 C           2.8929    4.3441    6.1763 C.ar    1  LIG1       -0.0653
     13 C           0.8185    4.6454    4.3353 C.ar    1  LIG1       -0.0104
     14 C           1.4680    2.8090   -0.6120 C.ar    1  LIG1       -0.0729
     15 C           2.1058    5.2653   -0.7758 C.ar    1  LIG1       -0.0676
     16 C           2.1002    4.3162    3.8942 C.ar    1  LIG1        0.0016
     17 C           0.5740    4.8239    5.6969 C.ar    1  LIG1       -0.0048
     18 C           3.1373    4.1655    4.8147 C.ar    1  LIG1        0.0180
     19 C           1.4136    4.2645    1.4693 C.2     1  LIG1        0.1128
     20 C          -1.6900    5.2845    5.1331 C.3     1  LIG1        0.0225
     21 C           4.7161    2.4565    4.3221 C.3     1  LIG1        0.0213
     22 C           2.0517    3.9916    0.0844 C.3     1  LIG1        0.0888
     23 N           2.3330    4.1392    2.5096 N.am    1  LIG1       -0.2963
     24 O           0.2231    4.5473    1.5717 O.2     1  LIG1       -0.4671
     25 O          -0.6763    5.1460    6.1276 O.3     1  LIG1       -0.4190
     26 O           4.3968    3.8437    4.4046 O.3     1  LIG1       -0.4167
     27 H          -0.0505   -0.2639   -2.4214 H       1  LIG1        0.1160
     28 H           2.2440    8.4752   -2.9438 H       1  LIG1        0.1142
     29 H           2.3169    0.3638   -2.8170 H       1  LIG1        0.1166
     30 H          -1.4460    1.0760   -0.8676 H       1  LIG1        0.1174
     31 H           0.2607    6.9888   -3.0533 H       1  LIG1        0.1147
     32 H           4.1392    7.9063   -1.4465 H       1  LIG1        0.1145
     33 H           3.2906    2.3231   -1.6647 H       1  LIG1        0.1159
     34 H          -0.4819    3.0369    0.2893 H       1  LIG1        0.1212
     35 H           0.1674    4.9399   -1.6719 H       1  LIG1        0.1215
     36 H           4.0555    5.8600   -0.0613 H       1  LIG1        0.1181
     37 H           1.4276    4.8110    7.6794 H       1  LIG1        0.1154
     38 H           3.6963    4.2282    6.8990 H       1  LIG1        0.1237
     39 H           0.0063    4.7649    3.6218 H       1  LIG1        0.1627
     40 H          -2.6380    5.5427    5.6115 H       1  LIG1        0.0881
     41 H          -1.7914    4.3463    4.5817 H       1  LIG1        0.1212
     42 H          -1.4040    6.0815    4.4427 H       1  LIG1        0.0880
     43 H           5.7483    2.3389    3.9835 H       1  LIG1        0.0879
     44 H           4.0340    1.9657    3.6232 H       1  LIG1        0.1210
     45 H           4.6062    2.0069    5.3118 H       1  LIG1        0.0881
     46 H           3.1141    3.7693    0.3229 H       1  LIG1        0.1449
     47 H           3.2904    3.9003    2.2598 H       1  LIG1        0.3305
@<TRIPOS>BOND
     1     1     3   ar
     2     1     4   ar
     3     2     5   ar
     4     2     6   ar
     5     3     7   ar
     6     4     8   ar
     7     5     9   ar
     8     6    10   ar
     9     7    14   ar
    10     8    14   ar
    11     9    15   ar
    12    10    15   ar
    13    11    12   ar
    14    11    17   ar
    15    12    18   ar
    16    13    16   ar
    17    13    17   ar
    18    14    22    1
    19    15    22    1
    20    16    18   ar
    21    16    23    1
    22    17    25    1
    23    18    26    1
    24    19    22    1
    25    19    23   am
    26    19    24    2
    27    20    25    1
    28    21    26    1
    29     1    27    1
    30     2    28    1
    31     3    29    1
    32     4    30    1
    33     5    31    1
    34     6    32    1
    35     7    33    1
    36     8    34    1
    37     9    35    1
    38    10    36    1
    39    11    37    1
    40    12    38    1
    41    13    39    1
    42    20    40    1
    43    20    41    1
    44    20    42    1
    45    21    43    1
    46    21    44    1
    47    21    45    1
    48    22    46    1
    49    23    47    1
