@<TRIPOS>MOLECULE
AB-131/15501070
 46 50 0 0 0
SMALL
USER_CHARGES

@<TRIPOS>ATOM
      1 C           0.4140    0.5483   -2.3379 C.ar    1  LIG1       -0.1035
      2 C           2.2712    7.5536   -2.0368 C.ar    1  LIG1       -0.1028
      3 C           0.8115    6.1492    8.4525 C.ar    1  LIG1       -0.0997
      4 C          -0.3713    5.5503    8.0291 C.ar    1  LIG1       -0.0998
      5 C           1.7828    0.7838   -2.2095 C.ar    1  LIG1       -0.1024
      6 C          -0.4998    1.3664   -1.6735 C.ar    1  LIG1       -0.0996
      7 C           1.3040    6.6296   -2.4322 C.ar    1  LIG1       -0.0989
      8 C           3.0955    7.2770   -0.9460 C.ar    1  LIG1       -0.1004
      9 C           1.9607    6.0586    7.6666 C.ar    1  LIG1       -0.0883
     10 C          -0.4094    4.8586    6.8182 C.ar    1  LIG1       -0.0885
     11 C           3.0877    5.2652    5.6410 C.ar    1  LIG1       -0.0807
     12 C           2.2378    1.8374   -1.4167 C.ar    1  LIG1       -0.0931
     13 C          -0.0448    2.4199   -0.8807 C.ar    1  LIG1       -0.0904
     14 C           1.1609    5.4289   -1.7366 C.ar    1  LIG1       -0.0887
     15 C           2.9524    6.0763   -0.2505 C.ar    1  LIG1       -0.0904
     16 C           3.0495    4.5735    4.4300 C.ar    1  LIG1       -0.0797
     17 C           0.7176    4.0650    4.7925 C.ar    1  LIG1       -0.0673
     18 C           1.9405    5.3663    6.4448 C.ar    1  LIG1       -0.0759
     19 C           0.7378    4.7574    6.0143 C.ar    1  LIG1       -0.0712
     20 C           1.3240    2.6556   -0.7523 C.ar    1  LIG1       -0.0618
     21 C           1.9852    5.1523   -0.6459 C.ar    1  LIG1       -0.0581
     22 C           1.8668    3.9745    4.0066 C.ar    1  LIG1       -0.0463
     23 C           3.1875    3.5210    0.7822 C.2     1  LIG1        0.2111
     24 C           1.8274    3.2269    2.6964 C.3     1  LIG1        0.0925
     25 C           1.8270    3.8219    0.1256 C.3     1  LIG1        0.1227
     26 O           4.2536    3.5399    0.1731 O.2     1  LIG1       -0.3997
     27 O           3.1325    3.2037    2.1054 O.3     1  LIG1       -0.3143
     28 S           0.6544    3.9304    1.5452 S.3     1  LIG1       -0.1653
     29 H           0.0598   -0.2713   -2.9563 H       1  LIG1        0.1209
     30 H           2.3834    8.4878   -2.5793 H       1  LIG1        0.1217
     31 H           0.8404    6.6871    9.3955 H       1  LIG1        0.1211
     32 H          -1.2652    5.6208    8.6418 H       1  LIG1        0.1195
     33 H           2.4944    0.1477   -2.7276 H       1  LIG1        0.1203
     34 H          -1.5657    1.1839   -1.7740 H       1  LIG1        0.1209
     35 H           0.6628    6.8443   -3.2821 H       1  LIG1        0.1207
     36 H           3.8494    7.9957   -0.6386 H       1  LIG1        0.1208
     37 H           2.8740    6.5350    8.0175 H       1  LIG1        0.1268
     38 H          -1.3449    4.3979    6.5071 H       1  LIG1        0.1281
     39 H           4.0233    5.7255    5.9524 H       1  LIG1        0.1328
     40 H           3.3061    2.0134   -1.3224 H       1  LIG1        0.1326
     41 H          -0.7641    3.0521   -0.3666 H       1  LIG1        0.1312
     42 H           0.4044    4.7150   -2.0517 H       1  LIG1        0.1298
     43 H           3.5990    5.8694    0.5981 H       1  LIG1        0.1293
     44 H           3.9492    4.5074    3.8240 H       1  LIG1        0.1296
     45 H          -0.2013    3.5922    4.4495 H       1  LIG1        0.1437
     46 H           1.5434    2.1759    2.9158 H       1  LIG1        0.1908
@<TRIPOS>BOND
     1     1     5   ar
     2     1     6   ar
     3     2     7   ar
     4     2     8   ar
     5     3     4   ar
     6     3     9   ar
     7     4    10   ar
     8     5    12   ar
     9     6    13   ar
    10     7    14   ar
    11     8    15   ar
    12     9    18   ar
    13    10    19   ar
    14    11    16   ar
    15    11    18   ar
    16    12    20   ar
    17    13    20   ar
    18    14    21   ar
    19    15    21   ar
    20    16    22   ar
    21    17    19   ar
    22    17    22   ar
    23    18    19   ar
    24    20    25    1
    25    21    25    1
    26    22    24    1
    27    23    25    1
    28    23    26    2
    29    23    27    1
    30    24    27    1
    31    24    28    1
    32    25    28    1
    33     1    29    1
    34     2    30    1
    35     3    31    1
    36     4    32    1
    37     5    33    1
    38     6    34    1
    39     7    35    1
    40     8    36    1
    41     9    37    1
    42    10    38    1
    43    11    39    1
    44    12    40    1
    45    13    41    1
    46    14    42    1
    47    15    43    1
    48    16    44    1
    49    17    45    1
    50    24    46    1
