@<TRIPOS>MOLECULE
AE-477/13519470
 42 46 0 0 0
SMALL
USER_CHARGES

@<TRIPOS>ATOM
      1 C           0.4849    0.9111   -2.1708 C.ar    1  LIG1       -0.1022
      2 C           1.3900    4.3168    6.6626 C.ar    1  LIG1       -0.1073
      3 C           2.3870    7.0861   -3.0119 C.ar    1  LIG1       -0.1051
      4 C          -0.2221    2.0883   -1.9261 C.ar    1  LIG1       -0.0968
      5 C           1.6409    0.6277   -1.4435 C.ar    1  LIG1       -0.0959
      6 C           2.4833    5.1176    6.3323 C.ar    1  LIG1       -0.1037
      7 C           0.7366    3.5851    5.6710 C.ar    1  LIG1       -0.1043
      8 C           3.4194    6.4244   -2.3470 C.ar    1  LIG1       -0.1004
      9 C           1.1010    7.0926   -2.4715 C.ar    1  LIG1       -0.1026
     10 C           0.2270    2.9823   -0.9541 C.ar    1  LIG1       -0.0738
     11 C           2.0900    1.5217   -0.4715 C.ar    1  LIG1       -0.0724
     12 C           2.9230    5.1869    5.0105 C.ar    1  LIG1       -0.0936
     13 C           1.1764    3.6543    4.3491 C.ar    1  LIG1       -0.0948
     14 C           3.1658    5.7691   -1.1421 C.ar    1  LIG1       -0.0923
     15 C           0.8474    6.4374   -1.2666 C.ar    1  LIG1       -0.0946
     16 C           1.3830    2.6989   -0.2267 C.ar    1  LIG1       -0.0288
     17 C           2.2696    4.4552    4.0188 C.ar    1  LIG1       -0.0997
     18 C           1.8798    5.7756   -0.6018 C.ar    1  LIG1       -0.1121
     19 C           1.8512    3.6311    0.7866 C.2     1  LIG1       -0.0441
     20 C           0.7568    5.7530    1.7104 C.3     1  LIG1       -0.1539
     21 C           2.7402    4.5291    2.6022 C.3     1  LIG1       -0.0939
     22 C           1.6091    5.0779    0.6796 C.3     1  LIG1       -0.1111
     23 N           2.4755    3.2674    1.8618 N.2     1  LIG1       -0.4263
     24 N           2.2062    5.6942    1.8728 N.3     1  LIG1        0.3818
     25 H           0.1353    0.2151   -2.9277 H       1  LIG1        0.1226
     26 H           1.0486    4.2620    7.6922 H       1  LIG1        0.1163
     27 H           2.5846    7.5964   -3.9499 H       1  LIG1        0.1174
     28 H          -1.1221    2.3088   -2.4926 H       1  LIG1        0.1197
     29 H           2.1912   -0.2890   -1.6338 H       1  LIG1        0.1195
     30 H           2.9929    5.6866    7.1046 H       1  LIG1        0.1157
     31 H          -0.1139    2.9607    5.9279 H       1  LIG1        0.1164
     32 H           4.4209    6.4193   -2.7675 H       1  LIG1        0.1182
     33 H           0.2972    7.6078   -2.9895 H       1  LIG1        0.1190
     34 H          -0.3317    3.8967   -0.7715 H       1  LIG1        0.1356
     35 H           2.9922    1.2906    0.0891 H       1  LIG1        0.1371
     36 H           3.7756    5.8136    4.7624 H       1  LIG1        0.1283
     37 H           0.6610    3.0809    3.5831 H       1  LIG1        0.1259
     38 H           3.9766    5.2558   -0.6321 H       1  LIG1        0.1202
     39 H          -0.1584    6.4480   -0.8546 H       1  LIG1        0.1214
     40 H           0.3537    6.7356    1.4975 H       1  LIG1        0.0886
     41 H           0.1380    5.1486    2.3617 H       1  LIG1        0.0642
     42 H           3.8293    4.6477    2.6465 H       1  LIG1        0.1416
@<TRIPOS>BOND
     1     1     4   ar
     2     1     5   ar
     3     2     6   ar
     4     2     7   ar
     5     3     8   ar
     6     3     9   ar
     7     4    10   ar
     8     5    11   ar
     9     6    12   ar
    10     7    13   ar
    11     8    14   ar
    12     9    15   ar
    13    10    16   ar
    14    11    16   ar
    15    12    17   ar
    16    13    17   ar
    17    14    18   ar
    18    15    18   ar
    19    16    19    1
    20    17    21    1
    21    18    22    1
    22    19    22    1
    23    19    23    2
    24    20    22    1
    25    20    24    1
    26    21    23    1
    27    21    24    1
    28    22    24    1
    29     1    25    1
    30     2    26    1
    31     3    27    1
    32     4    28    1
    33     5    29    1
    34     6    30    1
    35     7    31    1
    36     8    32    1
    37     9    33    1
    38    10    34    1
    39    11    35    1
    40    12    36    1
    41    13    37    1
    42    14    38    1
    43    15    39    1
    44    20    40    1
    45    20    41    1
    46    21    42    1
