@<TRIPOS>MOLECULE
AE-848/07095022
 36 39 0 0 0
SMALL
USER_CHARGES

@<TRIPOS>ATOM
      1 C           0.6213    0.7931   -2.3567 C.ar    1  LIG1       -0.1071
      2 C           2.3128    7.2604   -2.7800 C.ar    1  LIG1       -0.1035
      3 C           1.9268    0.9306   -1.8851 C.ar    1  LIG1       -0.1015
      4 C          -0.4075    1.5464   -1.7910 C.ar    1  LIG1       -0.1003
      5 C           1.0615    7.1653   -2.1710 C.ar    1  LIG1       -0.1013
      6 C           3.3959    6.5494   -2.2633 C.ar    1  LIG1       -0.0965
      7 C           2.3686    4.1201    6.3171 C.ar    1  LIG1       -0.0833
      8 C           2.2035    1.8213   -0.8480 C.ar    1  LIG1       -0.0793
      9 C          -0.1307    2.4371   -0.7538 C.ar    1  LIG1       -0.0771
     10 C           0.8934    6.3592   -1.0451 C.ar    1  LIG1       -0.0852
     11 C           3.2277    5.7433   -1.1374 C.ar    1  LIG1       -0.0784
     12 C           2.6507    3.6526    5.0113 C.ar    1  LIG1       -0.0576
     13 C           1.3863    5.0727    6.1778 C.ar    1  LIG1        0.0053
     14 C           1.1748    2.5746   -0.2823 C.ar    1  LIG1       -0.0399
     15 C           1.9764    5.6482   -0.5283 C.ar    1  LIG1       -0.0520
     16 C           1.4594    3.4914    0.7857 C.ar    1  LIG1        0.0056
     17 C           1.8023    4.8144    0.6347 C.ar    1  LIG1       -0.0138
     18 C           1.8206    4.3528    4.1672 C.ar    1  LIG1        0.0742
     19 C           1.7336    4.2370    2.7604 C.ar    1  LIG1        0.0536
     20 N           1.4181    3.1383    2.1113 N.ar    1  LIG1       -0.3462
     21 N           1.9742    5.2788    1.9083 N.ar    1  LIG1       -0.3155
     22 O           1.0465    5.2205    4.8704 O.2     1  LIG1       -0.3616
     23 H           0.4057    0.1004   -3.1649 H       1  LIG1        0.1148
     24 H           2.4436    7.8876   -3.6570 H       1  LIG1        0.1195
     25 H           2.7281    0.3451   -2.3263 H       1  LIG1        0.1160
     26 H          -1.4237    1.4401   -2.1592 H       1  LIG1        0.1165
     27 H           0.2184    7.7193   -2.5734 H       1  LIG1        0.1188
     28 H           4.3700    6.6225   -2.7382 H       1  LIG1        0.1220
     29 H           2.8244    3.8021    7.2435 H       1  LIG1        0.1228
     30 H           3.2265    1.9171   -0.4913 H       1  LIG1        0.1242
     31 H          -0.9438    3.0172   -0.3235 H       1  LIG1        0.1297
     32 H          -0.0888    6.2936   -0.5833 H       1  LIG1        0.1197
     33 H           4.0820    5.1962   -0.7461 H       1  LIG1        0.1317
     34 H           3.3724    2.8981    4.7295 H       1  LIG1        0.1444
     35 H           0.8511    5.7027    6.8731 H       1  LIG1        0.2248
     36 H           2.2340    6.2203    2.1735 H       1  LIG1        0.3571
@<TRIPOS>BOND
     1     1     3   ar
     2     1     4   ar
     3     2     5   ar
     4     2     6   ar
     5     3     8   ar
     6     4     9   ar
     7     5    10   ar
     8     6    11   ar
     9     7    12   ar
    10     7    13   ar
    11     8    14   ar
    12     9    14   ar
    13    10    15   ar
    14    11    15   ar
    15    12    18   ar
    16    13    22   ar
    17    14    16    1
    18    15    17    1
    19    16    17   ar
    20    16    20   ar
    21    17    21   ar
    22    18    19    1
    23    18    22   ar
    24    19    20   ar
    25    19    21   ar
    26     1    23    1
    27     2    24    1
    28     3    25    1
    29     4    26    1
    30     5    27    1
    31     6    28    1
    32     7    29    1
    33     8    30    1
    34     9    31    1
    35    10    32    1
    36    11    33    1
    37    12    34    1
    38    13    35    1
    39    21    36    1
