@<TRIPOS>MOLECULE
AK-918/43219903
 50 52 0 0 0
SMALL
USER_CHARGES

@<TRIPOS>ATOM
      1 C           0.2050    0.6638   -1.8662 C.ar    1  LIG1       -0.1065
      2 C           2.0280    7.6020   -2.0554 C.ar    1  LIG1       -0.1061
      3 C           1.4966    0.9821   -2.2860 C.ar    1  LIG1       -0.1040
      4 C          -0.3871    1.3810   -0.8266 C.ar    1  LIG1       -0.1039
      5 C           3.0032    6.6773   -2.4291 C.ar    1  LIG1       -0.1024
      6 C           1.1616    7.3143   -1.0007 C.ar    1  LIG1       -0.1034
      7 C           2.1961    2.0175   -1.6662 C.ar    1  LIG1       -0.0942
      8 C           0.3124    2.4165   -0.2068 C.ar    1  LIG1       -0.0946
      9 C           3.1119    5.4649   -1.7481 C.ar    1  LIG1       -0.0898
     10 C           1.2704    6.1019   -0.3198 C.ar    1  LIG1       -0.0920
     11 C           1.0284    4.7750    3.8594 C.ar    1  LIG1       -0.0185
     12 C           3.1981    4.2087    4.7586 C.ar    1  LIG1       -0.0205
     13 C           2.3706    4.4506    3.6621 C.ar    1  LIG1        0.0457
     14 C           1.6040    2.7348   -0.6264 C.ar    1  LIG1       -0.0655
     15 C           2.2455    5.1771   -0.6934 C.ar    1  LIG1       -0.0612
     16 C           0.5137    4.8573    5.1532 C.ar    1  LIG1        0.0528
     17 C           2.6834    4.2910    6.0523 C.ar    1  LIG1        0.0511
     18 C           1.3412    4.6154    6.2497 C.ar    1  LIG1        0.0882
     19 C           2.9087    4.3673    2.3135 C.2     1  LIG1        0.1940
     20 C          -1.5752    5.4076    4.1585 C.3     1  LIG1        0.0294
     21 C           3.5881    2.7069    7.5782 C.3     1  LIG1        0.0290
     22 C           0.9014    5.9655    8.1574 C.3     1  LIG1        0.0212
     23 C           2.3631    3.8590    0.0473 C.3     1  LIG1        0.0755
     24 O           4.0839    4.6142    2.0120 O.2     1  LIG1       -0.4397
     25 O          -0.7987    5.1756    5.3321 O.3     1  LIG1       -0.4009
     26 O           3.5026    4.0530    7.1148 O.3     1  LIG1       -0.4016
     27 O           0.8373    4.6948    7.5142 O.3     1  LIG1       -0.4053
     28 O           1.9537    3.9792    1.4138 O.3     1  LIG1       -0.3198
     29 H          -0.3399   -0.1416   -2.3499 H       1  LIG1        0.1171
     30 H           1.9443    8.5467   -2.5849 H       1  LIG1        0.1172
     31 H           1.9574    0.4246   -3.0961 H       1  LIG1        0.1165
     32 H          -1.3930    1.1341   -0.5003 H       1  LIG1        0.1175
     33 H           3.6785    6.9016   -3.2496 H       1  LIG1        0.1171
     34 H           0.4031    8.0345   -0.7088 H       1  LIG1        0.1183
     35 H           3.2020    2.2585   -1.9997 H       1  LIG1        0.1223
     36 H          -0.1568    2.9696    0.6026 H       1  LIG1        0.1213
     37 H           3.8746    4.7503   -2.0464 H       1  LIG1        0.1255
     38 H           0.5911    5.8862    0.5007 H       1  LIG1        0.1214
     39 H           0.3796    4.9661    3.0076 H       1  LIG1        0.1417
     40 H           4.2451    3.9548    4.6096 H       1  LIG1        0.1392
     41 H          -2.6019    5.6516    4.4422 H       1  LIG1        0.0927
     42 H          -1.5624    4.5139    3.5294 H       1  LIG1        0.0919
     43 H          -1.1432    6.2456    3.6064 H       1  LIG1        0.1262
     44 H           4.2736    2.6561    8.4277 H       1  LIG1        0.0918
     45 H           3.9448    2.0642    6.7695 H       1  LIG1        0.0922
     46 H           2.5958    2.3758    7.8934 H       1  LIG1        0.1256
     47 H           0.4671    5.8908    9.1574 H       1  LIG1        0.0836
     48 H           0.3540    6.7029    7.5649 H       1  LIG1        0.0836
     49 H           1.9474    6.2704    8.2388 H       1  LIG1        0.1193
     50 H           3.4233    3.5805    0.1037 H       1  LIG1        0.1611
@<TRIPOS>BOND
     1     1     3   ar
     2     1     4   ar
     3     2     5   ar
     4     2     6   ar
     5     3     7   ar
     6     4     8   ar
     7     5     9   ar
     8     6    10   ar
     9     7    14   ar
    10     8    14   ar
    11     9    15   ar
    12    10    15   ar
    13    11    13   ar
    14    11    16   ar
    15    12    13   ar
    16    12    17   ar
    17    13    19    1
    18    14    23    1
    19    15    23    1
    20    16    18   ar
    21    16    25    1
    22    17    18   ar
    23    17    26    1
    24    18    27    1
    25    19    24    2
    26    19    28    1
    27    20    25    1
    28    21    26    1
    29    22    27    1
    30    23    28    1
    31     1    29    1
    32     2    30    1
    33     3    31    1
    34     4    32    1
    35     5    33    1
    36     6    34    1
    37     7    35    1
    38     8    36    1
    39     9    37    1
    40    10    38    1
    41    11    39    1
    42    12    40    1
    43    20    41    1
    44    20    42    1
    45    20    43    1
    46    21    44    1
    47    21    45    1
    48    21    46    1
    49    22    47    1
    50    22    48    1
    51    22    49    1
    52    23    50    1
