@<TRIPOS>MOLECULE
AG-690/33405054
 41 44 0 0 0
SMALL
USER_CHARGES

@<TRIPOS>ATOM
      1 C           2.9213    6.3051   -2.9882 C.ar    1  LIG1       -0.0867
      2 C           2.9096    3.6008    4.7220 C.ar    1  LIG1       -0.0655
      3 C           0.9747    4.9876    4.3094 C.ar    1  LIG1       -0.0634
      4 C           2.0364    2.3069   -1.7408 C.ar    1  LIG1       -0.0832
      5 C           0.8117    2.1228    0.3336 C.ar    1  LIG1       -0.0839
      6 C           3.0982    5.4744   -1.8818 C.ar    1  LIG1       -0.0495
      7 C           1.0765    1.5202   -2.3774 C.ar    1  LIG1       -0.0460
      8 C          -0.1482    1.3360   -0.3029 C.ar    1  LIG1       -0.0470
      9 C           1.9726    7.3269   -2.9486 C.ar    1  LIG1       -0.0761
     10 C           2.6325    3.6209    6.0889 C.ar    1  LIG1       -0.0656
     11 C           0.6976    5.0076    5.6763 C.ar    1  LIG1       -0.0645
     12 C           1.3776    6.6872   -0.6961 C.ar    1  LIG1       -0.0296
     13 C           2.0808    4.2842    3.8322 C.ar    1  LIG1       -0.0292
     14 C           1.9040    2.6082   -0.3853 C.ar    1  LIG1       -0.0752
     15 C           2.3264    5.6654   -0.7358 C.ar    1  LIG1       -0.0167
     16 C          -0.0157    1.0347   -1.6585 C.ar    1  LIG1        0.0631
     17 C           1.5265    4.3242    6.5661 C.ar    1  LIG1       -0.0127
     18 C           1.2007    7.5179   -1.8026 C.ar    1  LIG1       -0.0105
     19 C           2.3692    4.2632    2.4071 C.2     1  LIG1        0.0121
     20 C           3.0529    3.0807    1.7774 C.3     1  LIG1        0.0313
     21 C           2.9316    3.4517    0.2970 C.3     1  LIG1        0.0229
     22 N           2.0964    5.2347    1.5940 N.2     1  LIG1       -0.3203
     23 N           2.5002    4.8490    0.3505 N.pl3   1  LIG1       -0.3197
     24 F          -0.9391    0.2815   -2.2703 F       1  LIG1       -0.2678
     25 CL          1.1838    4.3478    8.2521 Cl      1  LIG1       -0.1399
     26 CL          0.0298    8.7782   -1.7550 Cl      1  LIG1       -0.1372
     27 H           3.5222    6.1554   -3.8805 H       1  LIG1        0.1359
     28 H           3.7744    3.0502    4.3611 H       1  LIG1        0.1417
     29 H           0.3218    5.5233    3.6251 H       1  LIG1        0.1460
     30 H           2.8845    2.6799   -2.3091 H       1  LIG1        0.1317
     31 H           0.7001    2.3526    1.3900 H       1  LIG1        0.1357
     32 H           3.8402    4.6814   -1.9227 H       1  LIG1        0.1334
     33 H           1.1791    1.2861   -3.4327 H       1  LIG1        0.1315
     34 H          -0.9985    0.9576    0.2565 H       1  LIG1        0.1332
     35 H           1.8455    7.9666   -3.8182 H       1  LIG1        0.1224
     36 H           3.2865    3.0835    6.7709 H       1  LIG1        0.1370
     37 H          -0.1677    5.5601    6.0335 H       1  LIG1        0.1366
     38 H           0.7775    6.8323    0.1997 H       1  LIG1        0.1324
     39 H           4.1001    3.0769    2.0989 H       1  LIG1        0.1015
     40 H           2.5751    2.1375    2.0561 H       1  LIG1        0.1026
     41 H           3.8908    3.3419   -0.2198 H       1  LIG1        0.1393
@<TRIPOS>BOND
     1     1     6   ar
     2     1     9   ar
     3     2    10   ar
     4     2    13   ar
     5     3    11   ar
     6     3    13   ar
     7     4     7   ar
     8     4    14   ar
     9     5     8   ar
    10     5    14   ar
    11     6    15   ar
    12     7    16   ar
    13     8    16   ar
    14     9    18   ar
    15    10    17   ar
    16    11    17   ar
    17    12    15   ar
    18    12    18   ar
    19    13    19    1
    20    14    21    1
    21    15    23    1
    22    16    24    1
    23    17    25    1
    24    18    26    1
    25    19    20    1
    26    19    22    2
    27    20    21    1
    28    21    23    1
    29    22    23    1
    30     1    27    1
    31     2    28    1
    32     3    29    1
    33     4    30    1
    34     5    31    1
    35     6    32    1
    36     7    33    1
    37     8    34    1
    38     9    35    1
    39    10    36    1
    40    11    37    1
    41    12    38    1
    42    20    39    1
    43    20    40    1
    44    21    41    1
