@<TRIPOS>MOLECULE
AN-023/40810418
 51 54 0 0 0
SMALL
USER_CHARGES

@<TRIPOS>ATOM
      1 C           0.3626    0.6131   -1.9390 C.ar    1  LIG1       -0.1061
      2 C           2.1761    7.5582   -2.4634 C.ar    1  LIG1       -0.1078
      3 C           1.6942    0.9624   -2.1632 C.ar    1  LIG1       -0.1044
      4 C          -0.4222    1.3750   -1.0735 C.ar    1  LIG1       -0.1044
      5 C           3.1656    6.5822   -2.5808 C.ar    1  LIG1       -0.1024
      6 C           1.1472    7.4001   -1.5349 C.ar    1  LIG1       -0.1063
      7 C           2.2411    2.0737   -1.5217 C.ar    1  LIG1       -0.0980
      8 C           0.1247    2.4864   -0.4320 C.ar    1  LIG1       -0.0986
      9 C           3.1262    5.4480   -1.7698 C.ar    1  LIG1       -0.0921
     10 C           1.1078    6.2659   -0.7239 C.ar    1  LIG1       -0.0972
     11 C           2.9101    4.2802    6.1089 C.ar    1  LIG1       -0.0625
     12 C           3.1358    4.1264    4.7412 C.ar    1  LIG1       -0.0636
     13 C           0.8185    4.6486    4.3001 C.ar    1  LIG1       -0.0269
     14 C           1.4563    2.8358   -0.6561 C.ar    1  LIG1       -0.0741
     15 C           2.0973    5.2898   -0.8413 C.ar    1  LIG1       -0.0684
     16 C           1.6386    4.6180    6.5725 C.ar    1  LIG1       -0.0340
     17 C           2.0900    4.3107    3.8367 C.ar    1  LIG1       -0.0445
     18 C           0.5928    4.8023    5.6680 C.ar    1  LIG1        0.0275
     19 C           1.4011    4.3100    1.4119 C.2     1  LIG1        0.1107
     20 C           1.0247    4.2543   10.2336 C.3     1  LIG1       -0.0484
     21 C           1.2335    5.7495   10.1035 C.3     1  LIG1       -0.0491
     22 C           1.6615    3.7134    8.9585 C.3     1  LIG1       -0.0332
     23 C           0.9877    5.9957    8.6193 C.3     1  LIG1       -0.0340
     24 C           2.0533    4.0500    0.0453 C.3     1  LIG1        0.0878
     25 N           1.4422    4.7660    7.9588 N.pl3   1  LIG1       -0.4065
     26 N           2.3164    4.1568    2.4686 N.am    1  LIG1       -0.3095
     27 O           0.2167    4.6150    1.5196 O.2     1  LIG1       -0.4665
     28 CL         -0.9965    5.2212    6.1997 Cl      1  LIG1       -0.1254
     29 H          -0.0635   -0.2516   -2.4396 H       1  LIG1        0.1168
     30 H           2.2077    8.4419   -3.0939 H       1  LIG1        0.1147
     31 H           2.3051    0.3699   -2.8379 H       1  LIG1        0.1179
     32 H          -1.4594    1.1039   -0.8996 H       1  LIG1        0.1174
     33 H           3.9675    6.7056   -3.3028 H       1  LIG1        0.1150
     34 H           0.3773    8.1604   -1.4424 H       1  LIG1        0.1144
     35 H           3.2797    2.3383   -1.7022 H       1  LIG1        0.1210
     36 H          -0.4943    3.0741    0.2408 H       1  LIG1        0.1175
     37 H           3.9013    4.6926   -1.8684 H       1  LIG1        0.1229
     38 H           0.3023    6.1511   -0.0034 H       1  LIG1        0.1179
     39 H           3.7332    4.1339    6.8040 H       1  LIG1        0.1347
     40 H           4.1307    3.8629    4.3912 H       1  LIG1        0.1334
     41 H           0.0061    4.7913    3.5904 H       1  LIG1        0.1612
     42 H           1.4767    3.8363   11.1371 H       1  LIG1        0.0569
     43 H          -0.0475    4.0245   10.2468 H       1  LIG1        0.0576
     44 H           0.5627    6.3320   10.7409 H       1  LIG1        0.0510
     45 H           2.2669    6.0090   10.3633 H       1  LIG1        0.0554
     46 H           2.7372    3.5551    9.0953 H       1  LIG1        0.0967
     47 H           1.1990    2.7669    8.6592 H       1  LIG1        0.0762
     48 H          -0.0793    6.1466    8.4199 H       1  LIG1        0.0711
     49 H           1.5411    6.8734    8.2690 H       1  LIG1        0.0990
     50 H           3.1025    3.8025    0.2721 H       1  LIG1        0.1445
     51 H           3.2736    3.9078    2.1942 H       1  LIG1        0.3246
@<TRIPOS>BOND
     1     1     3   ar
     2     1     4   ar
     3     2     5   ar
     4     2     6   ar
     5     3     7   ar
     6     4     8   ar
     7     5     9   ar
     8     6    10   ar
     9     7    14   ar
    10     8    14   ar
    11     9    15   ar
    12    10    15   ar
    13    11    12   ar
    14    11    16   ar
    15    12    17   ar
    16    13    17   ar
    17    13    18   ar
    18    14    24    1
    19    15    24    1
    20    16    18   ar
    21    16    25    1
    22    17    26    1
    23    18    28    1
    24    19    24    1
    25    19    26   am
    26    19    27    2
    27    20    21    1
    28    20    22    1
    29    21    23    1
    30    22    25    1
    31    23    25    1
    32     1    29    1
    33     2    30    1
    34     3    31    1
    35     4    32    1
    36     5    33    1
    37     6    34    1
    38     7    35    1
    39     8    36    1
    40     9    37    1
    41    10    38    1
    42    11    39    1
    43    12    40    1
    44    13    41    1
    45    20    42    1
    46    20    43    1
    47    21    44    1
    48    21    45    1
    49    22    46    1
    50    22    47    1
    51    23    48    1
    52    23    49    1
    53    24    50    1
    54    26    51    1
