@<TRIPOS>MOLECULE
AK-968/13408172
 48 51 0 0 0
SMALL
USER_CHARGES

@<TRIPOS>ATOM
      1 C           3.0783    4.1890    4.8321 C.ar    1  LIG1       -0.0757
      2 C           0.7235    4.3987    4.3341 C.ar    1  LIG1       -0.0640
      3 C           2.2755    1.4030   -0.9094 C.ar    1  LIG1       -0.0828
      4 C           0.5711    3.0290   -0.3729 C.ar    1  LIG1       -0.0843
      5 C           3.1023    5.4779   -1.8056 C.ar    1  LIG1       -0.0484
      6 C           1.3723    6.6883   -0.6313 C.ar    1  LIG1       -0.0442
      7 C           2.7914    4.2082    6.1969 C.ar    1  LIG1       -0.0638
      8 C           0.4365    4.4179    5.6990 C.ar    1  LIG1       -0.0498
      9 C           1.3215    0.6157   -1.5541 C.ar    1  LIG1       -0.0464
     10 C          -0.3829    2.2418   -1.0176 C.ar    1  LIG1       -0.0480
     11 C           2.9326    6.3092   -2.9126 C.ar    1  LIG1       -0.0453
     12 C           1.2026    7.5197   -1.7383 C.ar    1  LIG1       -0.0432
     13 C           2.0444    4.2842    3.9006 C.ar    1  LIG1       -0.0339
     14 C           1.9003    2.6096   -0.3187 C.ar    1  LIG1       -0.0751
     15 C           2.3221    5.6674   -0.6649 C.ar    1  LIG1       -0.0207
     16 C           1.4706    4.3226    6.6304 C.ar    1  LIG1       -0.0105
     17 C          -0.0077    1.0352   -1.6082 C.ar    1  LIG1        0.0621
     18 C           1.9828    7.3302   -2.8790 C.ar    1  LIG1        0.0565
     19 C           2.3433    4.2640    2.4776 C.2     1  LIG1        0.0062
     20 C           3.0329    3.0824    1.8526 C.3     1  LIG1        0.0301
     21 C           2.9219    3.4538    0.3714 C.3     1  LIG1        0.0217
     22 C           2.4496    6.3242    8.4289 C.3     1  LIG1       -0.0345
     23 C           2.1846    4.8880    8.8273 C.3     1  LIG1        0.0144
     24 N           2.0755    5.2356    1.6629 N.2     1  LIG1       -0.3252
     25 N           2.4887    4.8508    0.4223 N.pl3   1  LIG1       -0.3237
     26 O           1.1903    4.3416    7.9622 O.3     1  LIG1       -0.4161
     27 F          -0.9235    0.2805   -2.2297 F       1  LIG1       -0.2686
     28 F           1.8198    8.1286   -3.9422 F       1  LIG1       -0.2810
     29 H           4.1114    4.0990    4.5062 H       1  LIG1        0.1382
     30 H          -0.0893    4.4734    3.6162 H       1  LIG1        0.1486
     31 H           3.3085    1.0674   -0.8718 H       1  LIG1        0.1326
     32 H           0.2696    3.9679    0.0844 H       1  LIG1        0.1353
     33 H           3.8456    4.6856   -1.8424 H       1  LIG1        0.1299
     34 H           0.7587    6.8447    0.2523 H       1  LIG1        0.1403
     35 H           3.6012    4.1337    6.9177 H       1  LIG1        0.1147
     36 H          -0.5943    4.5077    6.0307 H       1  LIG1        0.1317
     37 H           1.6135   -0.3233   -2.0146 H       1  LIG1        0.1312
     38 H          -1.4179    2.5678   -1.0595 H       1  LIG1        0.1323
     39 H           3.5400    6.1622   -3.8008 H       1  LIG1        0.1372
     40 H           0.4630    8.3145   -1.7129 H       1  LIG1        0.1375
     41 H           4.0775    3.0796    2.1817 H       1  LIG1        0.1010
     42 H           2.5539    2.1386    2.1275 H       1  LIG1        0.1001
     43 H           3.8850    3.3453   -0.1383 H       1  LIG1        0.1385
     44 H           2.8127    6.3828    7.3990 H       1  LIG1        0.0482
     45 H           1.5376    6.9238    8.5169 H       1  LIG1        0.0482
     46 H           3.1937    6.7776    9.0922 H       1  LIG1        0.0573
     47 H           1.8218    4.8365    9.8582 H       1  LIG1        0.0956
     48 H           3.0966    4.2902    8.7380 H       1  LIG1        0.0957
@<TRIPOS>BOND
     1     1     7   ar
     2     1    13   ar
     3     2     8   ar
     4     2    13   ar
     5     3     9   ar
     6     3    14   ar
     7     4    10   ar
     8     4    14   ar
     9     5    11   ar
    10     5    15   ar
    11     6    12   ar
    12     6    15   ar
    13     7    16   ar
    14     8    16   ar
    15     9    17   ar
    16    10    17   ar
    17    11    18   ar
    18    12    18   ar
    19    13    19    1
    20    14    21    1
    21    15    25    1
    22    16    26    1
    23    17    27    1
    24    18    28    1
    25    19    20    1
    26    19    24    2
    27    20    21    1
    28    21    25    1
    29    22    23    1
    30    23    26    1
    31    24    25    1
    32     1    29    1
    33     2    30    1
    34     3    31    1
    35     4    32    1
    36     5    33    1
    37     6    34    1
    38     7    35    1
    39     8    36    1
    40     9    37    1
    41    10    38    1
    42    11    39    1
    43    12    40    1
    44    20    41    1
    45    20    42    1
    46    21    43    1
    47    22    44    1
    48    22    45    1
    49    22    46    1
    50    23    47    1
    51    23    48    1
