@<TRIPOS>MOLECULE
AP-518/42324182
 43 45 0 0 0
SMALL
USER_CHARGES

@<TRIPOS>ATOM
      1 C           1.0061    0.4187   -2.1069 C.ar    1  LIG1       -0.1088
      2 C           0.8426    4.8760    5.8618 C.ar    1  LIG1       -0.0922
      3 C           0.0499    1.3354   -2.5437 C.ar    1  LIG1       -0.1066
      4 C           1.8417    0.7389   -1.0368 C.ar    1  LIG1       -0.1047
      5 C           2.1368    4.4417    6.1482 C.ar    1  LIG1       -0.0902
      6 C           0.4640    5.1168    4.5410 C.ar    1  LIG1       -0.0657
      7 C          -0.0706    2.5724   -1.9106 C.ar    1  LIG1       -0.0948
      8 C           1.7211    1.9760   -0.4038 C.ar    1  LIG1       -0.0921
      9 C           0.7470    6.4798   -1.2936 C.ar    1  LIG1       -0.0800
     10 C           2.7917    5.2274   -0.9979 C.ar    1  LIG1       -0.0931
     11 C           1.4626    7.5003   -1.9199 C.ar    1  LIG1       -0.0562
     12 C           3.5074    6.2478   -1.6243 C.ar    1  LIG1       -0.0709
     13 C           3.0525    4.2484    5.1140 C.ar    1  LIG1       -0.0630
     14 C           1.3797    4.9235    3.5067 C.ar    1  LIG1        0.0486
     15 C           0.7650    2.8928   -0.8406 C.ar    1  LIG1       -0.0729
     16 C           1.4116    5.3434   -0.8326 C.ar    1  LIG1       -0.0713
     17 C           2.8428    7.3842   -2.0853 C.ar    1  LIG1       -0.0151
     18 C           2.6740    4.4892    3.7932 C.ar    1  LIG1        0.0261
     19 C           0.9394    5.1880    2.1424 C.2     1  LIG1        0.1154
     20 C           4.9490    8.1962   -2.8337 C.3     1  LIG1        0.0232
     21 C           0.6348    4.2352   -0.1532 C.3     1  LIG1        0.0129
     22 N           1.0117    4.1245    1.2377 N.am    1  LIG1       -0.3280
     23 O           0.5427    6.3196    1.8190 O.2     1  LIG1       -0.4634
     24 O           3.5407    8.3796   -2.6976 O.3     1  LIG1       -0.4187
     25 CL          3.8379    4.2376    2.5425 Cl      1  LIG1       -0.1068
     26 H           1.0990   -0.5450   -2.5991 H       1  LIG1        0.1132
     27 H           0.1297    5.0267    6.6673 H       1  LIG1        0.1267
     28 H          -0.6015    1.0858   -3.3762 H       1  LIG1        0.1128
     29 H           2.5856    0.0250   -0.6957 H       1  LIG1        0.1157
     30 H           2.4313    4.2542    7.1768 H       1  LIG1        0.1363
     31 H          -0.5476    5.4550    4.3315 H       1  LIG1        0.1339
     32 H          -0.8185    3.2806   -2.2579 H       1  LIG1        0.1134
     33 H           2.3765    2.2169    0.4291 H       1  LIG1        0.1210
     34 H          -0.3280    6.5787   -1.1690 H       1  LIG1        0.1372
     35 H           3.3180    4.3455   -0.6417 H       1  LIG1        0.1226
     36 H           0.9391    8.3831   -2.2772 H       1  LIG1        0.1307
     37 H           4.5821    6.1513   -1.7503 H       1  LIG1        0.1126
     38 H           4.0571    3.9097    5.3543 H       1  LIG1        0.1366
     39 H           5.3829    9.0627   -3.3387 H       1  LIG1        0.0888
     40 H           5.1452    7.2888   -3.4106 H       1  LIG1        0.0889
     41 H           5.3922    8.0967   -1.8400 H       1  LIG1        0.1218
     42 H          -0.4234    4.5266   -0.1282 H       1  LIG1        0.1565
     43 H           1.4032    3.2387    1.5406 H       1  LIG1        0.2996
@<TRIPOS>BOND
     1     1     3   ar
     2     1     4   ar
     3     2     5   ar
     4     2     6   ar
     5     3     7   ar
     6     4     8   ar
     7     5    13   ar
     8     6    14   ar
     9     7    15   ar
    10     8    15   ar
    11     9    11   ar
    12     9    16   ar
    13    10    12   ar
    14    10    16   ar
    15    11    17   ar
    16    12    17   ar
    17    13    18   ar
    18    14    18   ar
    19    14    19    1
    20    15    21    1
    21    16    21    1
    22    17    24    1
    23    18    25    1
    24    19    22   am
    25    19    23    2
    26    20    24    1
    27    21    22    1
    28     1    26    1
    29     2    27    1
    30     3    28    1
    31     4    29    1
    32     5    30    1
    33     6    31    1
    34     7    32    1
    35     8    33    1
    36     9    34    1
    37    10    35    1
    38    11    36    1
    39    12    37    1
    40    13    38    1
    41    20    39    1
    42    20    40    1
    43    20    41    1
    44    21    42    1
    45    22    43    1
