@<TRIPOS>MOLECULE
AK-968/11492080
 41 44 0 0 0
SMALL
USER_CHARGES

@<TRIPOS>ATOM
      1 C          -0.3618    1.7893   -0.4063 C.ar    1  LIG1       -0.0891
      2 C          -0.0406    1.0241   -1.5273 C.ar    1  LIG1       -0.0894
      3 C           2.2665    4.5909    6.2022 C.ar    1  LIG1       -0.1032
      4 C           0.6198    2.5602    0.2165 C.ar    1  LIG1       -0.0812
      5 C           1.2621    1.0296   -2.0257 C.ar    1  LIG1       -0.0732
      6 C           3.4414    5.8883   -1.4707 C.ar    1  LIG1       -0.0482
      7 C           1.1197    6.1944   -0.8763 C.ar    1  LIG1       -0.0437
      8 C           3.2696    6.7256   -2.5729 C.ar    1  LIG1       -0.0437
      9 C           0.9480    7.0319   -1.9785 C.ar    1  LIG1       -0.0417
     10 C           2.9066    4.7229    4.9360 C.ar    1  LIG1       -0.0849
     11 C           1.0165    4.0224    6.0933 C.ar    1  LIG1       -0.0418
     12 C           1.9226    2.5659   -0.2819 C.ar    1  LIG1       -0.0553
     13 C           2.2438    1.8006   -1.4030 C.ar    1  LIG1        0.0330
     14 C           2.3664    5.6227   -0.6224 C.ar    1  LIG1       -0.0198
     15 C           2.0230    7.2974   -2.8268 C.ar    1  LIG1        0.0585
     16 C           2.1213    4.2498    3.9076 C.ar    1  LIG1        0.0103
     17 C           2.4055    4.2080    2.5178 C.2     1  LIG1        0.0213
     18 C           3.0804    3.0232    1.8795 C.3     1  LIG1        0.0368
     19 C           2.9569    3.3999    0.4004 C.3     1  LIG1        0.0293
     20 C           3.6318    1.7901   -1.9542 C.3     1  LIG1        0.3488
     21 N           2.1374    5.1840    1.7062 N.2     1  LIG1       -0.3124
     22 N           2.5351    4.8002    0.4603 N.pl3   1  LIG1       -0.3185
     23 F           1.8580    8.1015   -3.8854 F       1  LIG1       -0.2792
     24 F           3.7770    0.9903   -3.0510 F       1  LIG1       -0.1890
     25 F           4.0706    3.0211   -2.3485 F       1  LIG1       -0.1904
     26 F           4.5504    1.3443   -1.0497 F       1  LIG1       -0.1898
     27 S           0.6192    3.6501    4.4698 S.2     1  LIG1       -0.1120
     28 H          -1.3760    1.7840   -0.0181 H       1  LIG1        0.1352
     29 H          -0.8054    0.4237   -2.0115 H       1  LIG1        0.1318
     30 H           2.7004    4.8986    7.1446 H       1  LIG1        0.1167
     31 H           0.3597    3.1517    1.0904 H       1  LIG1        0.1325
     32 H           1.5024    0.4304   -2.9000 H       1  LIG1        0.1426
     33 H           4.4172    5.4483   -1.2820 H       1  LIG1        0.1297
     34 H           0.2752    5.9940   -0.2219 H       1  LIG1        0.1418
     35 H           4.1064    6.9328   -3.2335 H       1  LIG1        0.1391
     36 H          -0.0225    7.4770   -2.1769 H       1  LIG1        0.1390
     37 H           3.8937    5.1441    4.7927 H       1  LIG1        0.1313
     38 H           0.3175    3.8087    6.8897 H       1  LIG1        0.1709
     39 H           4.1274    3.0085    2.2010 H       1  LIG1        0.1054
     40 H           2.5967    2.0823    2.1569 H       1  LIG1        0.1080
     41 H           3.9145    3.2863   -0.1189 H       1  LIG1        0.1444
@<TRIPOS>BOND
     1     1     2   ar
     2     1     4   ar
     3     2     5   ar
     4     3    10   ar
     5     3    11   ar
     6     4    12   ar
     7     5    13   ar
     8     6     8   ar
     9     6    14   ar
    10     7     9   ar
    11     7    14   ar
    12     8    15   ar
    13     9    15   ar
    14    10    16   ar
    15    11    27   ar
    16    12    13   ar
    17    12    19    1
    18    13    20    1
    19    14    22    1
    20    15    23    1
    21    16    17    1
    22    16    27   ar
    23    17    18    1
    24    17    21    2
    25    18    19    1
    26    19    22    1
    27    20    24    1
    28    20    25    1
    29    20    26    1
    30    21    22    1
    31     1    28    1
    32     2    29    1
    33     3    30    1
    34     4    31    1
    35     5    32    1
    36     6    33    1
    37     7    34    1
    38     8    35    1
    39     9    36    1
    40    10    37    1
    41    11    38    1
    42    18    39    1
    43    18    40    1
    44    19    41    1
