@<TRIPOS>MOLECULE
AG-690/12557769
 40 42 0 0 0
SMALL
USER_CHARGES

@<TRIPOS>ATOM
      1 C           1.4776    5.0327    6.1064 C.ar    1  LIG1       -0.1083
      2 C           2.7361    4.4530    5.9471 C.ar    1  LIG1       -0.1042
      3 C           0.5792    5.0538    5.0395 C.ar    1  LIG1       -0.1081
      4 C           2.5621    7.2500   -2.1612 C.ar    1  LIG1       -0.0921
      5 C           1.3667    6.6165   -2.5087 C.ar    1  LIG1       -0.0958
      6 C           3.0965    3.8945    4.7207 C.ar    1  LIG1       -0.0969
      7 C           0.9396    4.4953    3.8131 C.ar    1  LIG1       -0.1028
      8 C           3.2982    6.8383   -1.0430 C.ar    1  LIG1       -0.0623
      9 C           0.8638    5.5512   -1.7545 C.ar    1  LIG1       -0.0717
     10 C           2.1983    3.9157    3.6537 C.ar    1  LIG1       -0.0844
     11 C           2.8076    5.7696   -0.2737 C.ar    1  LIG1       -0.0206
     12 C           1.6135    5.1583   -0.6453 C.ar    1  LIG1       -0.0288
     13 C           2.4763    4.2298    1.1681 C.ar    1  LIG1        0.0087
     14 C           1.6858    1.2394   -0.3914 C.3     1  LIG1       -0.0645
     15 C           0.4493    2.6160   -2.0773 C.3     1  LIG1       -0.0662
     16 C           2.5907    3.3069    2.3160 C.3     1  LIG1        0.0421
     17 C           0.3152    3.2538    0.3463 C.3     1  LIG1       -0.0108
     18 C           0.4332    2.0814   -0.6438 C.3     1  LIG1       -0.0544
     19 N           3.3290    5.1795    0.8547 N.ar    1  LIG1       -0.3756
     20 N           1.4260    4.1772    0.2943 N.ar    1  LIG1       -0.3469
     21 H           1.1967    5.4664    7.0617 H       1  LIG1        0.1147
     22 H           3.4353    4.4354    6.7780 H       1  LIG1        0.1168
     23 H          -0.4011    5.5041    5.1636 H       1  LIG1        0.1142
     24 H           2.9282    8.0743   -2.7678 H       1  LIG1        0.1197
     25 H           0.8158    6.9575   -3.3820 H       1  LIG1        0.1236
     26 H           4.0794    3.4451    4.6056 H       1  LIG1        0.1249
     27 H           0.2333    4.5165    2.9875 H       1  LIG1        0.1125
     28 H           4.2260    7.3367   -0.7821 H       1  LIG1        0.1394
     29 H          -0.0637    5.0594   -2.0255 H       1  LIG1        0.1223
     30 H           2.5894    1.8515   -0.4852 H       1  LIG1        0.0359
     31 H           1.6763    0.8036    0.6132 H       1  LIG1        0.0396
     32 H           1.7689    0.4240   -1.1167 H       1  LIG1        0.0357
     33 H           1.3068    3.2785   -2.2363 H       1  LIG1        0.0334
     34 H           0.5252    1.7949   -2.7977 H       1  LIG1        0.0355
     35 H          -0.4618    3.1813   -2.3015 H       1  LIG1        0.0330
     36 H           3.6210    2.9062    2.4071 H       1  LIG1        0.1177
     37 H           1.9806    2.3940    2.1586 H       1  LIG1        0.1304
     38 H          -0.6087    3.8200    0.1751 H       1  LIG1        0.1185
     39 H           0.2702    2.8832    1.3785 H       1  LIG1        0.1183
     40 H          -0.4414    1.4268   -0.5390 H       1  LIG1        0.0575
@<TRIPOS>BOND
     1     1     2   ar
     2     1     3   ar
     3     2     6   ar
     4     3     7   ar
     5     4     5   ar
     6     4     8   ar
     7     5     9   ar
     8     6    10   ar
     9     7    10   ar
    10     8    11   ar
    11     9    12   ar
    12    10    16    1
    13    11    12   ar
    14    11    19   ar
    15    12    20   ar
    16    13    16    1
    17    13    19   ar
    18    13    20   ar
    19    14    18    1
    20    15    18    1
    21    17    18    1
    22    17    20    1
    23     1    21    1
    24     2    22    1
    25     3    23    1
    26     4    24    1
    27     5    25    1
    28     6    26    1
    29     7    27    1
    30     8    28    1
    31     9    29    1
    32    14    30    1
    33    14    31    1
    34    14    32    1
    35    15    33    1
    36    15    34    1
    37    15    35    1
    38    16    36    1
    39    16    37    1
    40    17    38    1
    41    17    39    1
    42    18    40    1
