@<TRIPOS>MOLECULE
AO-840/40406930
 40 42 0 0 0
SMALL
USER_CHARGES

@<TRIPOS>ATOM
      1 C           1.9003    4.9334    6.3086 C.ar    1  LIG1       -0.0914
      2 C           1.8994    7.7106   -2.4058 C.ar    1  LIG1       -0.0992
      3 C           0.6812    4.7923    5.6456 C.ar    1  LIG1       -0.0931
      4 C           3.0700    4.4407    5.7301 C.ar    1  LIG1       -0.0879
      5 C           3.1431    7.0920   -2.5325 C.ar    1  LIG1       -0.0991
      6 C           0.9167    7.1416   -1.5955 C.ar    1  LIG1       -0.1021
      7 C           0.9048    1.2172   -2.0115 C.3     1  LIG1       -0.0441
      8 C          -0.0896    0.9470   -1.0763 C.3     1  LIG1       -0.0256
      9 C           0.6318    4.1586    4.4041 C.ar    1  LIG1       -0.0848
     10 C           3.0206    3.8070    4.4884 C.ar    1  LIG1       -0.0770
     11 C           3.4042    5.9044   -1.8489 C.ar    1  LIG1       -0.1025
     12 C           1.1779    5.9542   -0.9121 C.ar    1  LIG1       -0.1076
     13 C           1.8282    2.2298   -1.7692 C.3     1  LIG1       -0.0223
     14 C          -0.1361    1.7023    0.0868 C.3     1  LIG1        0.0096
     15 C           1.8015    3.6659    3.8254 C.ar    1  LIG1       -0.0095
     16 C           2.4216    5.3355   -1.0387 C.ar    1  LIG1       -0.1027
     17 C           1.7331    2.9526   -0.5886 C.3     1  LIG1       -0.0019
     18 C           1.7499    3.0050    2.5310 C.2     1  LIG1        0.1073
     19 C           2.7045    4.0450   -0.2958 C.3     1  LIG1        0.0233
     20 C           0.6703    3.4337    1.5353 C.3     1  LIG1        0.1159
     21 N           0.7656    2.6716    0.2948 N.3     1  LIG1       -0.3443
     22 O           2.5430    2.1091    2.1969 O.2     1  LIG1       -0.4435
     23 H           1.9387    5.4268    7.2753 H       1  LIG1        0.1395
     24 H           1.6968    8.6359   -2.9371 H       1  LIG1        0.1274
     25 H          -0.2295    5.1758    6.0964 H       1  LIG1        0.1287
     26 H           4.0193    4.5508    6.2461 H       1  LIG1        0.1307
     27 H           3.9087    7.5353   -3.1625 H       1  LIG1        0.1267
     28 H          -0.0513    7.6236   -1.4959 H       1  LIG1        0.1250
     29 H           0.9596    0.6373   -2.9282 H       1  LIG1        0.1923
     30 H          -0.8155    0.1609   -1.2538 H       1  LIG1        0.1807
     31 H          -0.3235    4.0540    3.8961 H       1  LIG1        0.1293
     32 H           3.9384    3.4268    4.0471 H       1  LIG1        0.1437
     33 H           4.3761    5.4294   -1.9537 H       1  LIG1        0.1233
     34 H           0.4062    5.5181   -0.2832 H       1  LIG1        0.1114
     35 H           2.6053    2.4424   -2.4966 H       1  LIG1        0.1808
     36 H          -0.8820    1.5462    0.8567 H       1  LIG1        0.2504
     37 H           3.7345    3.7196   -0.5264 H       1  LIG1        0.1045
     38 H           2.7344    4.2564    0.7877 H       1  LIG1        0.1290
     39 H           0.7882    4.4966    1.3002 H       1  LIG1        0.1741
     40 H          -0.3196    3.2653    1.9719 H       1  LIG1        0.1849
@<TRIPOS>BOND
     1     1     3   ar
     2     1     4   ar
     3     2     5   ar
     4     2     6   ar
     5     3     9   ar
     6     4    10   ar
     7     5    11   ar
     8     6    12   ar
     9     7     8    1
    10     7    13    1
    11     8    14    1
    12     9    15   ar
    13    10    15   ar
    14    11    16   ar
    15    12    16   ar
    16    13    17    1
    17    14    21    1
    18    15    18    1
    19    16    19    1
    20    17    19    1
    21    17    21    1
    22    18    20    1
    23    18    22    2
    24    20    21    1
    25     1    23    1
    26     2    24    1
    27     3    25    1
    28     4    26    1
    29     5    27    1
    30     6    28    1
    31     7    29    1
    32     8    30    1
    33     9    31    1
    34    10    32    1
    35    11    33    1
    36    12    34    1
    37    13    35    1
    38    14    36    1
    39    19    37    1
    40    19    38    1
    41    20    39    1
    42    20    40    1
