@<TRIPOS>MOLECULE
AG-401/30830061
 46 48 0 0 0
SMALL
USER_CHARGES

@<TRIPOS>ATOM
      1 C           1.7638    4.7874    6.8068 C.ar    1  LIG1       -0.1076
      2 C           1.3586    7.3916   -2.1367 C.ar    1  LIG1       -0.1011
      3 C           0.7350    1.5117   -2.8452 C.ar    1  LIG1       -0.1017
      4 C           1.1881    5.7051    5.9283 C.ar    1  LIG1       -0.1033
      5 C           2.4490    3.6794    6.3079 C.ar    1  LIG1       -0.1045
      6 C           1.3161    7.5625   -0.7530 C.ar    1  LIG1       -0.0982
      7 C           2.0040    6.2823   -2.6830 C.ar    1  LIG1       -0.0969
      8 C          -0.1489    2.2968   -2.1052 C.ar    1  LIG1       -0.0997
      9 C           1.8417    0.9329   -2.2238 C.ar    1  LIG1       -0.0971
     10 C           1.2974    5.5150    4.5508 C.ar    1  LIG1       -0.0905
     11 C           2.5583    3.4894    4.9303 C.ar    1  LIG1       -0.0932
     12 C           1.9192    6.6240    0.0845 C.ar    1  LIG1       -0.0804
     13 C           2.6070    5.3439   -1.8456 C.ar    1  LIG1       -0.0785
     14 C           0.0737    2.5033   -0.7438 C.ar    1  LIG1       -0.0839
     15 C           2.0643    1.1393   -0.8624 C.ar    1  LIG1       -0.0799
     16 C           1.9825    4.4072    4.0518 C.ar    1  LIG1       -0.0808
     17 C           2.5646    5.5147   -0.4618 C.ar    1  LIG1       -0.0020
     18 C           1.1804    1.9246   -0.1224 C.ar    1  LIG1       -0.0102
     19 C           2.0988    4.2049    2.5899 C.2     1  LIG1       -0.0621
     20 C           3.2073    4.5146    0.4307 C.2     1  LIG1        0.0989
     21 C           1.4178    2.1449    1.3295 C.2     1  LIG1        0.0865
     22 C           3.1439    4.7271    1.9068 C.2     1  LIG1       -0.0163
     23 C           4.2493    5.5904    2.4454 C.3     1  LIG1       -0.0265
     24 C           0.9435    3.4508    1.9581 C.3     1  LIG1        0.0626
     25 O           3.7785    3.5306   -0.0273 O.2     1  LIG1       -0.4454
     26 O           1.9744    1.2615    1.9776 O.2     1  LIG1       -0.4522
     27 H           1.6799    4.9360    7.8793 H       1  LIG1        0.1151
     28 H           0.8891    8.1224   -2.7887 H       1  LIG1        0.1261
     29 H           0.5617    1.3510   -3.9052 H       1  LIG1        0.1253
     30 H           0.6556    6.5685    6.3166 H       1  LIG1        0.1159
     31 H           2.8983    2.9654    6.9918 H       1  LIG1        0.1161
     32 H           0.8137    8.4265   -0.3279 H       1  LIG1        0.1197
     33 H           2.0367    6.1490   -3.7603 H       1  LIG1        0.1203
     34 H          -1.0103    2.7477   -2.5892 H       1  LIG1        0.1192
     35 H           2.5298    0.3213   -2.7999 H       1  LIG1        0.1201
     36 H           0.8433    6.2391    3.8785 H       1  LIG1        0.1289
     37 H           3.0955    2.6208    4.5568 H       1  LIG1        0.1216
     38 H           1.8800    6.7670    1.1613 H       1  LIG1        0.1334
     39 H           3.1072    4.4833   -2.2823 H       1  LIG1        0.1365
     40 H          -0.6215    3.1170   -0.1766 H       1  LIG1        0.1298
     41 H           2.9300    0.6835   -0.3888 H       1  LIG1        0.1370
     42 H           5.0861    4.9725    2.7897 H       1  LIG1        0.0610
     43 H           4.6572    6.2774    1.6989 H       1  LIG1        0.0544
     44 H           3.8912    6.1813    3.2942 H       1  LIG1        0.0635
     45 H           0.4643    4.0823    1.2031 H       1  LIG1        0.1124
     46 H           0.1689    3.2064    2.6942 H       1  LIG1        0.1072
@<TRIPOS>BOND
     1     1     4   ar
     2     1     5   ar
     3     2     6   ar
     4     2     7   ar
     5     3     8   ar
     6     3     9   ar
     7     4    10   ar
     8     5    11   ar
     9     6    12   ar
    10     7    13   ar
    11     8    14   ar
    12     9    15   ar
    13    10    16   ar
    14    11    16   ar
    15    12    17   ar
    16    13    17   ar
    17    14    18   ar
    18    15    18   ar
    19    16    19    1
    20    17    20    1
    21    18    21    1
    22    19    22    2
    23    19    24    1
    24    20    22    1
    25    20    25    2
    26    21    24    1
    27    21    26    2
    28    22    23    1
    29     1    27    1
    30     2    28    1
    31     3    29    1
    32     4    30    1
    33     5    31    1
    34     6    32    1
    35     7    33    1
    36     8    34    1
    37     9    35    1
    38    10    36    1
    39    11    37    1
    40    12    38    1
    41    13    39    1
    42    14    40    1
    43    15    41    1
    44    23    42    1
    45    23    43    1
    46    23    44    1
    47    24    45    1
    48    24    46    1
