@<TRIPOS>MOLECULE
AG-690/11629181
 41 42 0 0 0
SMALL
USER_CHARGES

@<TRIPOS>ATOM
      1 C           1.9733    7.5577   -2.3051 C.ar    1  LIG1       -0.1037
      2 C           0.1924    0.7318   -1.8065 C.ar    1  LIG1       -0.1036
      3 C           0.8568    6.9388   -1.7430 C.ar    1  LIG1       -0.1061
      4 C           3.2426    7.0108   -2.1169 C.ar    1  LIG1       -0.0980
      5 C           1.5199    0.9490   -2.1750 C.ar    1  LIG1       -0.1052
      6 C          -0.4084    1.5491   -0.8489 C.ar    1  LIG1       -0.1011
      7 C           1.0096    5.7730   -0.9925 C.ar    1  LIG1       -0.0979
      8 C           3.3954    5.8450   -1.3664 C.ar    1  LIG1       -0.0860
      9 C           2.2469    1.9835   -1.5860 C.ar    1  LIG1       -0.1011
     10 C           0.3186    2.5836   -0.2599 C.ar    1  LIG1       -0.0946
     11 C           2.2790    5.2261   -0.8042 C.ar    1  LIG1       -0.0713
     12 C           1.6463    2.8008   -0.6284 C.ar    1  LIG1       -0.0791
     13 C           0.9794    5.6586    3.8054 C.3     1  LIG1       -0.0915
     14 C           2.5395    3.8189    4.4239 C.3     1  LIG1       -0.0923
     15 C           2.0647    4.0627    1.5306 C.3     1  LIG1       -0.0341
     16 C           2.8887    5.0896    2.3111 C.3     1  LIG1       -0.0955
     17 C           2.4480    3.9425    0.0223 C.3     1  LIG1        0.0075
     18 N           2.3927    5.1398    3.7101 N.4     1  LIG1        0.4080
     19 O           3.8423    3.5746    0.0398 O.3     1  LIG1       -0.4652
     20 H           1.8539    8.4647   -2.8906 H       1  LIG1        0.1215
     21 H          -0.3740   -0.0729   -2.2663 H       1  LIG1        0.1217
     22 H          -0.1318    7.3639   -1.8903 H       1  LIG1        0.1181
     23 H           4.1118    7.4919   -2.5553 H       1  LIG1        0.1226
     24 H           1.9876    0.3135   -2.9214 H       1  LIG1        0.1184
     25 H          -1.4423    1.3809   -0.5626 H       1  LIG1        0.1215
     26 H           0.1340    5.2977   -0.5580 H       1  LIG1        0.1101
     27 H           4.3882    5.4262   -1.2249 H       1  LIG1        0.1318
     28 H           3.2809    2.1452   -1.8792 H       1  LIG1        0.1123
     29 H          -0.1576    3.2152    0.4853 H       1  LIG1        0.1264
     30 H           0.3322    4.9656    3.2648 H       1  LIG1        0.0808
     31 H           0.7106    5.7035    4.8625 H       1  LIG1        0.0795
     32 H           0.9567    6.6514    3.3520 H       1  LIG1        0.0790
     33 H           1.9271    3.0848    3.8971 H       1  LIG1        0.0794
     34 H           3.5948    3.5407    4.3984 H       1  LIG1        0.0782
     35 H           2.1938    3.9538    5.4506 H       1  LIG1        0.0777
     36 H           2.2288    3.0850    2.0080 H       1  LIG1        0.0754
     37 H           0.9978    4.2796    1.6595 H       1  LIG1        0.0731
     38 H           2.7926    6.1022    1.9125 H       1  LIG1        0.0933
     39 H           3.9456    4.8161    2.3702 H       1  LIG1        0.0912
     40 H           2.9813    5.8132    4.2290 H       1  LIG1        0.1600
     41 H           4.0857    3.4364   -0.8838 H       1  LIG1        0.3387
@<TRIPOS>BOND
     1     1     3   ar
     2     1     4   ar
     3     2     5   ar
     4     2     6   ar
     5     3     7   ar
     6     4     8   ar
     7     5     9   ar
     8     6    10   ar
     9     7    11   ar
    10     8    11   ar
    11     9    12   ar
    12    10    12   ar
    13    11    17    1
    14    12    17    1
    15    13    18    1
    16    14    18    1
    17    15    16    1
    18    15    17    1
    19    16    18    1
    20    17    19    1
    21     1    20    1
    22     2    21    1
    23     3    22    1
    24     4    23    1
    25     5    24    1
    26     6    25    1
    27     7    26    1
    28     8    27    1
    29     9    28    1
    30    10    29    1
    31    13    30    1
    32    13    31    1
    33    13    32    1
    34    14    33    1
    35    14    34    1
    36    14    35    1
    37    15    36    1
    38    15    37    1
    39    16    38    1
    40    16    39    1
    41    18    40    1
    42    19    41    1
