@<TRIPOS>MOLECULE
AP-124/40765291
 38 41 0 0 0
SMALL
USER_CHARGES

@<TRIPOS>ATOM
      1 C           0.7301    0.4969   -1.8020 C.ar    1  LIG1       -0.0956
      2 C           2.5570    7.4988   -2.3670 C.ar    1  LIG1       -0.1061
      3 C           2.0540    4.4966    6.4670 C.ar    1  LIG1       -0.0754
      4 C           0.8026    4.8210    5.9419 C.ar    1  LIG1       -0.0763
      5 C           1.1455    1.5919   -2.5595 C.ar    1  LIG1       -0.0866
      6 C           0.5009    0.6420   -0.4337 C.ar    1  LIG1       -0.0899
      7 C           1.1962    7.2479   -2.1919 C.ar    1  LIG1       -0.0982
      8 C           3.5022    6.6824   -1.7459 C.ar    1  LIG1       -0.0995
      9 C           3.1094    4.1224    5.6284 C.ar    1  LIG1       -0.0421
     10 C           0.5616    4.7842    4.5638 C.ar    1  LIG1       -0.0438
     11 C           1.3317    2.8321   -1.9489 C.ar    1  LIG1       -0.0585
     12 C           0.6871    1.8822    0.1770 C.ar    1  LIG1       -0.0617
     13 C           0.7804    6.1807   -1.3958 C.ar    1  LIG1       -0.0657
     14 C           3.0866    5.6150   -0.9498 C.ar    1  LIG1       -0.0615
     15 C           2.8811    4.0832    4.2443 C.ar    1  LIG1        0.0610
     16 C           1.6285    4.4125    3.7381 C.ar    1  LIG1        0.0463
     17 C           1.1025    2.9772   -0.5806 C.ar    1  LIG1       -0.0136
     18 C           1.7257    5.3642   -0.7747 C.ar    1  LIG1       -0.0200
     19 C           0.8434    4.5353    1.3537 C.2     1  LIG1        0.2487
     20 N           3.7194    3.7606    3.2183 N.ar    1  LIG1       -0.2090
     21 N           3.0469    3.8842    2.0836 N.ar    1  LIG1       -0.1424
     22 N           1.7721    4.2510    2.3691 N.ar    1  LIG1       -0.1347
     23 N           1.2948    4.2585    0.0500 N.am    1  LIG1       -0.2398
     24 O          -0.2170    5.0555    1.6779 O.2     1  LIG1       -0.4117
     25 H           0.5842   -0.4688   -2.2773 H       1  LIG1        0.1258
     26 H           2.8810    8.3293   -2.9875 H       1  LIG1        0.1135
     27 H           2.2116    4.5333    7.5418 H       1  LIG1        0.1362
     28 H          -0.0020    5.1056    6.6154 H       1  LIG1        0.1481
     29 H           1.3231    1.4795   -3.6250 H       1  LIG1        0.1269
     30 H           0.1765   -0.2107    0.1557 H       1  LIG1        0.1254
     31 H           0.4599    7.8827   -2.6759 H       1  LIG1        0.1243
     32 H           4.5618    6.8774   -1.8833 H       1  LIG1        0.1232
     33 H           4.0797    3.8704    6.0439 H       1  LIG1        0.1607
     34 H          -0.4185    5.0325    4.1746 H       1  LIG1        0.1494
     35 H           1.6554    3.6784   -2.5495 H       1  LIG1        0.1310
     36 H           0.5053    1.9835    1.2440 H       1  LIG1        0.1304
     37 H          -0.2829    5.9946   -1.2666 H       1  LIG1        0.1257
     38 H           3.8323    4.9855   -0.4707 H       1  LIG1        0.1555
@<TRIPOS>BOND
     1     1     5   ar
     2     1     6   ar
     3     2     7   ar
     4     2     8   ar
     5     3     4   ar
     6     3     9   ar
     7     4    10   ar
     8     5    11   ar
     9     6    12   ar
    10     7    13   ar
    11     8    14   ar
    12     9    15   ar
    13    10    16   ar
    14    11    17   ar
    15    12    17   ar
    16    13    18   ar
    17    14    18   ar
    18    15    16   ar
    19    15    20   ar
    20    16    22   ar
    21    17    23    1
    22    18    23    1
    23    19    22   am
    24    19    23   am
    25    19    24    2
    26    20    21   ar
    27    21    22   ar
    28     1    25    1
    29     2    26    1
    30     3    27    1
    31     4    28    1
    32     5    29    1
    33     6    30    1
    34     7    31    1
    35     8    32    1
    36     9    33    1
    37    10    34    1
    38    11    35    1
    39    12    36    1
    40    13    37    1
    41    14    38    1
