@<TRIPOS>MOLECULE
AG-664/01339030
 26 27 0 0 0
SMALL
USER_CHARGES

@<TRIPOS>ATOM
      1 C           0.1122    0.5624   -1.8587 C.ar    1  LIG1       -0.0953
      2 C           2.0283    7.7135   -2.3456 C.ar    1  LIG1       -0.0953
      3 C           1.4571    0.7704   -2.1646 C.ar    1  LIG1       -0.0926
      4 C          -0.5272    1.3845   -0.9307 C.ar    1  LIG1       -0.0933
      5 C           1.0929    7.4405   -1.3475 C.ar    1  LIG1       -0.0933
      6 C           3.0790    6.8260   -2.5784 C.ar    1  LIG1       -0.0926
      7 C           2.1627    1.8003   -1.5425 C.ar    1  LIG1       -0.0274
      8 C           0.1784    2.4143   -0.3086 C.ar    1  LIG1       -0.0291
      9 C           1.2081    6.2799   -0.5823 C.ar    1  LIG1       -0.0291
     10 C           3.1942    5.6656   -1.8132 C.ar    1  LIG1       -0.0274
     11 C           1.5233    2.6223   -0.6144 C.ar    1  LIG1        0.1887
     12 C           2.2589    5.3924   -0.8151 C.ar    1  LIG1        0.1887
     13 N           3.9264    3.5874    0.0847 N.2     1  LIG1       -0.3131
     14 O           1.6882    4.1656    1.4105 O.2     1  LIG1       -0.1959
     15 S           2.4079    3.9093    0.1665 S.3     1  LIG1       -0.3666
     16 H          -0.4376   -0.2398   -2.3423 H       1  LIG1        0.1341
     17 H           1.9395    8.6173   -2.9413 H       1  LIG1        0.1341
     18 H           1.9556    0.1299   -2.8863 H       1  LIG1        0.1245
     19 H          -1.5741    1.2218   -0.6923 H       1  LIG1        0.1244
     20 H           0.2753    8.1316   -1.1652 H       1  LIG1        0.1244
     21 H           3.8075    7.0394   -3.3549 H       1  LIG1        0.1244
     22 H           3.2104    1.9530   -1.7875 H       1  LIG1        0.1407
     23 H          -0.3292    3.0479    0.4137 H       1  LIG1        0.1353
     24 H           0.4744    6.0772    0.1933 H       1  LIG1        0.1353
     25 H           4.0174    4.9819   -2.0022 H       1  LIG1        0.1407
     26 H           4.5434    4.2823    0.5154 H       1  LIG1        0.2560
@<TRIPOS>BOND
     1     1     3   ar
     2     1     4   ar
     3     2     5   ar
     4     2     6   ar
     5     3     7   ar
     6     4     8   ar
     7     5     9   ar
     8     6    10   ar
     9     7    11   ar
    10     8    11   ar
    11     9    12   ar
    12    10    12   ar
    13    11    15    1
    14    12    15    1
    15    13    15    2
    16    14    15    2
    17     1    16    1
    18     2    17    1
    19     3    18    1
    20     4    19    1
    21     5    20    1
    22     6    21    1
    23     7    22    1
    24     8    23    1
    25     9    24    1
    26    10    25    1
    27    13    26    1
