@<TRIPOS>MOLECULE
AE-848/36047058
 38 41 0 0 0
SMALL
USER_CHARGES

@<TRIPOS>ATOM
      1 C           1.3238    0.6794   -1.7108 C.ar    1  LIG1       -0.1066
      2 C           2.2972    1.5340   -1.1934 C.ar    1  LIG1       -0.1043
      3 C          -0.0281    0.9697   -1.5273 C.ar    1  LIG1       -0.1048
      4 C           3.4875    6.3599   -2.2163 C.ar    1  LIG1       -0.0903
      5 C           2.6300    7.1503   -2.9816 C.ar    1  LIG1       -0.0948
      6 C           1.6619    4.1754    6.1284 C.ar    1  LIG1       -0.1055
      7 C           1.9187    2.6789   -0.4924 C.ar    1  LIG1       -0.0966
      8 C          -0.4066    2.1146   -0.8263 C.ar    1  LIG1       -0.0971
      9 C           3.0076    5.7087   -1.0799 C.ar    1  LIG1       -0.0471
     10 C           1.2927    7.2895   -2.6105 C.ar    1  LIG1       -0.0642
     11 C           0.8793    4.2556    4.9404 C.ar    1  LIG1       -0.0864
     12 C           3.0083    4.3118    5.8712 C.ar    1  LIG1       -0.0453
     13 C           0.5667    2.9693   -0.3088 C.ar    1  LIG1       -0.0810
     14 C           1.6702    5.8479   -0.7088 C.ar    1  LIG1        0.0044
     15 C           0.8128    6.6383   -1.4741 C.ar    1  LIG1        0.0338
     16 C           1.6576    4.4507    3.8205 C.ar    1  LIG1        0.0071
     17 C           1.2521    4.5812    2.4670 C.2     1  LIG1        0.0217
     18 C           0.0168    3.9022    1.9380 C.3     1  LIG1        0.0332
     19 C           0.1613    4.1933    0.4408 C.3     1  LIG1        0.0221
     20 N           1.8869    5.3082    1.6000 N.2     1  LIG1       -0.3110
     21 N           1.2278    5.1964    0.4122 N.pl3   1  LIG1       -0.3161
     22 S           3.3244    4.5358    4.2033 S.2     1  LIG1       -0.1160
     23 CL         -0.8501    6.8379   -1.0505 Cl      1  LIG1       -0.1250
     24 H           1.6188   -0.2114   -2.2578 H       1  LIG1        0.1172
     25 H           3.3500    1.3087   -1.3371 H       1  LIG1        0.1178
     26 H          -0.7861    0.3051   -1.9310 H       1  LIG1        0.1161
     27 H           4.5288    6.2517   -2.5054 H       1  LIG1        0.1273
     28 H           3.0039    7.6573   -3.8663 H       1  LIG1        0.1254
     29 H           1.2578    4.0239    7.1209 H       1  LIG1        0.1153
     30 H           2.6840    3.3391   -0.0926 H       1  LIG1        0.1207
     31 H          -1.4623    2.3328   -0.6881 H       1  LIG1        0.1184
     32 H           3.6858    5.0956   -0.4918 H       1  LIG1        0.1426
     33 H           0.6376    7.9092   -3.2178 H       1  LIG1        0.1355
     34 H          -0.2001    4.1741    4.9145 H       1  LIG1        0.1279
     35 H           3.8213    4.2897    6.5833 H       1  LIG1        0.1673
     36 H          -0.0062    2.8404    2.1993 H       1  LIG1        0.1006
     37 H          -0.8599    4.4048    2.3606 H       1  LIG1        0.1008
     38 H          -0.7734    4.5839    0.0227 H       1  LIG1        0.1366
@<TRIPOS>BOND
     1     1     2   ar
     2     1     3   ar
     3     2     7   ar
     4     3     8   ar
     5     4     5   ar
     6     4     9   ar
     7     5    10   ar
     8     6    11   ar
     9     6    12   ar
    10     7    13   ar
    11     8    13   ar
    12     9    14   ar
    13    10    15   ar
    14    11    16   ar
    15    12    22   ar
    16    13    19    1
    17    14    15   ar
    18    14    21    1
    19    15    23    1
    20    16    17    1
    21    16    22   ar
    22    17    18    1
    23    17    20    2
    24    18    19    1
    25    19    21    1
    26    20    21    1
    27     1    24    1
    28     2    25    1
    29     3    26    1
    30     4    27    1
    31     5    28    1
    32     6    29    1
    33     7    30    1
    34     8    31    1
    35     9    32    1
    36    10    33    1
    37    11    34    1
    38    12    35    1
    39    18    36    1
    40    18    37    1
    41    19    38    1
