@<TRIPOS>MOLECULE
AG-777/36178026
 40 42 0 0 0
SMALL
USER_CHARGES

@<TRIPOS>ATOM
      1 C           0.1917    0.6765   -1.7971 C.ar    1  LIG1       -0.1020
      2 C           2.0543    7.5848   -2.2582 C.ar    1  LIG1       -0.1053
      3 C          -0.4721    1.8330   -1.3876 C.ar    1  LIG1       -0.1137
      4 C           1.5714    0.5659   -1.6238 C.ar    1  LIG1       -0.1131
      5 C           1.1353    7.2966   -1.2493 C.ar    1  LIG1       -0.1131
      6 C           3.0808    6.6846   -2.5444 C.ar    1  LIG1       -0.1029
      7 C           0.2438    2.8787   -0.8050 C.ar    1  LIG1       -0.1131
      8 C           2.2873    1.6116   -1.0411 C.ar    1  LIG1       -0.0922
      9 C           1.2427    6.1084   -0.5265 C.ar    1  LIG1       -0.1646
     10 C           3.1882    5.4964   -1.8218 C.ar    1  LIG1       -0.0816
     11 C           4.2331    5.5251    4.0385 C.ar    1  LIG1        0.0253
     12 C           4.5331    6.2979    2.9523 C.ar    1  LIG1        0.0030
     13 C           1.6235    2.7681   -0.6317 C.ar    1  LIG1       -0.1313
     14 C           2.2692    5.2083   -0.8128 C.ar    1  LIG1       -0.0819
     15 C           2.9961    4.8270    2.3406 C.ar    1  LIG1        0.3185
     16 C           2.6739    3.6119    4.4747 C.3     1  LIG1        0.0523
     17 C           2.0076    4.0597    1.4991 C.3     1  LIG1       -0.1047
     18 C           2.3895    3.8861   -0.0089 C.3     1  LIG1        0.2357
     19 N           3.2791    4.6239    3.6314 N.ar    1  LIG1       -0.3979
     20 N           3.7535    5.8437    1.9161 N.ar    1  LIG1       -0.4737
     21 O           3.8183    3.6140    0.0176 O.3     1  LIG1       -0.5408
     22 H          -0.3660   -0.1382   -2.2495 H       1  LIG1        0.1300
     23 H           1.9697    8.5094   -2.8216 H       1  LIG1        0.1336
     24 H          -1.5464    1.9188   -1.5215 H       1  LIG1        0.1297
     25 H           2.0883   -0.3348   -1.9414 H       1  LIG1        0.1305
     26 H           0.3354    7.9968   -1.0269 H       1  LIG1        0.1344
     27 H           3.7958    6.9082   -3.3306 H       1  LIG1        0.1336
     28 H          -0.2818    3.7761   -0.4891 H       1  LIG1        0.1203
     29 H           3.3619    1.5166   -0.9102 H       1  LIG1        0.1312
     30 H           0.5223    5.8923    0.2579 H       1  LIG1        0.1187
     31 H           3.9913    4.8012   -2.0518 H       1  LIG1        0.1354
     32 H           4.5660    5.4883    5.0579 H       1  LIG1        0.2244
     33 H           5.1945    7.1172    2.7535 H       1  LIG1        0.2237
     34 H           1.7851    4.0472    4.9390 H       1  LIG1        0.1148
     35 H           2.4015    2.7455    3.8654 H       1  LIG1        0.1199
     36 H           3.3923    3.3011    5.2384 H       1  LIG1        0.1093
     37 H           1.0675    4.6116    1.6285 H       1  LIG1        0.1292
     38 H           1.8896    3.0906    1.9989 H       1  LIG1        0.1333
     39 H           3.7522    6.2223    0.9729 H       1  LIG1        0.4577
     40 H           4.2091    4.3881    0.4334 H       1  LIG1        0.3875
@<TRIPOS>BOND
     1     1     3   ar
     2     1     4   ar
     3     2     5   ar
     4     2     6   ar
     5     3     7   ar
     6     4     8   ar
     7     5     9   ar
     8     6    10   ar
     9     7    13   ar
    10     8    13   ar
    11     9    14   ar
    12    10    14   ar
    13    11    12   ar
    14    11    19   ar
    15    12    20   ar
    16    13    18    1
    17    14    18    1
    18    15    17    1
    19    15    19   ar
    20    15    20   ar
    21    16    19    1
    22    17    18    1
    23    18    21    1
    24     1    22    1
    25     2    23    1
    26     3    24    1
    27     4    25    1
    28     5    26    1
    29     6    27    1
    30     7    28    1
    31     8    29    1
    32     9    30    1
    33    10    31    1
    34    11    32    1
    35    12    33    1
    36    16    34    1
    37    16    35    1
    38    16    36    1
    39    17    37    1
    40    17    38    1
    41    20    39    1
    42    21    40    1
