@<TRIPOS>MOLECULE
AO-080/43378349
 44 46 0 0 0
SMALL
USER_CHARGES

@<TRIPOS>ATOM
      1 C           0.9764    0.4416   -1.9189 C.ar    1  LIG1       -0.1060
      2 C           2.8084    7.4089   -2.0696 C.ar    1  LIG1       -0.1081
      3 C           2.0592    1.3191   -1.9714 C.ar    1  LIG1       -0.1049
      4 C          -0.1840    0.8059   -1.2359 C.ar    1  LIG1       -0.1028
      5 C           1.4969    7.0858   -2.4175 C.ar    1  LIG1       -0.1060
      6 C           3.4486    6.7155   -1.0424 C.ar    1  LIG1       -0.1044
      7 C           1.1126    4.7935    6.1642 C.ar    1  LIG1       -0.0657
      8 C           3.1803    4.1054    5.1211 C.ar    1  LIG1       -0.0737
      9 C           0.5422    4.9868    4.9061 C.ar    1  LIG1       -0.0540
     10 C           2.6099    4.2986    3.8630 C.ar    1  LIG1       -0.0647
     11 C           1.9819    2.5609   -1.3407 C.ar    1  LIG1       -0.0954
     12 C          -0.2614    2.0476   -0.6051 C.ar    1  LIG1       -0.0918
     13 C           0.8254    6.0693   -1.7381 C.ar    1  LIG1       -0.0949
     14 C           2.7771    5.6990   -0.3630 C.ar    1  LIG1       -0.0926
     15 C           2.4317    4.3529    6.2718 C.ar    1  LIG1       -0.0091
     16 C           1.2908    4.7393    3.7554 C.ar    1  LIG1        0.0284
     17 C           0.8216    2.9251   -0.6576 C.ar    1  LIG1       -0.0740
     18 C           1.4655    5.3759   -0.7109 C.ar    1  LIG1       -0.0731
     19 C           3.0261    4.1511    7.5834 C.2     1  LIG1        0.0697
     20 C           0.6957    4.9390    2.4440 C.2     1  LIG1        0.1112
     21 C           2.5336    5.0144    8.7085 C.3     1  LIG1        0.0335
     22 C           0.7370    4.2725    0.0274 C.3     1  LIG1        0.0145
     23 N           1.2068    4.1719    1.3904 N.am    1  LIG1       -0.3263
     24 O           3.9073    3.3281    7.8409 O.2     1  LIG1       -0.4649
     25 O          -0.2120    5.7742    2.2827 O.2     1  LIG1       -0.4722
     26 H           1.0362   -0.5247   -2.4112 H       1  LIG1        0.1168
     27 H           3.3316    8.1994   -2.5996 H       1  LIG1        0.1143
     28 H           2.9625    1.0362   -2.5041 H       1  LIG1        0.1176
     29 H          -1.0278    0.1233   -1.1957 H       1  LIG1        0.1191
     30 H           0.9987    7.6248   -3.2180 H       1  LIG1        0.1140
     31 H           4.4700    6.9660   -0.7721 H       1  LIG1        0.1164
     32 H           0.5199    4.9888    7.0544 H       1  LIG1        0.1454
     33 H           4.2088    3.7608    5.1929 H       1  LIG1        0.1404
     34 H          -0.4868    5.3298    4.8341 H       1  LIG1        0.1488
     35 H           3.2024    4.1021    2.9730 H       1  LIG1        0.1301
     36 H           2.8307    3.2382   -1.3867 H       1  LIG1        0.1141
     37 H          -1.1694    2.3228   -0.0752 H       1  LIG1        0.1226
     38 H          -0.1964    5.8245   -2.0159 H       1  LIG1        0.1143
     39 H           3.2837    5.1643    0.4361 H       1  LIG1        0.1208
     40 H           1.6800    4.5875    9.2584 H       1  LIG1        0.0674
     41 H           2.2445    6.0259    8.3835 H       1  LIG1        0.0823
     42 H           3.2930    5.1833    9.4927 H       1  LIG1        0.0839
     43 H          -0.3173    4.5638    0.1214 H       1  LIG1        0.1565
     44 H           1.9902    3.5508    1.5639 H       1  LIG1        0.3026
@<TRIPOS>BOND
     1     1     3   ar
     2     1     4   ar
     3     2     5   ar
     4     2     6   ar
     5     3    11   ar
     6     4    12   ar
     7     5    13   ar
     8     6    14   ar
     9     7     9   ar
    10     7    15   ar
    11     8    10   ar
    12     8    15   ar
    13     9    16   ar
    14    10    16   ar
    15    11    17   ar
    16    12    17   ar
    17    13    18   ar
    18    14    18   ar
    19    15    19    1
    20    16    20    1
    21    17    22    1
    22    18    22    1
    23    19    21    1
    24    19    24    2
    25    20    23   am
    26    20    25    2
    27    22    23    1
    28     1    26    1
    29     2    27    1
    30     3    28    1
    31     4    29    1
    32     5    30    1
    33     6    31    1
    34     7    32    1
    35     8    33    1
    36     9    34    1
    37    10    35    1
    38    11    36    1
    39    12    37    1
    40    13    38    1
    41    14    39    1
    42    21    40    1
    43    21    41    1
    44    21    42    1
    45    22    43    1
    46    23    44    1
