@<TRIPOS>MOLECULE
AG-690/32530043
 41 44 0 0 0
SMALL
USER_CHARGES

@<TRIPOS>ATOM
      1 C           2.9211    6.3053   -2.9883 C.ar    1  LIG1       -0.0853
      2 C           2.9093    3.6006    4.7219 C.ar    1  LIG1       -0.0647
      3 C           0.9748    4.9878    4.3096 C.ar    1  LIG1       -0.0626
      4 C           2.0366    2.3068   -1.7409 C.ar    1  LIG1       -0.0832
      5 C           0.8117    2.1229    0.3335 C.ar    1  LIG1       -0.0840
      6 C           3.0985    5.4746   -1.8820 C.ar    1  LIG1       -0.0498
      7 C           1.9720    7.3268   -2.9484 C.ar    1  LIG1       -0.0523
      8 C           1.0767    1.5202   -2.3775 C.ar    1  LIG1       -0.0460
      9 C          -0.1484    1.3362   -0.3032 C.ar    1  LIG1       -0.0471
     10 C           2.6325    3.6208    6.0888 C.ar    1  LIG1       -0.0734
     11 C           0.6979    5.0080    5.6766 C.ar    1  LIG1       -0.0722
     12 C           1.3777    6.6868   -0.6959 C.ar    1  LIG1       -0.0064
     13 C           2.0805    4.2841    3.8322 C.ar    1  LIG1       -0.0276
     14 C           1.9041    2.6081   -0.3854 C.ar    1  LIG1       -0.0753
     15 C           2.3268    5.6653   -0.7357 C.ar    1  LIG1       -0.0156
     16 C          -0.0158    1.0349   -1.6587 C.ar    1  LIG1        0.0630
     17 C           1.2004    7.5175   -1.8023 C.ar    1  LIG1        0.0669
     18 C           1.5268    4.3245    6.5662 C.ar    1  LIG1       -0.0380
     19 C           2.3691    4.2631    2.4071 C.2     1  LIG1        0.0139
     20 C           3.0528    3.0804    1.7776 C.3     1  LIG1        0.0318
     21 C           2.9316    3.4513    0.2971 C.3     1  LIG1        0.0234
     22 N           2.0966    5.2346    1.5940 N.2     1  LIG1       -0.3188
     23 N           2.5003    4.8489    0.3506 N.pl3   1  LIG1       -0.3186
     24 F          -0.9391    0.2817   -2.2706 F       1  LIG1       -0.2677
     25 F           0.2901    8.4995   -1.7635 F       1  LIG1       -0.2637
     26 BR          1.1518    4.3518    8.4183 Br      1  LIG1       -0.1079
     27 H           3.5225    6.1574   -3.8807 H       1  LIG1        0.1388
     28 H           3.7736    3.0490    4.3608 H       1  LIG1        0.1409
     29 H           0.3222    5.5239    3.6252 H       1  LIG1        0.1453
     30 H           2.8847    2.6797   -2.3090 H       1  LIG1        0.1319
     31 H           0.7000    2.3528    1.3898 H       1  LIG1        0.1358
     32 H           3.8404    4.6814   -1.9241 H       1  LIG1        0.1315
     33 H           1.8342    7.9738   -3.8096 H       1  LIG1        0.1206
     34 H           1.1793    1.2860   -3.4328 H       1  LIG1        0.1318
     35 H          -0.9987    0.9579    0.2562 H       1  LIG1        0.1333
     36 H           3.2884    3.0830    6.7687 H       1  LIG1        0.1386
     37 H          -0.1676    5.5611    6.0321 H       1  LIG1        0.1383
     38 H           0.7704    6.8444    0.1917 H       1  LIG1        0.1299
     39 H           4.0998    3.0766    2.0992 H       1  LIG1        0.1019
     40 H           2.5747    2.1373    2.0563 H       1  LIG1        0.1029
     41 H           3.8909    3.3416   -0.2196 H       1  LIG1        0.1398
@<TRIPOS>BOND
     1     1     6   ar
     2     1     7   ar
     3     2    10   ar
     4     2    13   ar
     5     3    11   ar
     6     3    13   ar
     7     4     8   ar
     8     4    14   ar
     9     5     9   ar
    10     5    14   ar
    11     6    15   ar
    12     7    17   ar
    13     8    16   ar
    14     9    16   ar
    15    10    18   ar
    16    11    18   ar
    17    12    15   ar
    18    12    17   ar
    19    13    19    1
    20    14    21    1
    21    15    23    1
    22    16    24    1
    23    17    25    1
    24    18    26    1
    25    19    20    1
    26    19    22    2
    27    20    21    1
    28    21    23    1
    29    22    23    1
    30     1    27    1
    31     2    28    1
    32     3    29    1
    33     4    30    1
    34     5    31    1
    35     6    32    1
    36     7    33    1
    37     8    34    1
    38     9    35    1
    39    10    36    1
    40    11    37    1
    41    12    38    1
    42    20    39    1
    43    20    40    1
    44    21    41    1
