@<TRIPOS>MOLECULE
AG-690/11636601
 45 47 0 0 0
SMALL
USER_CHARGES

@<TRIPOS>ATOM
      1 C           2.1326    7.7323   -2.2310 C.ar    1  LIG1       -0.1066
      2 C           0.3011    0.5149   -1.6678 C.ar    1  LIG1       -0.1076
      3 C           1.4768    6.6063   -2.7287 C.ar    1  LIG1       -0.1039
      4 C           2.8582    7.6486   -1.0427 C.ar    1  LIG1       -0.1049
      5 C          -0.4259    1.6609   -1.3459 C.ar    1  LIG1       -0.1043
      6 C           1.6844    0.4935   -1.4897 C.ar    1  LIG1       -0.1025
      7 C           1.5466    5.3965   -2.0378 C.ar    1  LIG1       -0.0909
      8 C           2.9280    6.4387   -0.3519 C.ar    1  LIG1       -0.0923
      9 C           0.2304    2.7856   -0.8460 C.ar    1  LIG1       -0.0865
     10 C           2.3407    1.6182   -0.9898 C.ar    1  LIG1       -0.0828
     11 C           0.5479    4.7978    1.6924 C.ar    1  LIG1       -0.0371
     12 C           2.2723    5.3127   -0.8495 C.ar    1  LIG1       -0.0563
     13 C           1.6138    2.7642   -0.6679 C.ar    1  LIG1       -0.0475
     14 C           1.7780    4.3337    1.2900 C.ar    1  LIG1       -0.0153
     15 C           1.6748    4.5487    3.4808 C.ar    1  LIG1       -0.0192
     16 C           1.8846    3.1315    5.5547 C.3     1  LIG1       -0.0445
     17 C           1.4778    5.6111    5.7583 C.3     1  LIG1       -0.0445
     18 C           3.8519    3.7103    2.5549 C.3     1  LIG1       -0.0028
     19 C           2.1206    4.5064    4.8886 C.3     1  LIG1       -0.0042
     20 C           2.3471    4.0195   -0.1103 C.3     1  LIG1        0.0539
     21 N           0.4901    4.9298    3.0572 N.ar    1  LIG1       -0.3972
     22 N           2.4891    4.1793    2.4466 N.ar    1  LIG1       -0.3561
     23 O           3.7278    3.5707   -0.0242 O.3     1  LIG1       -0.4482
     24 H           2.0793    8.6740   -2.7697 H       1  LIG1        0.1166
     25 H          -0.2103   -0.3613   -2.0557 H       1  LIG1        0.1156
     26 H           0.9126    6.6711   -3.6544 H       1  LIG1        0.1185
     27 H           3.3699    8.5248   -0.6556 H       1  LIG1        0.1169
     28 H          -1.5030    1.6774   -1.4835 H       1  LIG1        0.1171
     29 H           2.2507   -0.3990   -1.7392 H       1  LIG1        0.1155
     30 H           1.0324    4.5243   -2.4329 H       1  LIG1        0.1225
     31 H           3.4956    6.3829    0.5732 H       1  LIG1        0.1192
     32 H          -0.3441    3.6742   -0.5981 H       1  LIG1        0.1231
     33 H           3.4188    1.5924   -0.8545 H       1  LIG1        0.1307
     34 H          -0.3007    5.0445    1.0705 H       1  LIG1        0.1826
     35 H           0.8237    2.8588    5.5429 H       1  LIG1        0.0492
     36 H           2.2192    3.1193    6.5978 H       1  LIG1        0.0374
     37 H           2.4356    2.3520    5.0168 H       1  LIG1        0.0460
     38 H           0.3865    5.5122    5.7481 H       1  LIG1        0.0459
     39 H           1.7268    6.6143    5.3954 H       1  LIG1        0.0376
     40 H           1.8097    5.5430    6.8000 H       1  LIG1        0.0491
     41 H           4.5129    4.5792    2.4999 H       1  LIG1        0.0983
     42 H           3.9831    3.1898    3.5077 H       1  LIG1        0.1237
     43 H           4.0615    3.0165    1.7360 H       1  LIG1        0.1060
     44 H           3.2164    4.6809    4.9554 H       1  LIG1        0.0929
     45 H           4.0122    3.4701   -0.9374 H       1  LIG1        0.3366
@<TRIPOS>BOND
     1     1     3   ar
     2     1     4   ar
     3     2     5   ar
     4     2     6   ar
     5     3     7   ar
     6     4     8   ar
     7     5     9   ar
     8     6    10   ar
     9     7    12   ar
    10     8    12   ar
    11     9    13   ar
    12    10    13   ar
    13    11    14   ar
    14    11    21   ar
    15    12    20    1
    16    13    20    1
    17    14    20    1
    18    14    22   ar
    19    15    19    1
    20    15    21   ar
    21    15    22   ar
    22    16    19    1
    23    17    19    1
    24    18    22    1
    25    20    23    1
    26     1    24    1
    27     2    25    1
    28     3    26    1
    29     4    27    1
    30     5    28    1
    31     6    29    1
    32     7    30    1
    33     8    31    1
    34     9    32    1
    35    10    33    1
    36    11    34    1
    37    16    35    1
    38    16    36    1
    39    16    37    1
    40    17    38    1
    41    17    39    1
    42    17    40    1
    43    18    41    1
    44    18    42    1
    45    18    43    1
    46    19    44    1
    47    23    45    1
