@<TRIPOS>MOLECULE
AF-399/41341340
 52 55 0 0 0
SMALL
USER_CHARGES

@<TRIPOS>ATOM
      1 C           0.6605    0.3197   -1.7280 C.ar    1  LIG1       -0.1039
      2 C           2.5905    7.6920   -2.1376 C.ar    1  LIG1       -0.1091
      3 C           1.9242    0.9026   -1.8222 C.ar    1  LIG1       -0.0967
      4 C          -0.3848    1.0149   -1.1200 C.ar    1  LIG1       -0.0948
      5 C           3.4051    6.5597   -2.1366 C.ar    1  LIG1       -0.1014
      6 C           1.3558    7.6634   -1.4894 C.ar    1  LIG1       -0.1008
      7 C           2.1425    2.1809   -1.3083 C.ar    1  LIG1       -0.0616
      8 C          -0.1664    2.2932   -0.6062 C.ar    1  LIG1       -0.0584
      9 C           2.9849    5.3988   -1.4875 C.ar    1  LIG1       -0.0622
     10 C           0.9356    6.5025   -0.8402 C.ar    1  LIG1       -0.0621
     11 C           1.0973    2.8762   -0.7003 C.ar    1  LIG1       -0.0250
     12 C           1.7501    5.3703   -0.8392 C.ar    1  LIG1       -0.0271
     13 C           1.1487    3.3031    4.0507 C.2     1  LIG1       -0.1155
     14 C           0.7905    2.0994    3.5859 C.2     1  LIG1       -0.1241
     15 C           2.3944    4.0950    1.9628 C.2     1  LIG1        0.1197
     16 C           2.9563    5.0520    5.5482 C.3     1  LIG1       -0.0607
     17 C           3.4109    4.2761    4.2975 C.3     1  LIG1       -0.0360
     18 C           1.5041    5.6109    3.7811 C.3     1  LIG1       -0.0298
     19 C           1.4525    5.2971    5.2819 C.3     1  LIG1       -0.0585
     20 C           2.1429    4.2669    3.4268 C.3     1  LIG1        0.0518
     21 C           0.6170    3.9731    5.3193 C.3     1  LIG1       -0.0653
     22 C          -0.8904    4.2731    5.2203 C.3     1  LIG1       -0.0611
     23 C           0.8670    3.1379    6.5833 C.3     1  LIG1       -0.0618
     24 N           1.2469    4.2810    1.2109 N.am    1  LIG1       -0.2746
     25 N           1.3201    4.1831   -0.1750 N.pl3   1  LIG1       -0.3222
     26 O           3.5138    3.8433    1.5236 O.2     1  LIG1       -0.4618
     27 H           0.4906   -0.6758   -2.1279 H       1  LIG1        0.1163
     28 H           2.9178    8.5959   -2.6434 H       1  LIG1        0.1059
     29 H           2.7378    0.3613   -2.2954 H       1  LIG1        0.1227
     30 H          -1.3688    0.5607   -1.0467 H       1  LIG1        0.1243
     31 H           4.3662    6.5821   -2.6415 H       1  LIG1        0.1239
     32 H           0.7216    8.5453   -1.4902 H       1  LIG1        0.1217
     33 H           3.1309    2.6264   -1.3867 H       1  LIG1        0.1229
     34 H          -0.9886    2.8256   -0.1347 H       1  LIG1        0.1306
     35 H           3.6271    4.5218   -1.4926 H       1  LIG1        0.1203
     36 H          -0.0285    6.4921   -0.3381 H       1  LIG1        0.1143
     37 H           0.0674    1.4974    4.1195 H       1  LIG1        0.0831
     38 H           1.2196    1.7136    2.6711 H       1  LIG1        0.0904
     39 H           3.1630    4.5144    6.4765 H       1  LIG1        0.0473
     40 H           3.4904    6.0088    5.6017 H       1  LIG1        0.0554
     41 H           4.2439    4.7931    3.8068 H       1  LIG1        0.0565
     42 H           3.7516    3.2661    4.5532 H       1  LIG1        0.0565
     43 H           0.5279    5.7772    3.3146 H       1  LIG1        0.0663
     44 H           2.1447    6.4683    3.5406 H       1  LIG1        0.0655
     45 H           1.0372    6.0977    5.8996 H       1  LIG1        0.0835
     46 H          -1.2207    4.7456    6.1389 H       1  LIG1        0.0416
     47 H          -1.4294    3.3438    5.0719 H       1  LIG1        0.0375
     48 H          -1.0671    4.9377    4.3818 H       1  LIG1        0.0421
     49 H           0.4695    3.6625    7.4471 H       1  LIG1        0.0388
     50 H           1.9349    2.9864    6.7103 H       1  LIG1        0.0381
     51 H           0.3730    2.1758    6.4836 H       1  LIG1        0.0407
     52 H           0.3630    4.4863    1.6652 H       1  LIG1        0.3568
@<TRIPOS>BOND
     1     1     3   ar
     2     1     4   ar
     3     2     5   ar
     4     2     6   ar
     5     3     7   ar
     6     4     8   ar
     7     5     9   ar
     8     6    10   ar
     9     7    11   ar
    10     8    11   ar
    11     9    12   ar
    12    10    12   ar
    13    11    25    1
    14    12    25    1
    15    13    14    2
    16    13    20    1
    17    13    21    1
    18    15    20    1
    19    15    24   am
    20    15    26    2
    21    16    17    1
    22    16    19    1
    23    17    20    1
    24    18    19    1
    25    18    20    1
    26    19    21    1
    27    21    22    1
    28    21    23    1
    29    24    25    1
    30     1    27    1
    31     2    28    1
    32     3    29    1
    33     4    30    1
    34     5    31    1
    35     6    32    1
    36     7    33    1
    37     8    34    1
    38     9    35    1
    39    10    36    1
    40    14    37    1
    41    14    38    1
    42    16    39    1
    43    16    40    1
    44    17    41    1
    45    17    42    1
    46    18    43    1
    47    18    44    1
    48    19    45    1
    49    22    46    1
    50    22    47    1
    51    22    48    1
    52    23    49    1
    53    23    50    1
    54    23    51    1
    55    24    52    1
