@<TRIPOS>MOLECULE
AE-848/01020003
 30 31 0 0 0
SMALL
USER_CHARGES

@<TRIPOS>ATOM
      1 C           1.3455    4.9477    6.5641 C.ar    1  LIG1       -0.1073
      2 C           0.0470    0.9812   -2.0577 C.ar    1  LIG1       -0.1033
      3 C           0.4641    4.9059    5.4838 C.ar    1  LIG1       -0.1038
      4 C           2.6752    4.5618    6.3946 C.ar    1  LIG1       -0.1051
      5 C          -0.4684    1.9931   -1.2478 C.ar    1  LIG1       -0.0983
      6 C           1.4224    0.7525   -2.0980 C.ar    1  LIG1       -0.0974
      7 C           0.9124    4.4780    4.2341 C.ar    1  LIG1       -0.0950
      8 C           3.1235    4.1340    5.1449 C.ar    1  LIG1       -0.0970
      9 C           0.3916    2.7764   -0.4782 C.ar    1  LIG1       -0.0769
     10 C           2.2824    1.5359   -1.3285 C.ar    1  LIG1       -0.0749
     11 C           2.2421    4.0921    4.0646 C.ar    1  LIG1       -0.0876
     12 C           1.7671    2.5478   -0.5184 C.ar    1  LIG1       -0.0280
     13 C           2.7101    3.6458    2.7617 C.2     1  LIG1       -0.0768
     14 C           2.1055    3.9080    1.5822 C.2     1  LIG1       -0.0472
     15 C           2.6904    3.3890    0.3077 C.2     1  LIG1        0.0133
     16 N           3.9086    3.5616   -0.1080 N.2     1  LIG1       -0.3185
     17 O           4.6493    4.3650    0.7614 O.2     1  LIG1       -0.3855
     18 H           0.9968    5.2820    7.5367 H       1  LIG1        0.1167
     19 H          -0.6228    0.3712   -2.6569 H       1  LIG1        0.1213
     20 H          -0.5711    5.2074    5.6152 H       1  LIG1        0.1169
     21 H           3.3619    4.5954    7.2353 H       1  LIG1        0.1163
     22 H          -1.5394    2.1711   -1.2166 H       1  LIG1        0.1205
     23 H           1.8237   -0.0356   -2.7285 H       1  LIG1        0.1197
     24 H           0.2134    4.4507    3.4015 H       1  LIG1        0.1242
     25 H           4.1629    3.8363    5.0288 H       1  LIG1        0.1210
     26 H          -0.0206    3.5623    0.1495 H       1  LIG1        0.1307
     27 H           3.3525    1.3489   -1.3678 H       1  LIG1        0.1355
     28 H           3.6455    3.0748    2.7491 H       1  LIG1        0.1567
     29 H           1.2302    4.5427    1.5004 H       1  LIG1        0.1203
     30 H           5.5121    4.3925    0.3148 H       1  LIG1        0.3897
@<TRIPOS>BOND
     1     1     3   ar
     2     1     4   ar
     3     2     5   ar
     4     2     6   ar
     5     3     7   ar
     6     4     8   ar
     7     5     9   ar
     8     6    10   ar
     9     7    11   ar
    10     8    11   ar
    11     9    12   ar
    12    10    12   ar
    13    11    13    1
    14    12    15    1
    15    13    14    2
    16    14    15    1
    17    15    16    2
    18    16    17    1
    19     1    18    1
    20     2    19    1
    21     3    20    1
    22     4    21    1
    23     5    22    1
    24     6    23    1
    25     7    24    1
    26     8    25    1
    27     9    26    1
    28    10    27    1
    29    13    28    1
    30    14    29    1
    31    17    30    1
