@<TRIPOS>MOLECULE
AF-399/33325033
 55 59 0 0 0
SMALL
USER_CHARGES

@<TRIPOS>ATOM
      1 C           4.9000    5.3126    3.2047 C.1     1  LIG1        0.0410
      2 C           1.0734    4.9333    6.3764 C.ar    1  LIG1       -0.1026
      3 C           0.1268    0.4229   -1.7536 C.ar    1  LIG1       -0.0996
      4 C           2.0563    7.8742   -2.3050 C.ar    1  LIG1       -0.0989
      5 C           2.0388    3.9584    6.1246 C.ar    1  LIG1       -0.0958
      6 C           0.6210    5.7507    5.3407 C.ar    1  LIG1       -0.0974
      7 C           1.4466    0.6666   -2.1334 C.ar    1  LIG1       -0.1037
      8 C          -0.5033    1.2674   -0.8396 C.ar    1  LIG1       -0.1026
      9 C           1.1298    7.5742   -1.3063 C.ar    1  LIG1       -0.1041
     10 C           3.0797    6.9735   -2.6001 C.ar    1  LIG1       -0.1015
     11 C           2.5516    3.8010    4.8371 C.ar    1  LIG1       -0.0694
     12 C           1.1339    5.5932    4.0531 C.ar    1  LIG1       -0.0730
     13 C           2.1364    1.7549   -1.5991 C.ar    1  LIG1       -0.0776
     14 C           0.1865    2.3557   -0.3053 C.ar    1  LIG1       -0.0755
     15 C           1.2268    6.3737   -0.6028 C.ar    1  LIG1       -0.0772
     16 C           3.1768    5.7730   -1.8967 C.ar    1  LIG1       -0.0750
     17 C           2.0993    4.6184    3.8013 C.ar    1  LIG1       -0.0164
     18 C           1.5064    2.5995   -0.6850 C.ar    1  LIG1        0.0911
     19 C           2.2503    5.4730   -0.8980 C.ar    1  LIG1        0.0928
     20 C           4.1198    4.6352    2.2172 C.2     1  LIG1        0.1331
     21 C           2.6428    4.4516    2.4372 C.2     1  LIG1        0.0262
     22 C           4.6748    4.1923    1.0546 C.2     1  LIG1        0.0301
     23 C           6.5335    5.5361    0.1681 C.3     1  LIG1       -0.0035
     24 C           6.9643    3.2976    1.1144 C.3     1  LIG1       -0.0034
     25 C           7.7697    6.0286    0.9075 C.3     1  LIG1        0.0212
     26 C           8.1833    3.8853    1.8122 C.3     1  LIG1        0.0212
     27 N           5.5331    5.8624    4.0063 N.1     1  LIG1       -0.4052
     28 N           1.8199    4.1763    1.4766 N.2     1  LIG1       -0.2891
     29 N           3.9178    3.5480    0.0885 N.2     1  LIG1       -0.2820
     30 N           6.0003    4.3497    0.8233 N.pl3   1  LIG1       -0.3769
     31 O           8.7214    4.9674    1.0439 O.3     1  LIG1       -0.4557
     32 P           2.3721    3.9652   -0.0145 P.3     1  LIG1       -0.0186
     33 H           0.6741    5.0558    7.3789 H       1  LIG1        0.1217
     34 H          -0.4101   -0.4246   -2.1698 H       1  LIG1        0.1305
     35 H           1.9808    8.8090   -2.8526 H       1  LIG1        0.1309
     36 H           2.3911    3.3221    6.9313 H       1  LIG1        0.1186
     37 H          -0.1308    6.5096    5.5366 H       1  LIG1        0.1192
     38 H           1.9373    0.0089   -2.8448 H       1  LIG1        0.1200
     39 H          -1.5310    1.0776   -0.5442 H       1  LIG1        0.1217
     40 H           0.3333    8.2756   -1.0762 H       1  LIG1        0.1202
     41 H           3.8009    7.2071   -3.3780 H       1  LIG1        0.1227
     42 H           3.3036    3.0380    4.6520 H       1  LIG1        0.1393
     43 H           0.7741    6.2359    3.2537 H       1  LIG1        0.1309
     44 H           3.1642    1.9405   -1.8975 H       1  LIG1        0.1230
     45 H          -0.3085    3.0108    0.4059 H       1  LIG1        0.1296
     46 H           0.5033    6.1447    0.1744 H       1  LIG1        0.1214
     47 H           3.9751    5.0745   -2.1304 H       1  LIG1        0.1214
     48 H           5.7936    6.3438    0.1218 H       1  LIG1        0.1028
     49 H           6.7997    5.2708   -0.8622 H       1  LIG1        0.1113
     50 H           7.2669    2.8349    0.1673 H       1  LIG1        0.1121
     51 H           6.5316    2.5108    1.7436 H       1  LIG1        0.1027
     52 H           8.2469    6.8385    0.3470 H       1  LIG1        0.0968
     53 H           7.5150    6.4132    1.9023 H       1  LIG1        0.1274
     54 H           7.9340    4.2472    2.8167 H       1  LIG1        0.0969
     55 H           8.9631    3.1245    1.9145 H       1  LIG1        0.1271
@<TRIPOS>BOND
     1     1    20    1
     2     1    27    3
     3     2     5   ar
     4     2     6   ar
     5     3     7   ar
     6     3     8   ar
     7     4     9   ar
     8     4    10   ar
     9     5    11   ar
    10     6    12   ar
    11     7    13   ar
    12     8    14   ar
    13     9    15   ar
    14    10    16   ar
    15    11    17   ar
    16    12    17   ar
    17    13    18   ar
    18    14    18   ar
    19    15    19   ar
    20    16    19   ar
    21    17    21    1
    22    18    32    1
    23    19    32    1
    24    20    21    1
    25    20    22    2
    26    21    28    2
    27    22    29    1
    28    22    30    1
    29    23    25    1
    30    23    30    1
    31    24    26    1
    32    24    30    1
    33    25    31    1
    34    26    31    1
    35    28    32    1
    36    29    32    2
    37     2    33    1
    38     3    34    1
    39     4    35    1
    40     5    36    1
    41     6    37    1
    42     7    38    1
    43     8    39    1
    44     9    40    1
    45    10    41    1
    46    11    42    1
    47    12    43    1
    48    13    44    1
    49    14    45    1
    50    15    46    1
    51    16    47    1
    52    23    48    1
    53    23    49    1
    54    24    50    1
    55    24    51    1
    56    25    52    1
    57    25    53    1
    58    26    54    1
    59    26    55    1
