@<TRIPOS>MOLECULE
AK-968/11492079
 41 44 0 0 0
SMALL
USER_CHARGES

@<TRIPOS>ATOM
      1 C          -0.3615    1.7899   -0.4062 C.ar    1  LIG1       -0.0889
      2 C          -0.0403    1.0249   -1.5274 C.ar    1  LIG1       -0.0893
      3 C           2.2664    4.5906    6.2027 C.ar    1  LIG1       -0.1030
      4 C           0.6200    2.5608    0.2167 C.ar    1  LIG1       -0.0811
      5 C           1.2625    1.0308   -2.0259 C.ar    1  LIG1       -0.0731
      6 C           3.4415    5.8892   -1.4693 C.ar    1  LIG1       -0.0493
      7 C           1.1191    6.1941   -0.8772 C.ar    1  LIG1       -0.0449
      8 C           3.2699    6.7250   -2.5727 C.ar    1  LIG1       -0.0674
      9 C           0.9474    7.0300   -1.9806 C.ar    1  LIG1       -0.0655
     10 C           2.9065    4.7229    4.9366 C.ar    1  LIG1       -0.0848
     11 C           1.0166    4.0218    6.0938 C.ar    1  LIG1       -0.0417
     12 C           1.9227    2.5668   -0.2817 C.ar    1  LIG1       -0.0552
     13 C           2.2441    1.8018   -1.4030 C.ar    1  LIG1        0.0330
     14 C           2.3660    5.6237   -0.6216 C.ar    1  LIG1       -0.0193
     15 C           2.0229    7.2955   -2.8284 C.ar    1  LIG1       -0.0186
     16 C           2.1213    4.2499    3.9081 C.ar    1  LIG1        0.0105
     17 C           2.4054    4.2084    2.5183 C.2     1  LIG1        0.0214
     18 C           3.0805    3.0238    1.8797 C.3     1  LIG1        0.0370
     19 C           2.9569    3.4008    0.4007 C.3     1  LIG1        0.0298
     20 C           3.6320    1.7916   -1.9542 C.3     1  LIG1        0.3488
     21 N           2.1371    5.1846    1.7069 N.2     1  LIG1       -0.3119
     22 N           2.5348    4.8011    0.4609 N.pl3   1  LIG1       -0.3174
     23 F           3.7773    0.9921   -3.0512 F       1  LIG1       -0.1889
     24 F           4.0706    3.0228   -2.3483 F       1  LIG1       -0.1904
     25 F           4.5507    1.3459   -1.0498 F       1  LIG1       -0.1899
     26 S           0.6192    3.6498    4.4702 S.2     1  LIG1       -0.1119
     27 CL          1.8117    8.3266   -4.1897 Cl      1  LIG1       -0.1551
     28 H          -1.3757    1.7843   -0.0181 H       1  LIG1        0.1353
     29 H          -0.8050    0.4245   -2.0117 H       1  LIG1        0.1319
     30 H           2.7003    4.8981    7.1453 H       1  LIG1        0.1169
     31 H           0.3597    3.1521    1.0907 H       1  LIG1        0.1323
     32 H           1.5029    0.4318   -2.9003 H       1  LIG1        0.1427
     33 H           4.4168    5.4489   -1.2797 H       1  LIG1        0.1269
     34 H           0.2740    5.9927   -0.2238 H       1  LIG1        0.1388
     35 H           4.1165    6.9213   -3.2257 H       1  LIG1        0.1409
     36 H          -0.0306    7.4659   -2.1680 H       1  LIG1        0.1408
     37 H           3.8935    5.1443    4.7934 H       1  LIG1        0.1315
     38 H           0.3176    3.8078    6.8901 H       1  LIG1        0.1711
     39 H           4.1275    3.0093    2.2012 H       1  LIG1        0.1056
     40 H           2.5970    2.0829    2.1570 H       1  LIG1        0.1082
     41 H           3.9145    3.2875   -0.1186 H       1  LIG1        0.1445
@<TRIPOS>BOND
     1     1     2   ar
     2     1     4   ar
     3     2     5   ar
     4     3    10   ar
     5     3    11   ar
     6     4    12   ar
     7     5    13   ar
     8     6     8   ar
     9     6    14   ar
    10     7     9   ar
    11     7    14   ar
    12     8    15   ar
    13     9    15   ar
    14    10    16   ar
    15    11    26   ar
    16    12    13   ar
    17    12    19    1
    18    13    20    1
    19    14    22    1
    20    15    27    1
    21    16    17    1
    22    16    26   ar
    23    17    18    1
    24    17    21    2
    25    18    19    1
    26    19    22    1
    27    20    23    1
    28    20    24    1
    29    20    25    1
    30    21    22    1
    31     1    28    1
    32     2    29    1
    33     3    30    1
    34     4    31    1
    35     5    32    1
    36     6    33    1
    37     7    34    1
    38     8    35    1
    39     9    36    1
    40    10    37    1
    41    11    38    1
    42    18    39    1
    43    18    40    1
    44    19    41    1
