@<TRIPOS>MOLECULE
AL-182/14819031
 39 42 0 0 0
SMALL
USER_CHARGES

@<TRIPOS>ATOM
      1 C           2.2736    7.8583   -1.9912 C.ar    1  LIG1       -0.1098
      2 C           0.1748    0.7954   -1.7139 C.ar    1  LIG1       -0.1077
      3 C           1.1856    6.9856   -1.9966 C.ar    1  LIG1       -0.1017
      4 C           3.4588    7.4915   -1.3535 C.ar    1  LIG1       -0.1051
      5 C           1.4748    1.0089   -2.1722 C.ar    1  LIG1       -0.1049
      6 C          -0.3545    1.6102   -0.7130 C.ar    1  LIG1       -0.1049
      7 C           1.2825    5.7461   -1.3644 C.ar    1  LIG1       -0.0793
      8 C           3.5558    6.2519   -0.7212 C.ar    1  LIG1       -0.0820
      9 C           2.2456    2.0371   -1.6297 C.ar    1  LIG1       -0.0915
     10 C           0.4163    2.6385   -0.1705 C.ar    1  LIG1       -0.0904
     11 C           1.4111    5.2184    1.9035 C.ar    1  LIG1       -0.0199
     12 C           2.4677    5.3792   -0.7267 C.ar    1  LIG1       -0.0381
     13 C           1.7163    2.8519   -0.6288 C.ar    1  LIG1       -0.0521
     14 C           2.2480    4.2566    1.3880 C.ar    1  LIG1        0.0045
     15 C           2.3090    3.9721    3.5055 C.ar    1  LIG1        0.0193
     16 C           2.5073    3.5971    4.8670 C.ar    1  LIG1       -0.0274
     17 C           1.8710    4.2716    5.8441 C.ar    1  LIG1       -0.0760
     18 C           0.9794    5.3813    5.5469 C.ar    1  LIG1       -0.0694
     19 C           0.7872    5.7403    4.2672 C.ar    1  LIG1       -0.0346
     20 C           2.5762    3.9999   -0.0226 C.3     1  LIG1        0.0677
     21 N           2.7998    3.4892    2.3823 N.ar    1  LIG1       -0.3687
     22 N           1.4480    5.0390    3.2624 N.ar    1  LIG1       -0.3247
     23 O           3.9403    3.5229   -0.2578 O.3     1  LIG1       -0.4416
     24 H           2.1984    8.8230   -2.4847 H       1  LIG1        0.1119
     25 H          -0.4256   -0.0044   -2.1373 H       1  LIG1        0.1152
     26 H           0.2631    7.2707   -2.4940 H       1  LIG1        0.1127
     27 H           4.3065    8.1702   -1.3499 H       1  LIG1        0.1111
     28 H           1.8867    0.3753   -2.9523 H       1  LIG1        0.1147
     29 H          -1.3668    1.4449   -0.3566 H       1  LIG1        0.1164
     30 H           0.4296    5.0726   -1.3736 H       1  LIG1        0.1262
     31 H           4.4830    5.9747   -0.2268 H       1  LIG1        0.1291
     32 H           3.2575    2.1961   -1.9929 H       1  LIG1        0.1184
     33 H          -0.0043    3.2681    0.6090 H       1  LIG1        0.1262
     34 H           0.8122    5.9901    1.4388 H       1  LIG1        0.1806
     35 H           3.1700    2.7714    5.1008 H       1  LIG1        0.1640
     36 H           2.0092    4.0014    6.8854 H       1  LIG1        0.1380
     37 H           0.4891    5.8945    6.3652 H       1  LIG1        0.1406
     38 H           0.1373    6.5563    3.9755 H       1  LIG1        0.1943
     39 H           4.0110    3.4676   -1.2130 H       1  LIG1        0.3390
@<TRIPOS>BOND
     1     1     3   ar
     2     1     4   ar
     3     2     5   ar
     4     2     6   ar
     5     3     7   ar
     6     4     8   ar
     7     5     9   ar
     8     6    10   ar
     9     7    12   ar
    10     8    12   ar
    11     9    13   ar
    12    10    13   ar
    13    11    14   ar
    14    11    22   ar
    15    12    20    1
    16    13    20    1
    17    14    20    1
    18    14    21   ar
    19    15    16   ar
    20    15    21   ar
    21    15    22   ar
    22    16    17   ar
    23    17    18   ar
    24    18    19   ar
    25    19    22   ar
    26    20    23    1
    27     1    24    1
    28     2    25    1
    29     3    26    1
    30     4    27    1
    31     5    28    1
    32     6    29    1
    33     7    30    1
    34     8    31    1
    35     9    32    1
    36    10    33    1
    37    11    34    1
    38    16    35    1
    39    17    36    1
    40    18    37    1
    41    19    38    1
    42    23    39    1
