@<TRIPOS>MOLECULE
AQ-344/43100338
 52 56 0 0 0
SMALL
USER_CHARGES

@<TRIPOS>ATOM
      1 C           4.5790    8.2618    3.3473 C.ar    1  LIG1       -0.1060
      2 C           1.4905    4.9694    6.5380 C.ar    1  LIG1       -0.1069
      3 C           0.8266    0.8599   -2.4038 C.ar    1  LIG1       -0.1063
      4 C           2.1283    7.1736   -2.7181 C.ar    1  LIG1       -0.1071
      5 C           3.2497    8.1394    2.9431 C.ar    1  LIG1       -0.1048
      6 C           5.4571    7.1893    3.1912 C.ar    1  LIG1       -0.1027
      7 C           2.7950    4.5321    6.3091 C.ar    1  LIG1       -0.1040
      8 C           0.5551    4.9451    5.5034 C.ar    1  LIG1       -0.1055
      9 C          -0.2939    1.1314   -1.6188 C.ar    1  LIG1       -0.0997
     10 C           2.0392    1.4935   -2.1314 C.ar    1  LIG1       -0.1044
     11 C           3.3226    6.6380   -2.2360 C.ar    1  LIG1       -0.1048
     12 C           0.9246    6.8847   -2.0752 C.ar    1  LIG1       -0.0979
     13 C           2.7984    6.9444    2.3827 C.ar    1  LIG1       -0.0979
     14 C           5.0058    5.9944    2.6309 C.ar    1  LIG1       -0.0956
     15 C           3.1643    4.0705    5.0458 C.ar    1  LIG1       -0.0957
     16 C           0.9245    4.4836    4.2400 C.ar    1  LIG1       -0.0976
     17 C          -0.2020    2.0365   -0.5614 C.ar    1  LIG1       -0.0819
     18 C           2.1310    2.3986   -1.0740 C.ar    1  LIG1       -0.0901
     19 C           3.3132    5.8134   -1.1110 C.ar    1  LIG1       -0.0794
     20 C           0.9152    6.0601   -0.9501 C.ar    1  LIG1       -0.0704
     21 C           3.6764    5.8718    2.2266 C.ar    1  LIG1       -0.0804
     22 C           2.2291    4.0462    4.0112 C.ar    1  LIG1       -0.0712
     23 C           1.0104    2.6701   -0.2890 C.ar    1  LIG1       -0.0488
     24 C           2.1094    5.5244   -0.4680 C.ar    1  LIG1       -0.0522
     25 C           3.1861    4.5715    1.6173 C.3     1  LIG1        0.0350
     26 C           2.6298    3.5450    2.6382 C.3     1  LIG1        0.0622
     27 C           1.1109    3.6533    0.8590 C.3     1  LIG1        0.0702
     28 N           2.0997    4.7073    0.6470 N.pl3   1  LIG1       -0.3521
     29 O           1.5001    2.8988    2.0195 O.3     1  LIG1       -0.4034
     30 H           4.9306    9.1928    3.7824 H       1  LIG1        0.1132
     31 H           1.2027    5.3276    7.5221 H       1  LIG1        0.1135
     32 H           0.7553    0.1542   -3.2263 H       1  LIG1        0.1171
     33 H           2.1358    7.8156   -3.5942 H       1  LIG1        0.1094
     34 H           2.5661    8.9747    3.0635 H       1  LIG1        0.1134
     35 H           6.4924    7.2847    3.5049 H       1  LIG1        0.1124
     36 H           3.5231    4.5498    7.1149 H       1  LIG1        0.1153
     37 H          -0.4609    5.2845    5.6814 H       1  LIG1        0.1137
     38 H          -1.2379    0.6374   -1.8301 H       1  LIG1        0.1161
     39 H           2.9121    1.2816   -2.7417 H       1  LIG1        0.1159
     40 H           4.2595    6.8629   -2.7366 H       1  LIG1        0.1172
     41 H          -0.0054    7.3019   -2.4507 H       1  LIG1        0.1197
     42 H           1.7608    6.8580    2.0707 H       1  LIG1        0.1172
     43 H           5.6971    5.1640    2.5133 H       1  LIG1        0.1165
     44 H           4.1831    3.7317    4.8767 H       1  LIG1        0.1184
     45 H           0.1891    4.4683    3.4399 H       1  LIG1        0.1144
     46 H          -1.0803    2.2420    0.0448 H       1  LIG1        0.1354
     47 H           3.0798    2.8875   -0.8692 H       1  LIG1        0.1184
     48 H           4.2491    5.4009   -0.7434 H       1  LIG1        0.1140
     49 H          -0.0289    5.8421   -0.4573 H       1  LIG1        0.1239
     50 H           4.1008    4.0976    1.1094 H       1  LIG1        0.1444
     51 H           3.3852    2.7392    2.8045 H       1  LIG1        0.1608
     52 H           0.1058    4.0612    1.0598 H       1  LIG1        0.1587
@<TRIPOS>BOND
     1     1     5   ar
     2     1     6   ar
     3     2     7   ar
     4     2     8   ar
     5     3     9   ar
     6     3    10   ar
     7     4    11   ar
     8     4    12   ar
     9     5    13   ar
    10     6    14   ar
    11     7    15   ar
    12     8    16   ar
    13     9    17   ar
    14    10    18   ar
    15    11    19   ar
    16    12    20   ar
    17    13    21   ar
    18    14    21   ar
    19    15    22   ar
    20    16    22   ar
    21    17    23   ar
    22    18    23   ar
    23    19    24   ar
    24    20    24   ar
    25    21    25    1
    26    22    26    1
    27    23    27    1
    28    24    28    1
    29    25    26    1
    30    25    28    1
    31    26    29    1
    32    27    28    1
    33    27    29    1
    34     1    30    1
    35     2    31    1
    36     3    32    1
    37     4    33    1
    38     5    34    1
    39     6    35    1
    40     7    36    1
    41     8    37    1
    42     9    38    1
    43    10    39    1
    44    11    40    1
    45    12    41    1
    46    13    42    1
    47    14    43    1
    48    15    44    1
    49    16    45    1
    50    17    46    1
    51    18    47    1
    52    19    48    1
    53    20    49    1
    54    25    50    1
    55    26    51    1
    56    27    52    1
