@<TRIPOS>MOLECULE
AN-329/10867060
 40 42 0 0 0
SMALL
USER_CHARGES

@<TRIPOS>ATOM
      1 C           0.4236    0.6568   -1.5773 C.ar    1  LIG1       -0.1053
      2 C           2.2116    7.5466   -2.5335 C.ar    1  LIG1       -0.1044
      3 C           1.7557    1.0000   -1.8077 C.ar    1  LIG1       -0.1037
      4 C          -0.3755    1.4661   -0.7697 C.ar    1  LIG1       -0.1011
      5 C           1.0948    6.7110   -2.5174 C.ar    1  LIG1       -0.1040
      6 C           3.2791    7.3008   -1.6698 C.ar    1  LIG1       -0.1016
      7 C           2.2888    2.1526   -1.2305 C.ar    1  LIG1       -0.0958
      8 C           0.1576    2.6186   -0.1925 C.ar    1  LIG1       -0.0927
      9 C           1.0455    5.6296   -1.6376 C.ar    1  LIG1       -0.0985
     10 C           3.2297    6.2195   -0.7900 C.ar    1  LIG1       -0.0944
     11 C           0.7646    5.0522    5.6907 C.ar    1  LIG1       -0.0334
     12 C           2.9653    4.0640    5.8240 C.ar    1  LIG1       -0.0319
     13 C           0.6604    4.6408    4.3620 C.ar    1  LIG1       -0.0302
     14 C           2.8610    3.6525    4.4953 C.ar    1  LIG1       -0.0275
     15 C           1.4898    2.9619   -0.4229 C.ar    1  LIG1       -0.0661
     16 C           2.1130    5.3840   -0.7740 C.ar    1  LIG1       -0.0695
     17 C           1.9171    4.7638    6.4217 C.ar    1  LIG1        0.0716
     18 C           1.7084    3.9409    3.7643 C.ar    1  LIG1        0.0429
     19 C           1.4294    4.5899    1.5428 C.2     1  LIG1        0.1973
     20 C           2.0592    4.1942    0.1948 C.3     1  LIG1        0.1053
     21 N           2.0236    5.1828    7.7743 N.pl3   1  LIG1       -0.0481
     22 O           1.0695    5.8111    8.2931 O.2     1  LIG1       -0.1548
     23 O           0.8943    5.6608    1.8013 O.2     1  LIG1       -0.4311
     24 O           3.0690    4.9130    8.4138 O.2     1  LIG1       -0.2459
     25 O           1.6040    3.5289    2.4339 O.3     1  LIG1       -0.2905
     26 H           0.0083   -0.2399   -2.0279 H       1  LIG1        0.1183
     27 H           2.2504    8.3877   -3.2195 H       1  LIG1        0.1191
     28 H           2.3778    0.3706   -2.4373 H       1  LIG1        0.1178
     29 H          -1.4131    1.1997   -0.5911 H       1  LIG1        0.1174
     30 H           0.2640    6.9015   -3.1905 H       1  LIG1        0.1188
     31 H           4.1492    7.9505   -1.6829 H       1  LIG1        0.1205
     32 H           3.3279    2.4120   -1.4154 H       1  LIG1        0.1220
     33 H          -0.4725    3.2431    0.4354 H       1  LIG1        0.1226
     34 H           0.1712    4.9840   -1.6319 H       1  LIG1        0.1149
     35 H           4.0660    6.0359   -0.1207 H       1  LIG1        0.1248
     36 H          -0.0599    5.5965    6.1446 H       1  LIG1        0.1725
     37 H           3.8695    3.8331    6.3819 H       1  LIG1        0.1737
     38 H          -0.2401    4.8679    3.7978 H       1  LIG1        0.1517
     39 H           3.6810    3.1081    4.0350 H       1  LIG1        0.1584
     40 H           3.1118    3.9953    0.4891 H       1  LIG1        0.1613
@<TRIPOS>BOND
     1     1     3   ar
     2     1     4   ar
     3     2     5   ar
     4     2     6   ar
     5     3     7   ar
     6     4     8   ar
     7     5     9   ar
     8     6    10   ar
     9     7    15   ar
    10     8    15   ar
    11     9    16   ar
    12    10    16   ar
    13    11    13   ar
    14    11    17   ar
    15    12    14   ar
    16    12    17   ar
    17    13    18   ar
    18    14    18   ar
    19    15    20    1
    20    16    20    1
    21    17    21    1
    22    18    25    1
    23    19    20    1
    24    19    23    2
    25    19    25    1
    26    21    22    1
    27    21    24    2
    28     1    26    1
    29     2    27    1
    30     3    28    1
    31     4    29    1
    32     5    30    1
    33     6    31    1
    34     7    32    1
    35     8    33    1
    36     9    34    1
    37    10    35    1
    38    11    36    1
    39    12    37    1
    40    13    38    1
    41    14    39    1
    42    20    40    1
