@<TRIPOS>MOLECULE
AG-690/12137123
 47 50 0 0 0
SMALL
USER_CHARGES

@<TRIPOS>ATOM
      1 C           1.6920    5.0144    6.4507 C.ar    1  LIG1       -0.1049
      2 C           2.9908    4.9627    5.9448 C.ar    1  LIG1       -0.0999
      3 C           0.6067    4.7539    5.6141 C.ar    1  LIG1       -0.0985
      4 C          -0.4499    1.3492   -1.4333 C.ar    1  LIG1       -0.0944
      5 C           0.2811    0.9301   -2.5449 C.ar    1  LIG1       -0.1032
      6 C           0.9937    6.7779   -1.4251 C.ar    1  LIG1       -0.0736
      7 C           3.2043    4.6504    4.6022 C.ar    1  LIG1       -0.0792
      8 C           0.8202    4.4416    4.2714 C.ar    1  LIG1       -0.0764
      9 C           1.4100    5.6997   -0.6443 C.ar    1  LIG1       -0.0711
     10 C           0.1634    2.1193   -0.4451 C.ar    1  LIG1       -0.0477
     11 C           1.9203    7.4791   -2.1967 C.ar    1  LIG1       -0.0451
     12 C           1.6255    1.2808   -2.6681 C.ar    1  LIG1       -0.0610
     13 C           3.6796    6.0239   -1.4065 C.ar    1  LIG1       -0.0362
     14 C           2.1191    4.3899    3.7655 C.ar    1  LIG1       -0.0386
     15 C           2.7529    5.3227   -0.6349 C.ar    1  LIG1       -0.0545
     16 C           1.5079    2.4700   -0.5683 C.ar    1  LIG1        0.0199
     17 C           3.2633    7.1021   -2.1874 C.ar    1  LIG1        0.0678
     18 C           2.2389    2.0507   -1.6799 C.ar    1  LIG1        0.0358
     19 C           2.3419    4.0645    2.3658 C.2     1  LIG1        0.0107
     20 C           3.5304    4.6167    1.6280 C.3     1  LIG1        0.0293
     21 C           3.1989    4.1683    0.2022 C.3     1  LIG1        0.0254
     22 C           4.2203    1.9099   -2.9876 C.3     1  LIG1        0.0258
     23 N           1.5805    3.2809    1.6694 N.2     1  LIG1       -0.3194
     24 N           2.0979    3.2267    0.4094 N.pl3   1  LIG1       -0.3165
     25 N           4.2062    7.8151   -2.9738 N.pl3   1  LIG1       -0.0505
     26 O           3.8106    8.7813   -3.6701 O.2     1  LIG1       -0.1577
     27 O           5.4095    7.4600   -2.9511 O.2     1  LIG1       -0.2483
     28 O           3.5535    2.3825   -1.8192 O.3     1  LIG1       -0.4043
     29 H           1.5256    5.2576    7.4961 H       1  LIG1        0.1179
     30 H           3.8357    5.1658    6.5963 H       1  LIG1        0.1188
     31 H          -0.4046    4.7938    6.0080 H       1  LIG1        0.1183
     32 H          -1.4964    1.0754   -1.3370 H       1  LIG1        0.1182
     33 H          -0.1966    0.3309   -3.3143 H       1  LIG1        0.1238
     34 H          -0.0520    7.0710   -1.4328 H       1  LIG1        0.1406
     35 H           4.2206    4.6129    4.2185 H       1  LIG1        0.1269
     36 H          -0.0329    4.2405    3.6288 H       1  LIG1        0.1326
     37 H           0.6816    5.1592   -0.0457 H       1  LIG1        0.1544
     38 H          -0.4164    2.4407    0.4166 H       1  LIG1        0.1383
     39 H           1.5824    8.3174   -2.8009 H       1  LIG1        0.1619
     40 H           2.1894    0.9515   -3.5369 H       1  LIG1        0.1160
     41 H           4.7259    5.7261   -1.3957 H       1  LIG1        0.1648
     42 H           3.6257    5.6981    1.7594 H       1  LIG1        0.0959
     43 H           4.4303    4.1158    2.0007 H       1  LIG1        0.1006
     44 H           4.0604    3.6879   -0.2734 H       1  LIG1        0.1393
     45 H           5.2606    2.2442   -2.9747 H       1  LIG1        0.0878
     46 H           3.7143    2.2932   -3.8772 H       1  LIG1        0.0893
     47 H           4.1911    0.8177   -2.9963 H       1  LIG1        0.1209
@<TRIPOS>BOND
     1     1     2   ar
     2     1     3   ar
     3     2     7   ar
     4     3     8   ar
     5     4     5   ar
     6     4    10   ar
     7     5    12   ar
     8     6     9   ar
     9     6    11   ar
    10     7    14   ar
    11     8    14   ar
    12     9    15   ar
    13    10    16   ar
    14    11    17   ar
    15    12    18   ar
    16    13    15   ar
    17    13    17   ar
    18    14    19    1
    19    15    21    1
    20    16    18   ar
    21    16    24    1
    22    17    25    1
    23    18    28    1
    24    19    20    1
    25    19    23    2
    26    20    21    1
    27    21    24    1
    28    22    28    1
    29    23    24    1
    30    25    26    1
    31    25    27    2
    32     1    29    1
    33     2    30    1
    34     3    31    1
    35     4    32    1
    36     5    33    1
    37     6    34    1
    38     7    35    1
    39     8    36    1
    40     9    37    1
    41    10    38    1
    42    11    39    1
    43    12    40    1
    44    13    41    1
    45    20    42    1
    46    20    43    1
    47    21    44    1
    48    22    45    1
    49    22    46    1
    50    22    47    1
