@<TRIPOS>MOLECULE
AG-777/36180004
 42 43 0 0 0
SMALL
USER_CHARGES

@<TRIPOS>ATOM
      1 C           1.3644    4.1477    6.4236 C.ar    1  LIG1       -0.1094
      2 C           0.0243    0.7411   -1.3729 C.ar    1  LIG1       -0.1040
      3 C           1.1683    5.4296    5.9099 C.ar    1  LIG1       -0.1078
      4 C           1.9888    3.1726    5.6457 C.ar    1  LIG1       -0.1082
      5 C           1.3942    0.5047   -1.2602 C.ar    1  LIG1       -0.1000
      6 C          -0.4693    2.0422   -1.2767 C.ar    1  LIG1       -0.1012
      7 C           1.5966    5.7365    4.6184 C.ar    1  LIG1       -0.1059
      8 C           2.4171    3.4795    4.3542 C.ar    1  LIG1       -0.1064
      9 C           2.2708    1.5693   -1.0509 C.ar    1  LIG1       -0.0852
     10 C           0.4073    3.1070   -1.0676 C.ar    1  LIG1       -0.0857
     11 C           2.2210    4.7614    3.8405 C.ar    1  LIG1       -0.1118
     12 C           1.7773    2.8705   -0.9546 C.ar    1  LIG1       -0.0421
     13 C           1.9267    6.4010   -0.5329 C.2     1  LIG1        0.2559
     14 C           5.0115    4.4793   -0.2048 C.3     1  LIG1        0.0159
     15 C           2.6843    5.0927    2.4432 C.3     1  LIG1       -0.0233
     16 C           1.6172    4.8286    1.3836 C.3     1  LIG1       -0.0034
     17 C           2.7318    4.0309   -0.7265 C.3     1  LIG1        0.0751
     18 C           1.7731    6.4790   -2.0283 C.3     1  LIG1        0.4394
     19 N           2.0851    5.1280    0.0273 N.am    1  LIG1       -0.3012
     20 O           1.9116    7.4461    0.1237 O.2     1  LIG1       -0.4063
     21 O           3.9159    3.5856   -0.0500 O.3     1  LIG1       -0.4204
     22 F           1.8148    5.2550   -2.6131 F       1  LIG1       -0.1550
     23 F           0.6128    7.0724   -2.4065 F       1  LIG1       -0.1627
     24 F           2.7734    7.2053   -2.5947 F       1  LIG1       -0.1621
     25 H           1.0321    3.9093    7.4297 H       1  LIG1        0.1133
     26 H          -0.6581   -0.0878   -1.5372 H       1  LIG1        0.1197
     27 H           0.6831    6.1893    6.5159 H       1  LIG1        0.1149
     28 H           2.1426    2.1748    6.0456 H       1  LIG1        0.1143
     29 H           1.7788   -0.5083   -1.3361 H       1  LIG1        0.1176
     30 H          -1.5357    2.2268   -1.3657 H       1  LIG1        0.1187
     31 H           1.4395    6.7379    4.2264 H       1  LIG1        0.1163
     32 H           2.9025    2.7134    3.7553 H       1  LIG1        0.1154
     33 H           3.3367    1.3757   -0.9640 H       1  LIG1        0.1186
     34 H           0.0139    4.1173   -0.9937 H       1  LIG1        0.1244
     35 H           5.8803    4.0879    0.3302 H       1  LIG1        0.0794
     36 H           4.7399    5.4618    0.1893 H       1  LIG1        0.0745
     37 H           5.2504    4.5681   -1.2672 H       1  LIG1        0.1145
     38 H           3.5741    4.4905    2.2196 H       1  LIG1        0.0747
     39 H           3.0097    6.1399    2.3985 H       1  LIG1        0.0746
     40 H           1.3351    3.7711    1.3940 H       1  LIG1        0.1149
     41 H           0.7157    5.4243    1.5610 H       1  LIG1        0.1161
     42 H           3.0321    4.3884   -1.7199 H       1  LIG1        0.1934
@<TRIPOS>BOND
     1     1     3   ar
     2     1     4   ar
     3     2     5   ar
     4     2     6   ar
     5     3     7   ar
     6     4     8   ar
     7     5     9   ar
     8     6    10   ar
     9     7    11   ar
    10     8    11   ar
    11     9    12   ar
    12    10    12   ar
    13    11    15    1
    14    12    17    1
    15    13    18    1
    16    13    19   am
    17    13    20    2
    18    14    21    1
    19    15    16    1
    20    16    19    1
    21    17    19    1
    22    17    21    1
    23    18    22    1
    24    18    23    1
    25    18    24    1
    26     1    25    1
    27     2    26    1
    28     3    27    1
    29     4    28    1
    30     5    29    1
    31     6    30    1
    32     7    31    1
    33     8    32    1
    34     9    33    1
    35    10    34    1
    36    14    35    1
    37    14    36    1
    38    14    37    1
    39    15    38    1
    40    15    39    1
    41    16    40    1
    42    16    41    1
    43    17    42    1
