@<TRIPOS>MOLECULE
AF-833/12533001
 40 42 0 0 0
SMALL
USER_CHARGES

@<TRIPOS>ATOM
      1 C           1.7542    4.7326    6.2468 C.ar    1  LIG1       -0.0977
      2 C           1.4786    7.3796   -1.8527 C.ar    1  LIG1       -0.0816
      3 C           2.6872    6.8319   -2.2773 C.ar    1  LIG1       -0.0816
      4 C           0.5833    5.0897    5.5782 C.ar    1  LIG1       -0.0921
      5 C           2.8654    4.2985    5.5239 C.ar    1  LIG1       -0.0874
      6 C           0.8378    6.8706   -0.7224 C.ar    1  LIG1       -0.0527
      7 C           3.2536    5.7653   -1.5797 C.ar    1  LIG1       -0.0530
      8 C           0.5235    5.0127    4.1868 C.ar    1  LIG1       -0.0594
      9 C           2.8057    4.2216    4.1325 C.ar    1  LIG1       -0.0537
     10 C           1.4052    5.8037   -0.0133 C.ar    1  LIG1        0.0701
     11 C           2.6123    5.2535   -0.4452 C.ar    1  LIG1        0.0678
     12 C           1.6347    4.5787    3.4639 C.ar    1  LIG1       -0.0037
     13 C           0.7732    5.3409    1.2473 C.ar    1  LIG1        0.1732
     14 C           3.1394    4.0449    0.2130 C.ar    1  LIG1        0.1610
     15 C           1.1085    1.6276    0.7485 C.3     1  LIG1       -0.0388
     16 C           1.3931    1.7295   -0.7527 C.3     1  LIG1       -0.0494
     17 C           2.2329    2.2121    1.5976 C.3     1  LIG1        0.0153
     18 C           0.2700    1.1031   -1.5624 C.3     1  LIG1       -0.0193
     19 N           1.5728    4.4993    2.0254 N.ar    1  LIG1       -0.2363
     20 N           2.4501    3.6299    1.3393 N.ar    1  LIG1       -0.2633
     21 O          -0.3141    5.8183    1.5548 O.2     1  LIG1       -0.4430
     22 O           4.0499    3.4146   -0.3185 O.2     1  LIG1       -0.4511
     23 BR         -1.3942    2.0567   -1.2286 Br      1  LIG1       -0.2145
     24 H           1.8014    4.7931    7.3303 H       1  LIG1        0.1252
     25 H           1.0380    8.2096   -2.3982 H       1  LIG1        0.1379
     26 H           3.1840    7.2302   -3.1574 H       1  LIG1        0.1380
     27 H          -0.2818    5.4285    6.1406 H       1  LIG1        0.1268
     28 H           3.7774    4.0214    6.0449 H       1  LIG1        0.1284
     29 H          -0.0938    7.3288   -0.4034 H       1  LIG1        0.1517
     30 H           4.1844    5.3410   -1.9445 H       1  LIG1        0.1517
     31 H          -0.3944    5.2939    3.6765 H       1  LIG1        0.1316
     32 H           3.6780    3.8819    3.5796 H       1  LIG1        0.1372
     33 H           0.1652    2.1379    0.9791 H       1  LIG1        0.0531
     34 H           0.9798    0.5726    1.0188 H       1  LIG1        0.0573
     35 H           1.5147    2.7814   -1.0391 H       1  LIG1        0.0583
     36 H           2.3425    1.2283   -0.9800 H       1  LIG1        0.0566
     37 H           3.1772    1.6900    1.4140 H       1  LIG1        0.1327
     38 H           1.9896    2.1157    2.6603 H       1  LIG1        0.1280
     39 H           0.4557    1.1664   -2.6381 H       1  LIG1        0.0881
     40 H           0.0947    0.0609   -1.2819 H       1  LIG1        0.0889
@<TRIPOS>BOND
     1     1     4   ar
     2     1     5   ar
     3     2     3   ar
     4     2     6   ar
     5     3     7   ar
     6     4     8   ar
     7     5     9   ar
     8     6    10   ar
     9     7    11   ar
    10     8    12   ar
    11     9    12   ar
    12    10    11   ar
    13    10    13   ar
    14    11    14   ar
    15    12    19    1
    16    13    19   ar
    17    13    21    2
    18    14    20   ar
    19    14    22    2
    20    15    16    1
    21    15    17    1
    22    16    18    1
    23    17    20    1
    24    18    23    1
    25    19    20   ar
    26     1    24    1
    27     2    25    1
    28     3    26    1
    29     4    27    1
    30     5    28    1
    31     6    29    1
    32     7    30    1
    33     8    31    1
    34     9    32    1
    35    15    33    1
    36    15    34    1
    37    16    35    1
    38    16    36    1
    39    17    37    1
    40    17    38    1
    41    18    39    1
    42    18    40    1
