@<TRIPOS>MOLECULE
AK-918/41424318
 38 40 0 0 0
SMALL
USER_CHARGES

@<TRIPOS>ATOM
      1 C           1.8162    7.6233   -1.9347 C.ar    1  LIG1       -0.1086
      2 C           1.3483    4.2397    6.0602 C.ar    1  LIG1       -0.0996
      3 C           0.7147    7.1360   -1.2313 C.ar    1  LIG1       -0.1061
      4 C           2.8059    6.7450   -2.3765 C.ar    1  LIG1       -0.1018
      5 C           0.2418    1.4128   -1.3799 C.ar    1  LIG1       -0.1020
      6 C           2.4795    3.5079    5.6993 C.ar    1  LIG1       -0.0984
      7 C           0.7533    5.1030    5.1403 C.ar    1  LIG1       -0.0950
      8 C           1.2149    0.7442   -0.6372 C.ar    1  LIG1       -0.1061
      9 C           0.6028    5.7706   -0.9694 C.ar    1  LIG1       -0.0930
     10 C           2.6939    5.3796   -2.1147 C.ar    1  LIG1       -0.0879
     11 C           0.3723    2.7788   -1.6312 C.ar    1  LIG1       -0.0807
     12 C           3.0160    3.6395    4.4184 C.ar    1  LIG1       -0.0834
     13 C           1.2897    5.2346    3.8594 C.ar    1  LIG1       -0.0783
     14 C           2.3185    1.4415   -0.1455 C.ar    1  LIG1       -0.0701
     15 C           1.5924    4.8922   -1.4111 C.ar    1  LIG1       -0.0709
     16 C           1.4758    3.4760   -1.1395 C.ar    1  LIG1       -0.0336
     17 C           2.4210    4.5030    3.4984 C.ar    1  LIG1       -0.0050
     18 C           2.4490    2.8073   -0.3967 C.ar    1  LIG1        0.0059
     19 C           2.9947    4.6437    2.1290 C.2     1  LIG1        0.1160
     20 C           3.7092    3.4570    1.5126 C.3     1  LIG1        0.1205
     21 O           2.8804    5.7106    1.5300 O.2     1  LIG1       -0.4376
     22 O           3.5370    3.4642    0.0975 O.3     1  LIG1       -0.3848
     23 H           1.9023    8.6863   -2.1400 H       1  LIG1        0.1130
     24 H           0.9306    4.1371    7.0575 H       1  LIG1        0.1279
     25 H          -0.0567    7.8195   -0.8888 H       1  LIG1        0.1137
     26 H           3.6631    7.1236   -2.9256 H       1  LIG1        0.1152
     27 H          -0.6172    0.8697   -1.7628 H       1  LIG1        0.1129
     28 H           2.9428    2.8358    6.4158 H       1  LIG1        0.1214
     29 H          -0.1278    5.6726    5.4211 H       1  LIG1        0.1228
     30 H           1.1131   -0.3191   -0.4416 H       1  LIG1        0.1239
     31 H          -0.2620    5.4062   -0.4200 H       1  LIG1        0.1192
     32 H           3.4729    4.7069   -2.4658 H       1  LIG1        0.1241
     33 H          -0.3953    3.2850   -2.2118 H       1  LIG1        0.1359
     34 H           3.8979    3.0645    4.1477 H       1  LIG1        0.1303
     35 H           0.8179    5.9106    3.1508 H       1  LIG1        0.1394
     36 H           3.0724    0.9138    0.4324 H       1  LIG1        0.1102
     37 H           3.2777    2.5281    1.8949 H       1  LIG1        0.1454
     38 H           4.7800    3.5000    1.7301 H       1  LIG1        0.1452
@<TRIPOS>BOND
     1     1     3   ar
     2     1     4   ar
     3     2     6   ar
     4     2     7   ar
     5     3     9   ar
     6     4    10   ar
     7     5     8   ar
     8     5    11   ar
     9     6    12   ar
    10     7    13   ar
    11     8    14   ar
    12     9    15   ar
    13    10    15   ar
    14    11    16   ar
    15    12    17   ar
    16    13    17   ar
    17    14    18   ar
    18    15    16    1
    19    16    18   ar
    20    17    19    1
    21    18    22    1
    22    19    20    1
    23    19    21    2
    24    20    22    1
    25     1    23    1
    26     2    24    1
    27     3    25    1
    28     4    26    1
    29     5    27    1
    30     6    28    1
    31     7    29    1
    32     8    30    1
    33     9    31    1
    34    10    32    1
    35    11    33    1
    36    12    34    1
    37    13    35    1
    38    14    36    1
    39    20    37    1
    40    20    38    1
