@<TRIPOS>MOLECULE
AG-690/11031042
 41 43 0 0 0
SMALL
USER_CHARGES

@<TRIPOS>ATOM
      1 C           1.3785    4.4751    6.5214 C.ar    1  LIG1       -0.1089
      2 C           2.5890    6.6797   -2.7206 C.ar    1  LIG1       -0.1060
      3 C           1.1729    5.6125    5.7407 C.ar    1  LIG1       -0.1079
      4 C           2.0665    3.3823    5.9942 C.ar    1  LIG1       -0.1057
      5 C           1.2090    6.6163   -2.5275 C.ar    1  LIG1       -0.1044
      6 C           3.4543    6.2349   -1.7210 C.ar    1  LIG1       -0.1051
      7 C           1.6552    5.6571    4.4325 C.ar    1  LIG1       -0.1010
      8 C           2.5489    3.4268    4.6861 C.ar    1  LIG1       -0.0974
      9 C           0.6943    6.1084   -1.3348 C.ar    1  LIG1       -0.0998
     10 C           2.9395    5.7270   -0.5283 C.ar    1  LIG1       -0.1002
     11 C           2.3087    2.1827   -1.1234 C.ar    1  LIG1       -0.0334
     12 C           0.0458    2.0724   -0.3164 C.ar    1  LIG1       -0.0408
     13 C           1.8293    1.7874   -2.3618 C.ar    1  LIG1       -0.0310
     14 C          -0.3325    1.6823   -1.5910 C.ar    1  LIG1       -0.0373
     15 C           1.3934    2.3256   -0.0865 C.ar    1  LIG1        0.0358
     16 C           2.3432    4.5642    3.9053 C.ar    1  LIG1       -0.0859
     17 C           1.5596    5.6637   -0.3351 C.ar    1  LIG1       -0.0905
     18 C           1.8494    2.7435    1.2487 C.2     1  LIG1        0.1277
     19 C           2.8624    4.6113    2.4973 C.3     1  LIG1        0.0082
     20 C           1.0061    5.1171    0.9491 C.3     1  LIG1        0.0052
     21 N           0.5276    1.5327   -2.6233 N.ar    1  LIG1       -0.3981
     22 N           1.8864    4.1111    1.5396 N.am    1  LIG1       -0.3334
     23 O           2.1568    1.8407    2.0263 O.2     1  LIG1       -0.4647
     24 H           1.0041    4.4411    7.5403 H       1  LIG1        0.1145
     25 H           2.9896    7.0739   -3.6499 H       1  LIG1        0.1175
     26 H           0.6382    6.4640    6.1513 H       1  LIG1        0.1134
     27 H           2.2277    2.4970    6.6022 H       1  LIG1        0.1145
     28 H           0.5352    6.9615   -3.3063 H       1  LIG1        0.1175
     29 H           4.5286    6.2831   -1.8714 H       1  LIG1        0.1172
     30 H           1.4902    6.5474    3.8315 H       1  LIG1        0.1152
     31 H           3.0836    2.5704    4.2837 H       1  LIG1        0.1232
     32 H          -0.3823    6.0630   -1.1930 H       1  LIG1        0.1169
     33 H           3.6213    5.3830    0.2451 H       1  LIG1        0.1184
     34 H           3.3670    2.3734   -0.9788 H       1  LIG1        0.1438
     35 H          -0.6942    2.1750    0.4703 H       1  LIG1        0.1378
     36 H           2.5019    1.6624   -3.2037 H       1  LIG1        0.2078
     37 H          -1.3715    1.4727   -1.8220 H       1  LIG1        0.2045
     38 H           3.1173    5.6383    2.2140 H       1  LIG1        0.1299
     39 H           3.7718    4.0101    2.3935 H       1  LIG1        0.1319
     40 H           0.8701    5.9188    1.6831 H       1  LIG1        0.1112
     41 H           0.0273    4.6531    0.7892 H       1  LIG1        0.1391
@<TRIPOS>BOND
     1     1     3   ar
     2     1     4   ar
     3     2     5   ar
     4     2     6   ar
     5     3     7   ar
     6     4     8   ar
     7     5     9   ar
     8     6    10   ar
     9     7    16   ar
    10     8    16   ar
    11     9    17   ar
    12    10    17   ar
    13    11    13   ar
    14    11    15   ar
    15    12    14   ar
    16    12    15   ar
    17    13    21   ar
    18    14    21   ar
    19    15    18    1
    20    16    19    1
    21    17    20    1
    22    18    22   am
    23    18    23    2
    24    19    22    1
    25    20    22    1
    26     1    24    1
    27     2    25    1
    28     3    26    1
    29     4    27    1
    30     5    28    1
    31     6    29    1
    32     7    30    1
    33     8    31    1
    34     9    32    1
    35    10    33    1
    36    11    34    1
    37    12    35    1
    38    13    36    1
    39    14    37    1
    40    19    38    1
    41    19    39    1
    42    20    40    1
    43    20    41    1
