@<TRIPOS>MOLECULE
AN-329/10867050
 38 40 0 0 0
SMALL
USER_CHARGES

@<TRIPOS>ATOM
      1 C           0.4001    0.6482   -1.6894 C.ar    1  LIG1       -0.1052
      2 C           2.1903    7.5413   -2.6175 C.ar    1  LIG1       -0.1061
      3 C           1.9118    4.7142    6.3264 C.ar    1  LIG1       -0.1015
      4 C           1.7320    0.9917   -1.9209 C.ar    1  LIG1       -0.1021
      5 C          -0.3969    1.4542   -0.8765 C.ar    1  LIG1       -0.1045
      6 C           1.0731    6.7062   -2.6030 C.ar    1  LIG1       -0.1019
      7 C           3.2594    7.2909   -1.7571 C.ar    1  LIG1       -0.1043
      8 C           0.7585    5.0082    5.5991 C.ar    1  LIG1       -0.0955
      9 C           2.9581    4.0164    5.7229 C.ar    1  LIG1       -0.0945
     10 C           2.2669    2.1413   -1.3395 C.ar    1  LIG1       -0.0941
     11 C           0.1380    2.6038   -0.2951 C.ar    1  LIG1       -0.0984
     12 C           1.0249    5.6209   -1.7281 C.ar    1  LIG1       -0.0927
     13 C           3.2111    6.2056   -0.8822 C.ar    1  LIG1       -0.0956
     14 C           0.6514    4.6047    4.2682 C.ar    1  LIG1       -0.0607
     15 C           2.8509    3.6128    4.3920 C.ar    1  LIG1       -0.0589
     16 C           1.4700    2.9473   -0.5266 C.ar    1  LIG1       -0.0690
     17 C           2.0939    5.3707   -0.8677 C.ar    1  LIG1       -0.0660
     18 C           1.6976    3.9069    3.6647 C.ar    1  LIG1        0.0201
     19 C           1.4145    4.5663    1.4467 C.2     1  LIG1        0.1908
     20 C           2.0414    4.1764    0.0957 C.3     1  LIG1        0.1044
     21 O           0.8806    5.6363    1.7112 O.2     1  LIG1       -0.4367
     22 O           1.5902    3.5011    2.3326 O.3     1  LIG1       -0.3048
     23 H          -0.0166   -0.2462   -2.1433 H       1  LIG1        0.1179
     24 H           2.2283    8.3855   -3.2997 H       1  LIG1        0.1171
     25 H           1.9957    5.0287    7.3625 H       1  LIG1        0.1216
     26 H           2.3525    0.3648   -2.5546 H       1  LIG1        0.1198
     27 H          -1.4342    1.1876   -0.6971 H       1  LIG1        0.1181
     28 H           0.2411    6.9003   -3.2735 H       1  LIG1        0.1167
     29 H           4.1298    7.9401   -1.7688 H       1  LIG1        0.1170
     30 H          -0.0564    5.5513    6.0691 H       1  LIG1        0.1252
     31 H           3.8558    3.7879    6.2899 H       1  LIG1        0.1264
     32 H           3.3058    2.4010   -1.5252 H       1  LIG1        0.1243
     33 H          -0.4904    3.2257    0.3369 H       1  LIG1        0.1138
     34 H           0.1503    4.9758   -1.7236 H       1  LIG1        0.1222
     35 H           4.0487    6.0184   -0.2153 H       1  LIG1        0.1212
     36 H          -0.2503    4.8356    3.7076 H       1  LIG1        0.1263
     37 H           3.6684    3.0680    3.9276 H       1  LIG1        0.1314
     38 H           3.0944    3.9755    0.3870 H       1  LIG1        0.1583
@<TRIPOS>BOND
     1     1     4   ar
     2     1     5   ar
     3     2     6   ar
     4     2     7   ar
     5     3     8   ar
     6     3     9   ar
     7     4    10   ar
     8     5    11   ar
     9     6    12   ar
    10     7    13   ar
    11     8    14   ar
    12     9    15   ar
    13    10    16   ar
    14    11    16   ar
    15    12    17   ar
    16    13    17   ar
    17    14    18   ar
    18    15    18   ar
    19    16    20    1
    20    17    20    1
    21    18    22    1
    22    19    20    1
    23    19    21    2
    24    19    22    1
    25     1    23    1
    26     2    24    1
    27     3    25    1
    28     4    26    1
    29     5    27    1
    30     6    28    1
    31     7    29    1
    32     8    30    1
    33     9    31    1
    34    10    32    1
    35    11    33    1
    36    12    34    1
    37    13    35    1
    38    14    36    1
    39    15    37    1
    40    20    38    1
