@<TRIPOS>MOLECULE
AG-690/12557765
 37 39 0 0 0
SMALL
USER_CHARGES

@<TRIPOS>ATOM
      1 C           1.2981    4.3478    6.1731 C.ar    1  LIG1       -0.1084
      2 C           0.6455    5.1149    5.2081 C.ar    1  LIG1       -0.1081
      3 C           2.4864    3.6901    5.8550 C.ar    1  LIG1       -0.1043
      4 C           0.1413    0.9200   -1.4674 C.ar    1  LIG1       -0.0918
      5 C           0.8113    1.6331   -2.4641 C.ar    1  LIG1       -0.0957
      6 C           1.1811    5.2243    3.9249 C.ar    1  LIG1       -0.1029
      7 C           3.0220    3.7996    4.5717 C.ar    1  LIG1       -0.0969
      8 C           0.3010    1.2470   -0.1150 C.ar    1  LIG1       -0.0621
      9 C           1.6632    2.6967   -2.1477 C.ar    1  LIG1       -0.0723
     10 C           2.3694    4.5667    3.6067 C.ar    1  LIG1       -0.0845
     11 C           1.1532    2.3125    0.2210 C.ar    1  LIG1       -0.0211
     12 C           1.8071    3.0045   -0.7945 C.ar    1  LIG1       -0.0303
     13 C           2.3125    3.8140    1.2015 C.ar    1  LIG1        0.0078
     14 C           1.5193    6.5786   -1.0920 C.3     1  LIG1       -0.0651
     15 C           2.9540    4.6855    2.2073 C.3     1  LIG1        0.0419
     16 C           2.6485    5.8127   -1.7617 C.3     1  LIG1       -0.0482
     17 C           3.4013    4.9417   -0.7584 C.3     1  LIG1       -0.0116
     18 N           1.4793    2.8295    1.4538 N.ar    1  LIG1       -0.3757
     19 N           2.5414    3.9590   -0.1386 N.ar    1  LIG1       -0.3493
     20 H           0.8815    4.2637    7.1727 H       1  LIG1        0.1147
     21 H          -0.2791    5.6279    5.4560 H       1  LIG1        0.1142
     22 H           2.9953    3.0937    6.6063 H       1  LIG1        0.1166
     23 H          -0.5153    0.0993   -1.7447 H       1  LIG1        0.1202
     24 H           0.6688    1.3569   -3.5061 H       1  LIG1        0.1242
     25 H           0.6657    5.8241    3.1794 H       1  LIG1        0.1128
     26 H           3.9481    3.2836    4.3328 H       1  LIG1        0.1253
     27 H          -0.2247    0.6870    0.6515 H       1  LIG1        0.1400
     28 H           2.1822    3.2503   -2.9221 H       1  LIG1        0.1225
     29 H           1.8999    7.2102   -0.2830 H       1  LIG1        0.0376
     30 H           0.7898    5.8828   -0.6657 H       1  LIG1        0.0337
     31 H           0.9985    7.2182   -1.8118 H       1  LIG1        0.0342
     32 H           2.9078    5.7509    1.9023 H       1  LIG1        0.1176
     33 H           4.0441    4.4903    2.2696 H       1  LIG1        0.1310
     34 H           2.2363    5.1910   -2.5654 H       1  LIG1        0.0500
     35 H           3.3368    6.5236   -2.2345 H       1  LIG1        0.0502
     36 H           3.8399    5.5515    0.0405 H       1  LIG1        0.1154
     37 H           4.2250    4.4047   -1.2438 H       1  LIG1        0.1182
@<TRIPOS>BOND
     1     1     2   ar
     2     1     3   ar
     3     2     6   ar
     4     3     7   ar
     5     4     5   ar
     6     4     8   ar
     7     5     9   ar
     8     6    10   ar
     9     7    10   ar
    10     8    11   ar
    11     9    12   ar
    12    10    15    1
    13    11    12   ar
    14    11    18   ar
    15    12    19   ar
    16    13    15    1
    17    13    18   ar
    18    13    19   ar
    19    14    16    1
    20    16    17    1
    21    17    19    1
    22     1    20    1
    23     2    21    1
    24     3    22    1
    25     4    23    1
    26     5    24    1
    27     6    25    1
    28     7    26    1
    29     8    27    1
    30     9    28    1
    31    14    29    1
    32    14    30    1
    33    14    31    1
    34    15    32    1
    35    15    33    1
    36    16    34    1
    37    16    35    1
    38    17    36    1
    39    17    37    1
