@<TRIPOS>MOLECULE
AP-518/42324181
 42 44 0 0 0
SMALL
USER_CHARGES

@<TRIPOS>ATOM
      1 C           0.2516    1.0998   -1.6658 C.ar    1  LIG1       -0.1097
      2 C           0.4551    4.1938    5.3868 C.ar    1  LIG1       -0.0924
      3 C          -0.3122    1.9524   -0.7167 C.ar    1  LIG1       -0.1059
      4 C           1.5832    1.2640   -2.0472 C.ar    1  LIG1       -0.1077
      5 C           1.3022    4.6530    6.3953 C.ar    1  LIG1       -0.0906
      6 C           0.9692    3.9015    4.1235 C.ar    1  LIG1       -0.0656
      7 C           0.4556    2.9693   -0.1491 C.ar    1  LIG1       -0.0952
      8 C           2.3510    2.2808   -1.4796 C.ar    1  LIG1       -0.0977
      9 C           2.6633    4.8201    6.1406 C.ar    1  LIG1       -0.0636
     10 C           2.3304    4.0685    3.8687 C.ar    1  LIG1        0.0481
     11 C           1.7873    3.1335   -0.5306 C.ar    1  LIG1       -0.0830
     12 C           3.1776    4.5279    4.8773 C.ar    1  LIG1        0.0255
     13 C           2.8319    3.7447    2.5083 C.2     1  LIG1        0.1132
     14 C           2.4171    6.6333   -2.8327 C.3     1  LIG1       -0.0724
     15 C           1.2248    7.0766   -1.9832 C.3     1  LIG1       -0.0736
     16 C           2.9903    5.3971   -2.1467 C.3     1  LIG1       -0.0627
     17 C           1.1268    6.0748   -0.8375 C.3     1  LIG1       -0.0646
     18 C           2.5482    5.5403   -0.6937 C.3     1  LIG1       -0.0453
     19 C           2.6226    4.2392    0.0860 C.3     1  LIG1       -0.0106
     20 N           2.2578    4.4580    1.4701 N.am    1  LIG1       -0.3362
     21 O           3.6879    2.8739    2.3759 O.2     1  LIG1       -0.4647
     22 CL          4.8684    4.7482    4.6035 Cl      1  LIG1       -0.1077
     23 H          -0.3460    0.3071   -2.1066 H       1  LIG1        0.1122
     24 H          -0.6048    4.0639    5.5852 H       1  LIG1        0.1264
     25 H          -1.3487    1.8240   -0.4187 H       1  LIG1        0.1145
     26 H           2.0228    0.5996   -2.7852 H       1  LIG1        0.1120
     27 H           0.9016    4.8804    7.3789 H       1  LIG1        0.1358
     28 H           0.2982    3.5444    3.3462 H       1  LIG1        0.1350
     29 H           0.0078    3.6290    0.5895 H       1  LIG1        0.1189
     30 H           3.3876    2.4012   -1.7831 H       1  LIG1        0.1132
     31 H           3.3098    5.1788    6.9375 H       1  LIG1        0.1359
     32 H           2.1237    6.4145   -3.8645 H       1  LIG1        0.0427
     33 H           3.1659    7.4332   -2.8669 H       1  LIG1        0.0432
     34 H           1.4025    8.0854   -1.5924 H       1  LIG1        0.0412
     35 H           0.2986    7.1087   -2.5657 H       1  LIG1        0.0415
     36 H           2.5633    4.4930   -2.5980 H       1  LIG1        0.0494
     37 H           4.0783    5.3393   -2.2480 H       1  LIG1        0.0481
     38 H           0.7608    6.5394    0.0835 H       1  LIG1        0.0437
     39 H           0.4317    5.2704   -1.1083 H       1  LIG1        0.0455
     40 H           3.1721    6.2945   -0.1961 H       1  LIG1        0.0675
     41 H           3.6731    3.9151    0.1134 H       1  LIG1        0.1370
     42 H           1.5102    5.1186    1.6485 H       1  LIG1        0.2983
@<TRIPOS>BOND
     1     1     3   ar
     2     1     4   ar
     3     2     5   ar
     4     2     6   ar
     5     3     7   ar
     6     4     8   ar
     7     5     9   ar
     8     6    10   ar
     9     7    11   ar
    10     8    11   ar
    11     9    12   ar
    12    10    12   ar
    13    10    13    1
    14    11    19    1
    15    12    22    1
    16    13    20   am
    17    13    21    2
    18    14    15    1
    19    14    16    1
    20    15    17    1
    21    16    18    1
    22    17    18    1
    23    18    19    1
    24    19    20    1
    25     1    23    1
    26     2    24    1
    27     3    25    1
    28     4    26    1
    29     5    27    1
    30     6    28    1
    31     7    29    1
    32     8    30    1
    33     9    31    1
    34    14    32    1
    35    14    33    1
    36    15    34    1
    37    15    35    1
    38    16    36    1
    39    16    37    1
    40    17    38    1
    41    17    39    1
    42    18    40    1
    43    19    41    1
    44    20    42    1
