@<TRIPOS>MOLECULE
AE-641/04639034
 41 44 0 0 0
SMALL
USER_CHARGES

@<TRIPOS>ATOM
      1 C           0.1811    0.8320   -1.8909 C.ar    1  LIG1       -0.1095
      2 C           1.5168    1.0515   -2.2275 C.ar    1  LIG1       -0.1057
      3 C          -0.4231    1.6015   -0.8967 C.ar    1  LIG1       -0.1054
      4 C           1.9426    7.4204   -2.4332 C.ar    1  LIG1       -0.1057
      5 C           2.8469    6.4198   -2.7391 C.ar    1  LIG1       -0.0991
      6 C           2.2483    2.0406   -1.5700 C.ar    1  LIG1       -0.0906
      7 C           0.3084    2.5905   -0.2391 C.ar    1  LIG1       -0.0872
      8 C           1.2036    7.3325   -1.2591 C.ar    1  LIG1       -0.1025
      9 C           3.0007    5.3389   -1.8693 C.ar    1  LIG1       -0.0806
     10 C           2.5115    2.4961    2.2369 C.ar    1  LIG1       -0.0784
     11 C           2.4733    2.2145    3.6030 C.ar    1  LIG1       -0.0947
     12 C           2.0051    4.5214    4.0185 C.ar    1  LIG1       -0.0855
     13 C           1.6441    2.8101   -0.5758 C.ar    1  LIG1       -0.0577
     14 C           1.3537    6.2453   -0.3679 C.ar    1  LIG1       -0.0844
     15 C           2.2722    5.2183   -0.6540 C.ar    1  LIG1       -0.0497
     16 C           2.2851    3.7987    1.6966 C.ar    1  LIG1       -0.0423
     17 C           2.2208    3.2341    4.4987 C.ar    1  LIG1       -0.1097
     18 C           2.0273    4.8176    2.6346 C.ar    1  LIG1       -0.0509
     19 C           0.5566    6.2889    0.8958 C.3     1  LIG1        0.0105
     20 C           2.4587    3.9122    0.1575 C.3     1  LIG1        0.0447
     21 C           2.1708    2.9565    5.9616 C.3     1  LIG1       -0.0402
     22 O           3.8718    3.5825    0.0548 O.3     1  LIG1       -0.4583
     23 S           1.6819    6.5293    2.2819 S.3     1  LIG1       -0.1951
     24 H          -0.3887    0.0627   -2.4039 H       1  LIG1        0.1125
     25 H           1.9871    0.4532   -3.0024 H       1  LIG1        0.1143
     26 H          -1.4632    1.4316   -0.6350 H       1  LIG1        0.1136
     27 H           1.8171    8.2698   -3.0959 H       1  LIG1        0.1194
     28 H           3.4367    6.4735   -3.6476 H       1  LIG1        0.1206
     29 H           3.2886    2.2045   -1.8389 H       1  LIG1        0.1172
     30 H          -0.1705    3.1852    0.5343 H       1  LIG1        0.1319
     31 H           0.5028    8.1350   -1.0249 H       1  LIG1        0.1122
     32 H           3.7161    4.5693   -2.1675 H       1  LIG1        0.1332
     33 H           2.7103    1.6472    1.5837 H       1  LIG1        0.1356
     34 H           2.6369    1.1979    3.9465 H       1  LIG1        0.1242
     35 H           1.8104    5.3045    4.7485 H       1  LIG1        0.1264
     36 H          -0.1014    7.1492    0.8877 H       1  LIG1        0.0974
     37 H          -0.0769    5.4358    1.0448 H       1  LIG1        0.1185
     38 H           3.1664    3.0732    6.4078 H       1  LIG1        0.0598
     39 H           1.4789    3.6382    6.4742 H       1  LIG1        0.0559
     40 H           1.8175    1.9364    6.1633 H       1  LIG1        0.0566
     41 H           4.3399    4.2876    0.5202 H       1  LIG1        0.3287
@<TRIPOS>BOND
     1     1     2   ar
     2     1     3   ar
     3     2     6   ar
     4     3     7   ar
     5     4     5   ar
     6     4     8   ar
     7     5     9   ar
     8     6    13   ar
     9     7    13   ar
    10     8    14   ar
    11     9    15   ar
    12    10    11   ar
    13    10    16   ar
    14    11    17   ar
    15    12    17   ar
    16    12    18   ar
    17    13    20    1
    18    14    15   ar
    19    14    19    1
    20    15    20    1
    21    16    18   ar
    22    16    20    1
    23    17    21    1
    24    18    23    1
    25    19    23    1
    26    20    22    1
    27     1    24    1
    28     2    25    1
    29     3    26    1
    30     4    27    1
    31     5    28    1
    32     6    29    1
    33     7    30    1
    34     8    31    1
    35     9    32    1
    36    10    33    1
    37    11    34    1
    38    12    35    1
    39    19    36    1
    40    19    37    1
    41    21    38    1
    42    21    39    1
    43    21    40    1
    44    22    41    1
