@<TRIPOS>MOLECULE
ZINC55422437
 37 39 0 0 0
SMALL
USER_CHARGES

@<TRIPOS>ATOM
      1 C           0.8785    0.5625   -1.3445 C.ar    1  LIG1       -0.1099
      2 C           2.6596    7.4711   -2.4798 C.ar    1  LIG1       -0.1079
      3 C          -0.1503    1.4455   -1.6723 C.ar    1  LIG1       -0.1073
      4 C           1.9209    0.9819   -0.5180 C.ar    1  LIG1       -0.1050
      5 C           1.5767    7.8227   -1.6742 C.ar    1  LIG1       -0.1072
      6 C           3.1802    6.1782   -2.4233 C.ar    1  LIG1       -0.1065
      7 C           2.8920    4.2023    5.6275 C.ar    1  LIG1       -0.1145
      8 C          -0.1365    2.7481   -1.1736 C.ar    1  LIG1       -0.0965
      9 C           1.9346    2.2845   -0.0193 C.ar    1  LIG1       -0.0935
     10 C           1.0142    6.8816   -0.8119 C.ar    1  LIG1       -0.1043
     11 C           2.6177    5.2370   -1.5610 C.ar    1  LIG1       -0.1026
     12 C           2.6665    4.0786    4.2260 C.ar    1  LIG1       -0.1096
     13 C           1.7267    4.4492    6.3193 C.ar    1  LIG1       -0.0609
     14 C           0.9059    3.1676   -0.3470 C.ar    1  LIG1       -0.1071
     15 C           1.5348    5.5887   -0.7552 C.ar    1  LIG1       -0.1191
     16 C           1.3372    4.2354    3.9001 C.ar    1  LIG1       -0.0839
     17 C           0.6944    4.1757    2.5446 C.3     1  LIG1       -0.1629
     18 C           0.9212    4.5603    0.1864 C.3     1  LIG1       -0.1510
     19 N           1.5941    4.6192    1.4972 N.3     1  LIG1        0.3324
     20 S           0.3678    4.5307    5.2804 S.2     1  LIG1       -0.1581
     21 H           0.8670   -0.4522   -1.7319 H       1  LIG1        0.1117
     22 H           3.0966    8.2037   -3.1522 H       1  LIG1        0.1146
     23 H          -0.9626    1.1188   -2.3150 H       1  LIG1        0.1134
     24 H           2.7215    0.2943   -0.2618 H       1  LIG1        0.1132
     25 H           1.1704    8.8290   -1.7188 H       1  LIG1        0.1162
     26 H           4.0226    5.9038   -3.0512 H       1  LIG1        0.1160
     27 H           3.8592    4.1141    6.1047 H       1  LIG1        0.1108
     28 H          -0.9423    3.4294   -1.4343 H       1  LIG1        0.1162
     29 H           2.7510    2.6026    0.6238 H       1  LIG1        0.1188
     30 H           0.1707    7.1646   -0.1877 H       1  LIG1        0.1131
     31 H           3.0301    4.2321   -1.5235 H       1  LIG1        0.1173
     32 H           3.4436    3.8828    3.4980 H       1  LIG1        0.1163
     33 H           1.6082    4.5859    7.3849 H       1  LIG1        0.1606
     34 H           0.3822    3.1522    2.3100 H       1  LIG1        0.0888
     35 H          -0.2006    4.8055    2.5060 H       1  LIG1        0.0551
     36 H          -0.1081    4.8970    0.4080 H       1  LIG1        0.0983
     37 H           1.8777    5.5779    1.6657 H       1  LIG1       -0.0046
@<TRIPOS>BOND
     1     1     3   ar
     2     1     4   ar
     3     2     5   ar
     4     2     6   ar
     5     3     8   ar
     6     4     9   ar
     7     5    10   ar
     8     6    11   ar
     9     7    12   ar
    10     7    13   ar
    11     8    14   ar
    12     9    14   ar
    13    10    15   ar
    14    11    15   ar
    15    12    16   ar
    16    13    20   ar
    17    14    18    1
    18    15    18    1
    19    16    17    1
    20    16    20   ar
    21    17    19    1
    22    18    19    1
    23     1    21    1
    24     2    22    1
    25     3    23    1
    26     4    24    1
    27     5    25    1
    28     6    26    1
    29     7    27    1
    30     8    28    1
    31     9    29    1
    32    10    30    1
    33    11    31    1
    34    12    32    1
    35    13    33    1
    36    17    34    1
    37    17    35    1
    38    18    36    1
    39    19    37    1
