@<TRIPOS>MOLECULE
AK-564/15482044
 41 44 0 0 0
SMALL
USER_CHARGES

@<TRIPOS>ATOM
      1 C           1.8046    6.9224   -2.6190 C.ar    1  LIG1       -0.1005
      2 C           0.0705    0.6913   -2.0072 C.ar    1  LIG1       -0.1005
      3 C           0.9484    6.8491   -1.5203 C.ar    1  LIG1       -0.0966
      4 C           3.1636    6.6488   -2.4638 C.ar    1  LIG1       -0.0981
      5 C          -0.4350    1.9360   -1.6320 C.ar    1  LIG1       -0.0981
      6 C           1.3590    0.3179   -1.6251 C.ar    1  LIG1       -0.0966
      7 C           1.4512    6.5026   -0.2663 C.ar    1  LIG1       -0.0805
      8 C           3.6664    6.3023   -1.2096 C.ar    1  LIG1       -0.0831
      9 C           0.3479    2.8074   -0.8751 C.ar    1  LIG1       -0.0831
     10 C           2.1421    1.1894   -0.8680 C.ar    1  LIG1       -0.0804
     11 C           2.8102    6.2291   -0.1109 C.ar    1  LIG1       -0.0121
     12 C           1.6365    2.4342   -0.4930 C.ar    1  LIG1       -0.0119
     13 C           2.0526    4.3276    4.4411 C.2     1  LIG1       -0.1363
     14 C           1.6327    3.1282    4.0096 C.2     1  LIG1       -0.1366
     15 C           3.3383    5.8651    1.2065 C.2     1  LIG1        0.0803
     16 C           2.4590    3.3496    0.3021 C.2     1  LIG1        0.0806
     17 C           3.7505    3.4436    3.1583 C.3     1  LIG1       -0.0512
     18 C           3.1159    4.8026    3.4753 C.3     1  LIG1       -0.0381
     19 C           2.4162    2.8046    2.7566 C.3     1  LIG1       -0.0375
     20 C           2.4104    5.1468    2.1412 C.3     1  LIG1        0.0470
     21 C           1.9252    3.7602    1.6425 C.3     1  LIG1        0.0473
     22 O           4.4763    6.1115    1.5921 O.2     1  LIG1       -0.4494
     23 O           3.5419    3.8009   -0.0557 O.2     1  LIG1       -0.4493
     24 H           1.4132    7.1922   -3.5955 H       1  LIG1        0.1250
     25 H          -0.5392    0.0128   -2.5966 H       1  LIG1        0.1250
     26 H          -0.1096    7.0624   -1.6414 H       1  LIG1        0.1191
     27 H           3.8302    6.7055   -3.3192 H       1  LIG1        0.1193
     28 H          -1.4383    2.2266   -1.9298 H       1  LIG1        0.1193
     29 H           1.7525   -0.6514   -1.9169 H       1  LIG1        0.1191
     30 H           0.7751    6.4486    0.5832 H       1  LIG1        0.1351
     31 H           4.7272    6.0914   -1.1003 H       1  LIG1        0.1298
     32 H          -0.0559    3.7750   -0.5882 H       1  LIG1        0.1298
     33 H           3.1448    0.8879   -0.5761 H       1  LIG1        0.1351
     34 H           1.6662    4.8773    5.2843 H       1  LIG1        0.1083
     35 H           0.8450    2.5311    4.4405 H       1  LIG1        0.1055
     36 H           4.4834    3.4789    2.3460 H       1  LIG1        0.0741
     37 H           4.2185    2.9664    4.0295 H       1  LIG1        0.0566
     38 H           3.8081    5.5448    3.8757 H       1  LIG1        0.0867
     39 H           2.4779    1.7439    2.5083 H       1  LIG1        0.0886
     40 H           1.5531    5.8114    2.3090 H       1  LIG1        0.1037
     41 H           0.8305    3.7460    1.5660 H       1  LIG1        0.1043
@<TRIPOS>BOND
     1     1     3   ar
     2     1     4   ar
     3     2     5   ar
     4     2     6   ar
     5     3     7   ar
     6     4     8   ar
     7     5     9   ar
     8     6    10   ar
     9     7    11   ar
    10     8    11   ar
    11     9    12   ar
    12    10    12   ar
    13    11    15    1
    14    12    16    1
    15    13    14    2
    16    13    18    1
    17    14    19    1
    18    15    20    1
    19    15    22    2
    20    16    21    1
    21    16    23    2
    22    17    18    1
    23    17    19    1
    24    18    20    1
    25    19    21    1
    26    20    21    1
    27     1    24    1
    28     2    25    1
    29     3    26    1
    30     4    27    1
    31     5    28    1
    32     6    29    1
    33     7    30    1
    34     8    31    1
    35     9    32    1
    36    10    33    1
    37    13    34    1
    38    14    35    1
    39    17    36    1
    40    17    37    1
    41    18    38    1
    42    19    39    1
    43    20    40    1
    44    21    41    1
