@<TRIPOS>MOLECULE
AG-205/33145062
 41 44 0 0 0
SMALL
USER_CHARGES

@<TRIPOS>ATOM
      1 C           2.9212    6.3047   -2.9882 C.ar    1  LIG1       -0.0867
      2 C           2.9097    3.6010    4.7222 C.ar    1  LIG1       -0.0655
      3 C           0.9747    4.9875    4.3094 C.ar    1  LIG1       -0.0634
      4 C           2.0365    2.3073   -1.7408 C.ar    1  LIG1       -0.0843
      5 C           0.8120    2.1223    0.3337 C.ar    1  LIG1       -0.0852
      6 C           3.0982    5.4742   -1.8817 C.ar    1  LIG1       -0.0495
      7 C           1.9724    7.3265   -2.9486 C.ar    1  LIG1       -0.0761
      8 C           2.6326    3.6211    6.0891 C.ar    1  LIG1       -0.0656
      9 C           0.6975    5.0075    5.6764 C.ar    1  LIG1       -0.0644
     10 C           1.0765    1.5212   -2.3777 C.ar    1  LIG1       -0.0700
     11 C          -0.1482    1.3362   -0.3033 C.ar    1  LIG1       -0.0711
     12 C           1.3775    6.6869   -0.6961 C.ar    1  LIG1       -0.0295
     13 C           2.0808    4.2842    3.8324 C.ar    1  LIG1       -0.0291
     14 C           1.9043    2.6080   -0.3851 C.ar    1  LIG1       -0.0748
     15 C           2.3263    5.6651   -0.7357 C.ar    1  LIG1       -0.0167
     16 C           1.5264    4.3243    6.5662 C.ar    1  LIG1       -0.0127
     17 C          -0.0160    1.0356   -1.6590 C.ar    1  LIG1       -0.0143
     18 C           1.2005    7.5175   -1.8027 C.ar    1  LIG1       -0.0104
     19 C           2.3693    4.2631    2.4072 C.2     1  LIG1        0.0123
     20 C           3.0531    3.0807    1.7777 C.3     1  LIG1        0.0317
     21 C           2.9318    3.4515    0.2972 C.3     1  LIG1        0.0238
     22 N           2.0964    5.2346    1.5941 N.2     1  LIG1       -0.3201
     23 N           2.5002    4.8489    0.3507 N.pl3   1  LIG1       -0.3193
     24 CL          1.1838    4.3479    8.2522 Cl      1  LIG1       -0.1398
     25 CL         -1.2002    0.0658   -2.4449 Cl      1  LIG1       -0.1413
     26 CL          0.0295    8.7776   -1.7552 Cl      1  LIG1       -0.1369
     27 H           3.5222    6.1551   -3.8804 H       1  LIG1        0.1360
     28 H           3.7746    3.0504    4.3613 H       1  LIG1        0.1416
     29 H           0.3217    5.5231    3.6252 H       1  LIG1        0.1460
     30 H           2.8849    2.6818   -2.3076 H       1  LIG1        0.1289
     31 H           0.7015    2.3522    1.3902 H       1  LIG1        0.1326
     32 H           3.8403    4.6813   -1.9226 H       1  LIG1        0.1333
     33 H           1.8453    7.9661   -3.8183 H       1  LIG1        0.1224
     34 H           3.2867    3.0838    6.7711 H       1  LIG1        0.1371
     35 H          -0.1679    5.5600    6.0336 H       1  LIG1        0.1366
     36 H           1.1925    1.2954   -3.4346 H       1  LIG1        0.1334
     37 H          -0.9940    0.9647    0.2695 H       1  LIG1        0.1350
     38 H           0.7773    6.8320    0.1997 H       1  LIG1        0.1322
     39 H           4.1003    3.0770    2.0992 H       1  LIG1        0.1015
     40 H           2.5754    2.1374    2.0564 H       1  LIG1        0.1027
     41 H           3.8910    3.3419   -0.2195 H       1  LIG1        0.1395
@<TRIPOS>BOND
     1     1     6   ar
     2     1     7   ar
     3     2     8   ar
     4     2    13   ar
     5     3     9   ar
     6     3    13   ar
     7     4    10   ar
     8     4    14   ar
     9     5    11   ar
    10     5    14   ar
    11     6    15   ar
    12     7    18   ar
    13     8    16   ar
    14     9    16   ar
    15    10    17   ar
    16    11    17   ar
    17    12    15   ar
    18    12    18   ar
    19    13    19    1
    20    14    21    1
    21    15    23    1
    22    16    24    1
    23    17    25    1
    24    18    26    1
    25    19    20    1
    26    19    22    2
    27    20    21    1
    28    21    23    1
    29    22    23    1
    30     1    27    1
    31     2    28    1
    32     3    29    1
    33     4    30    1
    34     5    31    1
    35     6    32    1
    36     7    33    1
    37     8    34    1
    38     9    35    1
    39    10    36    1
    40    11    37    1
    41    12    38    1
    42    20    39    1
    43    20    40    1
    44    21    41    1
