@<TRIPOS>MOLECULE
AO-435/41051471
 44 47 0 0 0
SMALL
USER_CHARGES

@<TRIPOS>ATOM
      1 C          -0.1044    0.8750   -0.9084 C.ar    1  LIG1       -0.1037
      2 C           1.2770    4.3616    6.2124 C.ar    1  LIG1       -0.1106
      3 C           3.7914    5.9063   -4.4735 C.ar    1  LIG1       -0.0865
      4 C           1.2534    0.5570   -0.9389 C.ar    1  LIG1       -0.1009
      5 C          -0.5068    2.2084   -0.8316 C.ar    1  LIG1       -0.1020
      6 C           4.0522    4.5275   -4.3803 C.ar    1  LIG1       -0.0891
      7 C           2.5668    3.9273    5.9065 C.ar    1  LIG1       -0.1091
      8 C           0.4148    4.7605    5.1910 C.ar    1  LIG1       -0.1088
      9 C           3.2520    6.6046   -3.3926 C.ar    1  LIG1       -0.0623
     10 C           2.2088    1.5722   -0.8924 C.ar    1  LIG1       -0.0864
     11 C           0.4486    3.2236   -0.7850 C.ar    1  LIG1       -0.0880
     12 C           3.7761    3.8228   -3.2044 C.ar    1  LIG1       -0.0752
     13 C           2.9943    3.8921    4.5793 C.ar    1  LIG1       -0.1061
     14 C           0.8423    4.7252    3.8638 C.ar    1  LIG1       -0.1058
     15 C           2.9871    5.8855   -2.2427 C.ar    1  LIG1        0.0410
     16 C           1.8063    2.9057   -0.8154 C.ar    1  LIG1       -0.0425
     17 C           3.2354    4.5158   -2.1335 C.ar    1  LIG1       -0.0137
     18 C           2.1321    4.2910    3.5578 C.ar    1  LIG1       -0.1094
     19 C           2.4376    6.3663   -0.9719 C.2     1  LIG1        0.1342
     20 C           2.8495    4.0154   -0.7644 C.3     1  LIG1        0.0687
     21 C           2.5940    4.2533    2.1218 C.3     1  LIG1       -0.0172
     22 C           1.9277    5.3179    1.2537 C.3     1  LIG1        0.0071
     23 N           2.3588    5.2570   -0.1323 N.am    1  LIG1       -0.2990
     24 O           2.1373    7.5269   -0.7583 O.2     1  LIG1       -0.4592
     25 O           4.0539    3.6294   -0.1049 O.3     1  LIG1       -0.4348
     26 H          -0.8482    0.0844   -0.9461 H       1  LIG1        0.1200
     27 H           0.9437    4.3877    7.2458 H       1  LIG1        0.1119
     28 H           4.0156    6.4321   -5.3977 H       1  LIG1        0.1304
     29 H           1.5670   -0.4811   -0.9999 H       1  LIG1        0.1196
     30 H          -1.5638    2.4564   -0.8089 H       1  LIG1        0.1202
     31 H           4.4750    4.0044   -5.2340 H       1  LIG1        0.1349
     32 H           3.2379    3.6157    6.7015 H       1  LIG1        0.1134
     33 H          -0.5898    5.0976    5.4288 H       1  LIG1        0.1140
     34 H           3.0543    7.6680   -3.4614 H       1  LIG1        0.1447
     35 H           3.2645    1.3151   -0.9164 H       1  LIG1        0.1213
     36 H           0.1257    4.2597   -0.7250 H       1  LIG1        0.1205
     37 H           3.9834    2.7599   -3.1403 H       1  LIG1        0.1316
     38 H           4.0010    3.5525    4.3503 H       1  LIG1        0.1154
     39 H           0.1637    5.0380    3.0747 H       1  LIG1        0.1162
     40 H           2.3730    3.2600    1.7111 H       1  LIG1        0.0715
     41 H           3.6855    4.3609    2.0802 H       1  LIG1        0.0796
     42 H           0.8427    5.1734    1.2535 H       1  LIG1        0.1211
     43 H           2.1375    6.3279    1.6209 H       1  LIG1        0.1234
     44 H           4.6468    4.3990   -0.1259 H       1  LIG1        0.3496
@<TRIPOS>BOND
     1     1     4   ar
     2     1     5   ar
     3     2     7   ar
     4     2     8   ar
     5     3     6   ar
     6     3     9   ar
     7     4    10   ar
     8     5    11   ar
     9     6    12   ar
    10     7    13   ar
    11     8    14   ar
    12     9    15   ar
    13    10    16   ar
    14    11    16   ar
    15    12    17   ar
    16    13    18   ar
    17    14    18   ar
    18    15    17   ar
    19    15    19    1
    20    16    20    1
    21    17    20    1
    22    18    21    1
    23    19    23   am
    24    19    24    2
    25    20    23    1
    26    20    25    1
    27    21    22    1
    28    22    23    1
    29     1    26    1
    30     2    27    1
    31     3    28    1
    32     4    29    1
    33     5    30    1
    34     6    31    1
    35     7    32    1
    36     8    33    1
    37     9    34    1
    38    10    35    1
    39    11    36    1
    40    12    37    1
    41    13    38    1
    42    14    39    1
    43    21    40    1
    44    21    41    1
    45    22    42    1
    46    22    43    1
    47    25    44    1
