@<TRIPOS>MOLECULE
AG-670/34887028
 50 52 0 0 0
SMALL
USER_CHARGES

@<TRIPOS>ATOM
      1 C           1.7724    4.2283    2.5950 C.1     1  LIG1       -0.2031
      2 C           2.0699    4.0995    1.4379 C.1     1  LIG1       -0.1201
      3 C           1.9838    7.5664   -2.2957 C.ar    1  LIG1       -0.1022
      4 C           0.1909    0.7200   -1.8007 C.ar    1  LIG1       -0.1034
      5 C           1.1542    7.3260   -1.2005 C.ar    1  LIG1       -0.1027
      6 C           2.9618    6.6360   -2.6474 C.ar    1  LIG1       -0.0996
      7 C          -0.4752    1.8188   -1.2578 C.ar    1  LIG1       -0.1025
      8 C           1.5839    0.6584   -1.7591 C.ar    1  LIG1       -0.0981
      9 C           1.3027    6.1554   -0.4567 C.ar    1  LIG1       -0.0938
     10 C           3.1103    5.4654   -1.9036 C.ar    1  LIG1       -0.0885
     11 C           0.2517    2.8561   -0.6735 C.ar    1  LIG1       -0.0879
     12 C           2.3107    1.6956   -1.1748 C.ar    1  LIG1       -0.0802
     13 C           2.2808    5.2250   -0.8083 C.ar    1  LIG1       -0.0497
     14 C           1.6447    2.7945   -0.6320 C.ar    1  LIG1       -0.0403
     15 C          -2.1657    6.7857    4.6769 C.3     1  LIG1       -0.0671
     16 C          -1.7182    6.4587    3.2602 C.3     1  LIG1       -0.0725
     17 C          -0.9646    6.9959    5.5893 C.3     1  LIG1       -0.0739
     18 C          -0.7847    5.2602    3.2374 C.3     1  LIG1       -0.0975
     19 C          -0.0067    5.7976    5.5765 C.3     1  LIG1       -0.1151
     20 C           1.2144    6.1031    6.4417 C.3     1  LIG1       -0.0674
     21 C           1.4042    4.3891    3.9985 C.3     1  LIG1       -0.0417
     22 C           2.4450    3.9355    0.0106 C.3     1  LIG1        0.0822
     23 N           0.4108    5.5177    4.1344 N.4     1  LIG1        0.4048
     24 O           3.8377    3.5798    0.0361 O.3     1  LIG1       -0.4322
     25 H           1.8671    8.4773   -2.8756 H       1  LIG1        0.1234
     26 H          -0.3752   -0.0881   -2.2545 H       1  LIG1        0.1220
     27 H           0.3919    8.0498   -0.9272 H       1  LIG1        0.1198
     28 H           3.6072    6.8223   -3.5007 H       1  LIG1        0.1235
     29 H          -1.5597    1.8664   -1.2892 H       1  LIG1        0.1190
     30 H           2.1027   -0.1974   -2.1806 H       1  LIG1        0.1218
     31 H           0.6520    5.9766    0.3953 H       1  LIG1        0.1143
     32 H           3.8751    4.7463   -2.1848 H       1  LIG1        0.1296
     33 H          -0.2757    3.7084   -0.2532 H       1  LIG1        0.1165
     34 H           3.3956    1.6392   -1.1470 H       1  LIG1        0.1355
     35 H          -2.7895    7.6867    4.6705 H       1  LIG1        0.0604
     36 H          -2.7856    5.9690    5.0665 H       1  LIG1        0.0499
     37 H          -2.5950    6.2528    2.6362 H       1  LIG1        0.0576
     38 H          -1.2135    7.3295    2.8235 H       1  LIG1        0.0744
     39 H          -0.4320    7.9046    5.2788 H       1  LIG1        0.0752
     40 H          -1.3202    7.1737    6.6115 H       1  LIG1        0.0597
     41 H          -1.2781    4.3502    3.5973 H       1  LIG1        0.0884
     42 H          -0.4062    5.0946    2.2233 H       1  LIG1        0.0897
     43 H          -0.5137    4.8962    5.9417 H       1  LIG1        0.0945
     44 H           1.7126    6.9986    6.0738 H       1  LIG1        0.0496
     45 H           1.9108    5.2671    6.4053 H       1  LIG1        0.0661
     46 H           0.9048    6.2652    7.4728 H       1  LIG1        0.0479
     47 H           2.2646    4.6498    4.6205 H       1  LIG1        0.1426
     48 H           0.9216    3.4944    4.4007 H       1  LIG1        0.1433
     49 H           0.8778    6.3631    3.7783 H       1  LIG1        0.1776
     50 H           4.2902    4.3163    0.4680 H       1  LIG1        0.3503
@<TRIPOS>BOND
     1     1     2    3
     2     1    21    1
     3     2    22    1
     4     3     5   ar
     5     3     6   ar
     6     4     7   ar
     7     4     8   ar
     8     5     9   ar
     9     6    10   ar
    10     7    11   ar
    11     8    12   ar
    12     9    13   ar
    13    10    13   ar
    14    11    14   ar
    15    12    14   ar
    16    13    22    1
    17    14    22    1
    18    15    16    1
    19    15    17    1
    20    16    18    1
    21    17    19    1
    22    18    23    1
    23    19    20    1
    24    19    23    1
    25    21    23    1
    26    22    24    1
    27     3    25    1
    28     4    26    1
    29     5    27    1
    30     6    28    1
    31     7    29    1
    32     8    30    1
    33     9    31    1
    34    10    32    1
    35    11    33    1
    36    12    34    1
    37    15    35    1
    38    15    36    1
    39    16    37    1
    40    16    38    1
    41    17    39    1
    42    17    40    1
    43    18    41    1
    44    18    42    1
    45    19    43    1
    46    20    44    1
    47    20    45    1
    48    20    46    1
    49    21    47    1
    50    21    48    1
    51    23    49    1
    52    24    50    1
