@<TRIPOS>MOLECULE
AG-670/40885274
 52 55 0 0 0
SMALL
USER_CHARGES

@<TRIPOS>ATOM
      1 C           0.3626    0.6130   -1.9390 C.ar    1  LIG1       -0.1080
      2 C           2.1761    7.5583   -2.4634 C.ar    1  LIG1       -0.1059
      3 C           1.6942    0.9624   -2.1631 C.ar    1  LIG1       -0.1065
      4 C          -0.4222    1.3750   -1.0735 C.ar    1  LIG1       -0.1023
      5 C           3.1656    6.5822   -2.5807 C.ar    1  LIG1       -0.1043
      6 C           1.1472    7.4002   -1.5349 C.ar    1  LIG1       -0.1044
      7 C           2.2411    2.0737   -1.5217 C.ar    1  LIG1       -0.0974
      8 C           0.1247    2.4863   -0.4320 C.ar    1  LIG1       -0.0919
      9 C           3.1262    5.4480   -1.7698 C.ar    1  LIG1       -0.0989
     10 C           1.1078    6.2659   -0.7239 C.ar    1  LIG1       -0.0985
     11 C           2.9101    4.2801    6.1090 C.ar    1  LIG1       -0.0570
     12 C           3.1358    4.1264    4.7411 C.ar    1  LIG1       -0.0549
     13 C           0.8185    4.6487    4.3002 C.ar    1  LIG1       -0.0318
     14 C           1.4563    2.8357   -0.6561 C.ar    1  LIG1       -0.0684
     15 C           2.0973    5.2898   -0.8414 C.ar    1  LIG1       -0.0748
     16 C           1.6386    4.6180    6.5724 C.ar    1  LIG1       -0.0336
     17 C           2.0900    4.3107    3.8368 C.ar    1  LIG1       -0.0423
     18 C           0.5928    4.8023    5.6680 C.ar    1  LIG1        0.0260
     19 C           1.4012    4.3100    1.4118 C.2     1  LIG1        0.1107
     20 C           1.6473    6.0946    8.5409 C.3     1  LIG1       -0.0085
     21 C           1.7001    3.6352    8.8496 C.3     1  LIG1       -0.0083
     22 C           0.9195    6.1806    9.8777 C.3     1  LIG1        0.0170
     23 C           0.9699    3.8526   10.1703 C.3     1  LIG1        0.0171
     24 C           2.0533    4.0500    0.0454 C.3     1  LIG1        0.0876
     25 N           1.4435    4.7650    7.9496 N.pl3   1  LIG1       -0.3998
     26 N           2.3164    4.1569    2.4685 N.am    1  LIG1       -0.3086
     27 O           0.2167    4.6150    1.5196 O.2     1  LIG1       -0.4670
     28 O           1.3242    5.1142   10.7358 O.3     1  LIG1       -0.4580
     29 CL         -0.9966    5.2213    6.1997 Cl      1  LIG1       -0.1236
     30 H          -0.0635   -0.2516   -2.4396 H       1  LIG1        0.1147
     31 H           2.2078    8.4419   -3.0940 H       1  LIG1        0.1172
     32 H           2.3051    0.3698   -2.8379 H       1  LIG1        0.1143
     33 H          -1.4594    1.1040   -0.8996 H       1  LIG1        0.1148
     34 H           3.9674    6.7056   -3.3029 H       1  LIG1        0.1176
     35 H           0.3773    8.1604   -1.4424 H       1  LIG1        0.1181
     36 H           3.2796    2.3384   -1.7022 H       1  LIG1        0.1179
     37 H          -0.4943    3.0741    0.2408 H       1  LIG1        0.1241
     38 H           3.9013    4.6925   -1.8684 H       1  LIG1        0.1182
     39 H           0.3022    6.1512   -0.0034 H       1  LIG1        0.1208
     40 H           3.7331    4.1339    6.8040 H       1  LIG1        0.1350
     41 H           4.1308    3.8629    4.3913 H       1  LIG1        0.1468
     42 H           0.0061    4.7914    3.5904 H       1  LIG1        0.1447
     43 H           1.2753    6.8789    7.8712 H       1  LIG1        0.0773
     44 H           2.7216    6.2560    8.6974 H       1  LIG1        0.1045
     45 H           2.7792    3.5620    9.0359 H       1  LIG1        0.1085
     46 H           1.3645    2.6943    8.3979 H       1  LIG1        0.0741
     47 H           1.1643    7.1246   10.3750 H       1  LIG1        0.1292
     48 H          -0.1687    6.1492    9.7443 H       1  LIG1        0.0997
     49 H          -0.1177    3.8069   10.0365 H       1  LIG1        0.1001
     50 H           1.2489    3.0718   10.8849 H       1  LIG1        0.1291
     51 H           3.1025    3.8025    0.2721 H       1  LIG1        0.1451
     52 H           3.2736    3.9079    2.1942 H       1  LIG1        0.3245
@<TRIPOS>BOND
     1     1     3   ar
     2     1     4   ar
     3     2     5   ar
     4     2     6   ar
     5     3     7   ar
     6     4     8   ar
     7     5     9   ar
     8     6    10   ar
     9     7    14   ar
    10     8    14   ar
    11     9    15   ar
    12    10    15   ar
    13    11    12   ar
    14    11    16   ar
    15    12    17   ar
    16    13    17   ar
    17    13    18   ar
    18    14    24    1
    19    15    24    1
    20    16    18   ar
    21    16    25    1
    22    17    26    1
    23    18    29    1
    24    19    24    1
    25    19    26   am
    26    19    27    2
    27    20    22    1
    28    20    25    1
    29    21    23    1
    30    21    25    1
    31    22    28    1
    32    23    28    1
    33     1    30    1
    34     2    31    1
    35     3    32    1
    36     4    33    1
    37     5    34    1
    38     6    35    1
    39     7    36    1
    40     8    37    1
    41     9    38    1
    42    10    39    1
    43    11    40    1
    44    12    41    1
    45    13    42    1
    46    20    43    1
    47    20    44    1
    48    21    45    1
    49    21    46    1
    50    22    47    1
    51    22    48    1
    52    23    49    1
    53    23    50    1
    54    24    51    1
    55    26    52    1
