@<TRIPOS>MOLECULE
AG-205/12761741
 35 36 0 0 0
SMALL
USER_CHARGES

@<TRIPOS>ATOM
      1 C           2.1130    7.6748   -2.5752 C.ar    1  LIG1       -0.1055
      2 C           0.3904    0.4813   -2.1493 C.ar    1  LIG1       -0.1055
      3 C           2.9137    6.5336   -2.6215 C.ar    1  LIG1       -0.1116
      4 C           1.0761    7.7621   -1.6462 C.ar    1  LIG1       -0.1065
      5 C           1.7090    0.7678   -1.7961 C.ar    1  LIG1       -0.1116
      6 C          -0.6395    1.3330   -1.7497 C.ar    1  LIG1       -0.1065
      7 C           2.6774    5.4796   -1.7388 C.ar    1  LIG1       -0.0859
      8 C           0.8399    6.7082   -0.7636 C.ar    1  LIG1       -0.0804
      9 C           1.9978    1.9060   -1.0431 C.ar    1  LIG1       -0.0859
     10 C          -0.3508    2.4711   -0.9968 C.ar    1  LIG1       -0.0804
     11 C           1.6406    5.5669   -0.8099 C.ar    1  LIG1        0.0930
     12 C           0.9679    2.7576   -0.6434 C.ar    1  LIG1        0.0930
     13 C           3.1836    5.2527    2.1438 C.3     1  LIG1       -0.0065
     14 C           2.7375    2.7957    2.2933 C.3     1  LIG1       -0.0065
     15 C           2.8517    3.9892    1.3464 C.3     1  LIG1        0.1467
     16 O           0.2211    4.5227    1.3015 O.2     1  LIG1       -0.3674
     17 O           3.9103    3.7615    0.4243 O.3     1  LIG1       -0.4923
     18 P           1.3379    4.2162    0.3214 P.3     1  LIG1        0.0786
     19 H           2.2971    8.4953   -3.2626 H       1  LIG1        0.1239
     20 H           0.1658   -0.4049   -2.7355 H       1  LIG1        0.1239
     21 H           3.7207    6.4654   -3.3450 H       1  LIG1        0.1122
     22 H           0.4530    8.6508   -1.6101 H       1  LIG1        0.1176
     23 H           2.5108    0.1045   -2.1069 H       1  LIG1        0.1122
     24 H          -1.6661    1.1100   -2.0251 H       1  LIG1        0.1176
     25 H           3.3033    4.5927   -1.7789 H       1  LIG1        0.1262
     26 H           0.0316    6.7810   -0.0416 H       1  LIG1        0.1327
     27 H           3.0261    2.1247   -0.7699 H       1  LIG1        0.1262
     28 H          -1.1560    3.1316   -0.6883 H       1  LIG1        0.1327
     29 H           3.2698    6.1204    1.4816 H       1  LIG1        0.0499
     30 H           4.1476    5.1551    2.6557 H       1  LIG1        0.0354
     31 H           2.4114    5.4689    2.8884 H       1  LIG1        0.0351
     32 H           2.5001    1.8781    1.7463 H       1  LIG1        0.0351
     33 H           1.9631    2.9645    3.0500 H       1  LIG1        0.0355
     34 H           3.6714    2.6316    2.8386 H       1  LIG1        0.0499
     35 H           4.7323    3.6455    0.9305 H       1  LIG1        0.3170
@<TRIPOS>BOND
     1     1     3   ar
     2     1     4   ar
     3     2     5   ar
     4     2     6   ar
     5     3     7   ar
     6     4     8   ar
     7     5     9   ar
     8     6    10   ar
     9     7    11   ar
    10     8    11   ar
    11     9    12   ar
    12    10    12   ar
    13    11    18    1
    14    12    18    1
    15    13    15    1
    16    14    15    1
    17    15    17    1
    18    15    18    1
    19    16    18    2
    20     1    19    1
    21     2    20    1
    22     3    21    1
    23     4    22    1
    24     5    23    1
    25     6    24    1
    26     7    25    1
    27     8    26    1
    28     9    27    1
    29    10    28    1
    30    13    29    1
    31    13    30    1
    32    13    31    1
    33    14    32    1
    34    14    33    1
    35    14    34    1
    36    17    35    1
