@<TRIPOS>MOLECULE
AN-465/14954279
 58 61 0 0 0
SMALL
USER_CHARGES

@<TRIPOS>ATOM
      1 C           0.3625    0.6130   -1.9390 C.ar    1  LIG1       -0.1086
      2 C           2.1760    7.5582   -2.4633 C.ar    1  LIG1       -0.1065
      3 C           1.6941    0.9625   -2.1632 C.ar    1  LIG1       -0.1070
      4 C          -0.4222    1.3750   -1.0733 C.ar    1  LIG1       -0.1026
      5 C           3.1655    6.5822   -2.5808 C.ar    1  LIG1       -0.1047
      6 C           1.1473    7.4002   -1.5347 C.ar    1  LIG1       -0.1049
      7 C           2.2411    2.0738   -1.5218 C.ar    1  LIG1       -0.0975
      8 C           0.1247    2.4863   -0.4319 C.ar    1  LIG1       -0.0916
      9 C           3.1261    5.4480   -1.7699 C.ar    1  LIG1       -0.0986
     10 C           1.1079    6.2659   -0.7238 C.ar    1  LIG1       -0.0985
     11 C           0.5927    4.8023    5.6673 C.ar    1  LIG1       -0.0618
     12 C           2.9098    4.2802    6.1094 C.ar    1  LIG1       -0.0657
     13 C           0.8189    4.6486    4.2996 C.ar    1  LIG1       -0.0638
     14 C           3.1361    4.1264    4.7416 C.ar    1  LIG1       -0.0702
     15 C           1.4564    2.8357   -0.6560 C.ar    1  LIG1       -0.0683
     16 C           2.0974    5.2898   -0.8413 C.ar    1  LIG1       -0.0746
     17 C           1.6381    4.6182    6.5722 C.ar    1  LIG1       -0.0696
     18 C           2.0906    4.3106    3.8367 C.ar    1  LIG1       -0.0565
     19 C           0.9402    5.2767   12.1685 C.2     1  LIG1        0.0714
     20 C           1.4015    4.3099    1.4119 C.2     1  LIG1        0.1070
     21 C           0.3948    5.7018    8.4362 C.3     1  LIG1       -0.0139
     22 C           2.1641    3.9804    8.9151 C.3     1  LIG1       -0.0134
     23 C           0.7625    6.2135    9.8290 C.3     1  LIG1       -0.0015
     24 C           1.3738    3.8346   10.2136 C.3     1  LIG1       -0.0008
     25 C           0.5680    6.6484   12.6756 C.3     1  LIG1        0.0495
     26 C           2.0536    4.0500    0.0453 C.3     1  LIG1        0.0869
     27 N           1.4128    4.7735    7.9379 N.pl3   1  LIG1       -0.4103
     28 N           1.0148    5.1310   10.7828 N.am    1  LIG1       -0.3565
     29 N           2.3168    4.1568    2.4687 N.am    1  LIG1       -0.3161
     30 O           1.1525    4.3661   12.9727 O.2     1  LIG1       -0.4998
     31 O           0.2170    4.6150    1.5198 O.2     1  LIG1       -0.4711
     32 H          -0.0636   -0.2515   -2.4395 H       1  LIG1        0.1138
     33 H           2.2076    8.4420   -3.0938 H       1  LIG1        0.1163
     34 H           2.3050    0.3699   -2.8380 H       1  LIG1        0.1136
     35 H          -1.4593    1.1040   -0.8993 H       1  LIG1        0.1142
     36 H           3.9673    6.7056   -3.3031 H       1  LIG1        0.1169
     37 H           0.3773    8.1604   -1.4421 H       1  LIG1        0.1175
     38 H           3.2797    2.3384   -1.7024 H       1  LIG1        0.1175
     39 H          -0.4941    3.0740    0.2410 H       1  LIG1        0.1243
     40 H           3.9013    4.6925   -1.8686 H       1  LIG1        0.1181
     41 H           0.3024    6.1512   -0.0032 H       1  LIG1        0.1204
     42 H          -0.4021    5.0668    6.0168 H       1  LIG1        0.1180
     43 H           3.7317    4.1345    6.8056 H       1  LIG1        0.1175
     44 H          -0.0027    4.7957    3.6030 H       1  LIG1        0.1421
     45 H           4.1309    3.8639    4.3907 H       1  LIG1        0.1297
     46 H          -0.5754    5.1901    8.4759 H       1  LIG1        0.1233
     47 H           0.2955    6.5537    7.7531 H       1  LIG1        0.1021
     48 H           3.1188    4.4834    9.1106 H       1  LIG1        0.1231
     49 H           2.3946    2.9828    8.5212 H       1  LIG1        0.1018
     50 H           1.6812    6.8107    9.7811 H       1  LIG1        0.1064
     51 H          -0.0353    6.8623   10.2026 H       1  LIG1        0.1238
     52 H           0.4356    3.2954   10.0336 H       1  LIG1        0.1271
     53 H           1.9508    3.2529   10.9404 H       1  LIG1        0.1049
     54 H          -0.5108    6.7105   12.7683 H       1  LIG1        0.0912
     55 H           0.9244    7.3945   11.9731 H       1  LIG1        0.0824
     56 H           1.0342    6.8068   13.6423 H       1  LIG1        0.0909
     57 H           3.1026    3.8025    0.2720 H       1  LIG1        0.1431
     58 H           3.2740    3.9078    2.1941 H       1  LIG1        0.3195
@<TRIPOS>BOND
     1     1     3   ar
     2     1     4   ar
     3     2     5   ar
     4     2     6   ar
     5     3     7   ar
     6     4     8   ar
     7     5     9   ar
     8     6    10   ar
     9     7    15   ar
    10     8    15   ar
    11     9    16   ar
    12    10    16   ar
    13    11    13   ar
    14    11    17   ar
    15    12    14   ar
    16    12    17   ar
    17    13    18   ar
    18    14    18   ar
    19    15    26    1
    20    16    26    1
    21    17    27    1
    22    18    29    1
    23    19    25    1
    24    19    28   am
    25    19    30    2
    26    20    26    1
    27    20    29   am
    28    20    31    2
    29    21    23    1
    30    21    27    1
    31    22    24    1
    32    22    27    1
    33    23    28    1
    34    24    28    1
    35     1    32    1
    36     2    33    1
    37     3    34    1
    38     4    35    1
    39     5    36    1
    40     6    37    1
    41     7    38    1
    42     8    39    1
    43     9    40    1
    44    10    41    1
    45    11    42    1
    46    12    43    1
    47    13    44    1
    48    14    45    1
    49    21    46    1
    50    21    47    1
    51    22    48    1
    52    22    49    1
    53    23    50    1
    54    23    51    1
    55    24    52    1
    56    24    53    1
    57    25    54    1
    58    25    55    1
    59    25    56    1
    60    26    57    1
    61    29    58    1
