@<TRIPOS>MOLECULE
AG-690/33369012
 38 41 0 0 0
SMALL
USER_CHARGES

@<TRIPOS>ATOM
      1 C           2.1145    6.9809   -2.2164 C.ar    1  LIG1       -0.1153
      2 C           1.1610    5.2951    4.2830 C.ar    1  LIG1       -0.0626
      3 C           2.7961    3.6102    4.8525 C.ar    1  LIG1       -0.0651
      4 C           0.1163    2.3884   -0.5370 C.ar    1  LIG1       -0.0341
      5 C          -0.5056    1.6211   -1.5220 C.ar    1  LIG1       -0.0556
      6 C           0.9623    5.5603    5.6379 C.ar    1  LIG1       -0.0729
      7 C           2.5975    3.8754    6.2075 C.ar    1  LIG1       -0.0742
      8 C           2.9337    5.9253   -1.7219 C.ar    1  LIG1       -0.1084
      9 C           1.6565    0.9211   -2.3417 C.ar    1  LIG1       -0.0303
     10 C           1.0318    7.2217   -1.3994 C.ar    1  LIG1       -0.0539
     11 C           2.0778    4.3200    3.8903 C.ar    1  LIG1       -0.0279
     12 C           1.5083    2.4220   -0.4544 C.ar    1  LIG1        0.0143
     13 C           0.2645    0.8874   -2.4243 C.ar    1  LIG1       -0.0027
     14 C           2.2784    1.6884   -1.3568 C.ar    1  LIG1        0.0500
     15 C           1.6806    4.8505    6.6002 C.ar    1  LIG1       -0.0392
     16 C           2.4462    5.3995   -0.5455 C.ar    1  LIG1       -0.0370
     17 C           2.2849    4.0434    2.4777 C.2     1  LIG1        0.0174
     18 C           3.3279    4.7900    1.6919 C.3     1  LIG1        0.0352
     19 C           3.0081    4.2983    0.2776 C.3     1  LIG1        0.0301
     20 N           1.6328    3.1463    1.8075 N.2     1  LIG1       -0.3160
     21 N           2.0909    3.1849    0.5244 N.pl3   1  LIG1       -0.3132
     22 S           1.0062    6.1777   -0.0422 S.2     1  LIG1       -0.1389
     23 CL         -0.5036   -0.0602   -3.6383 Cl      1  LIG1       -0.1345
     24 CL          4.0046    1.6999   -1.2875 Cl      1  LIG1       -0.1078
     25 BR          1.4115    5.2100    8.4359 Br      1  LIG1       -0.1102
     26 H           2.3090    7.5363   -3.1244 H       1  LIG1        0.1099
     27 H           0.5959    5.8541    3.5416 H       1  LIG1        0.1447
     28 H           3.5131    2.8481    4.5576 H       1  LIG1        0.1397
     29 H          -0.4946    2.9556    0.1608 H       1  LIG1        0.1484
     30 H          -1.5913    1.6039   -1.5740 H       1  LIG1        0.1460
     31 H           0.2442    6.3233    5.9271 H       1  LIG1        0.1373
     32 H           3.1652    3.3134    6.9446 H       1  LIG1        0.1377
     33 H           3.8353    5.5739   -2.2075 H       1  LIG1        0.1146
     34 H           2.2554    0.3474   -3.0461 H       1  LIG1        0.1522
     35 H           0.2546    7.9604   -1.5346 H       1  LIG1        0.1612
     36 H           3.2421    5.8708    1.8354 H       1  LIG1        0.1022
     37 H           4.3171    4.4495    2.0165 H       1  LIG1        0.1048
     38 H           3.9222    3.9363   -0.2077 H       1  LIG1        0.1539
@<TRIPOS>BOND
     1     1     8   ar
     2     1    10   ar
     3     2     6   ar
     4     2    11   ar
     5     3     7   ar
     6     3    11   ar
     7     4     5   ar
     8     4    12   ar
     9     5    13   ar
    10     6    15   ar
    11     7    15   ar
    12     8    16   ar
    13     9    13   ar
    14     9    14   ar
    15    10    22   ar
    16    11    17    1
    17    12    14   ar
    18    12    21    1
    19    13    23    1
    20    14    24    1
    21    15    25    1
    22    16    19    1
    23    16    22   ar
    24    17    18    1
    25    17    20    2
    26    18    19    1
    27    19    21    1
    28    20    21    1
    29     1    26    1
    30     2    27    1
    31     3    28    1
    32     4    29    1
    33     5    30    1
    34     6    31    1
    35     7    32    1
    36     8    33    1
    37     9    34    1
    38    10    35    1
    39    18    36    1
    40    18    37    1
    41    19    38    1
