@<TRIPOS>MOLECULE
AE-477/13519028
 43 46 0 0 0
SMALL
USER_CHARGES

@<TRIPOS>ATOM
      1 C           1.6150    4.6275    6.4340 C.ar    1  LIG1       -0.1072
      2 C           0.7333    5.2653    5.5616 C.ar    1  LIG1       -0.1033
      3 C           2.7790    4.0375    5.9412 C.ar    1  LIG1       -0.1050
      4 C           2.2313    6.5663   -2.4166 C.ar    1  LIG1       -0.1058
      5 C           2.0080    7.6339   -1.5519 C.ar    1  LIG1       -0.0989
      6 C           1.0153    5.3133    4.1964 C.ar    1  LIG1       -0.0922
      7 C           3.0611    4.0854    4.5760 C.ar    1  LIG1       -0.0950
      8 C           2.3389    5.2689   -1.9126 C.ar    1  LIG1       -0.0987
      9 C           2.2528    1.4990   -1.3776 C.ar    1  LIG1       -0.1008
     10 C           0.1754    2.6306   -0.8869 C.ar    1  LIG1       -0.0991
     11 C           1.5547    0.5299   -2.0980 C.ar    1  LIG1       -0.1062
     12 C          -0.5228    1.6615   -1.6074 C.ar    1  LIG1       -0.1046
     13 C           1.9103    7.4076   -0.1810 C.ar    1  LIG1       -0.0604
     14 C           1.5631    2.5494   -0.7720 C.ar    1  LIG1       -0.1017
     15 C           2.1792    4.7233    3.7035 C.ar    1  LIG1       -0.0721
     16 C           2.2118    5.0183   -0.5360 C.ar    1  LIG1       -0.0652
     17 C           0.1670    0.6111   -2.2129 C.ar    1  LIG1       -0.1201
     18 C           2.0343    6.1108    0.3272 C.ar    1  LIG1       -0.0020
     19 C           1.8968    3.5671    1.4911 C.3     1  LIG1       -0.0113
     20 C           2.3237    3.6071    0.0137 C.3     1  LIG1       -0.0173
     21 C           2.4860    4.7747    2.2214 C.3     1  LIG1        0.0416
     22 C          -0.5786   -0.4246   -2.9849 C.3     1  LIG1       -0.0450
     23 O           1.9524    5.9976    1.6919 O.3     1  LIG1       -0.3992
     24 H           1.3960    4.5914    7.4971 H       1  LIG1        0.1163
     25 H          -0.1726    5.7257    5.9453 H       1  LIG1        0.1163
     26 H           3.4664    3.5417    6.6202 H       1  LIG1        0.1170
     27 H           2.3227    6.7421   -3.4846 H       1  LIG1        0.1092
     28 H           1.9188    8.6425   -1.9443 H       1  LIG1        0.1255
     29 H           0.3223    5.8122    3.5241 H       1  LIG1        0.1247
     30 H           3.9702    3.6229    4.2009 H       1  LIG1        0.1203
     31 H           2.5171    4.4527   -2.6086 H       1  LIG1        0.1240
     32 H           3.3340    1.4276   -1.2932 H       1  LIG1        0.1172
     33 H          -0.3697    3.4465   -0.4193 H       1  LIG1        0.1174
     34 H           2.1007   -0.2838   -2.5680 H       1  LIG1        0.1151
     35 H          -1.6040    1.7322   -1.6921 H       1  LIG1        0.1151
     36 H           1.7517    8.2488    0.4890 H       1  LIG1        0.1252
     37 H           0.7993    3.5982    1.5642 H       1  LIG1        0.0727
     38 H           2.2188    2.6250    1.9536 H       1  LIG1        0.0687
     39 H           3.4021    3.3296   -0.0381 H       1  LIG1        0.0935
     40 H           3.5911    4.7968    2.1192 H       1  LIG1        0.1304
     41 H          -0.8731   -1.2521   -2.3279 H       1  LIG1        0.0557
     42 H          -1.4835   -0.0052   -3.4433 H       1  LIG1        0.0525
     43 H           0.0329   -0.8296   -3.8018 H       1  LIG1        0.0527
@<TRIPOS>BOND
     1     1     2   ar
     2     1     3   ar
     3     2     6   ar
     4     3     7   ar
     5     4     5   ar
     6     4     8   ar
     7     5    13   ar
     8     6    15   ar
     9     7    15   ar
    10     8    16   ar
    11     9    11   ar
    12     9    14   ar
    13    10    12   ar
    14    10    14   ar
    15    11    17   ar
    16    12    17   ar
    17    13    18   ar
    18    14    20    1
    19    15    21    1
    20    16    18   ar
    21    16    20    1
    22    17    22    1
    23    18    23    1
    24    19    20    1
    25    19    21    1
    26    21    23    1
    27     1    24    1
    28     2    25    1
    29     3    26    1
    30     4    27    1
    31     5    28    1
    32     6    29    1
    33     7    30    1
    34     8    31    1
    35     9    32    1
    36    10    33    1
    37    11    34    1
    38    12    35    1
    39    13    36    1
    40    19    37    1
    41    19    38    1
    42    20    39    1
    43    21    40    1
    44    22    41    1
    45    22    42    1
    46    22    43    1
