@<TRIPOS>MOLECULE
AO-435/41051477
 40 43 0 0 0
SMALL
USER_CHARGES

@<TRIPOS>ATOM
      1 C          -0.0395    0.7499   -1.2574 C.ar    1  LIG1       -0.1055
      2 C           1.3164    0.4272   -1.3090 C.ar    1  LIG1       -0.1053
      3 C          -0.4353    2.0549   -0.9638 C.ar    1  LIG1       -0.1031
      4 C           2.2961    6.8025   -2.7408 C.ar    1  LIG1       -0.0965
      5 C           1.7862    7.7286   -1.8385 C.ar    1  LIG1       -0.0880
      6 C           0.7802    4.3907    3.8157 C.ar    1  LIG1       -0.0695
      7 C           3.1272    4.6778    4.3119 C.ar    1  LIG1       -0.0731
      8 C           2.2768    1.4093   -1.0667 C.ar    1  LIG1       -0.1003
      9 C           0.5251    3.0370   -0.7215 C.ar    1  LIG1       -0.0978
     10 C           2.6621    5.5332   -2.2977 C.ar    1  LIG1       -0.0890
     11 C           0.5182    4.1902    5.1710 C.ar    1  LIG1       -0.0930
     12 C           2.8652    4.4773    5.6672 C.ar    1  LIG1       -0.0949
     13 C           1.6405    7.3828   -0.4951 C.ar    1  LIG1       -0.0587
     14 C           2.0847    4.6345    3.3861 C.ar    1  LIG1       -0.0187
     15 C           1.8812    2.7144   -0.7730 C.ar    1  LIG1       -0.0894
     16 C           2.5285    5.1764   -0.9438 C.ar    1  LIG1       -0.0554
     17 C           1.5607    4.2335    6.0968 C.ar    1  LIG1       -0.1132
     18 C           2.0087    6.1111   -0.0307 C.ar    1  LIG1       -0.0329
     19 C           2.3645    4.8484    1.9446 C.2     1  LIG1        0.0290
     20 C           2.9267    3.7845   -0.5088 C.3     1  LIG1        0.0372
     21 C           1.2799    4.0201    7.5459 C.3     1  LIG1       -0.0407
     22 N           1.7915    5.8357    1.3307 N.2     1  LIG1       -0.3739
     23 S           3.5163    3.7453    1.2112 S.3     1  LIG1       -0.1222
     24 H          -0.7872   -0.0147   -1.4474 H       1  LIG1        0.1178
     25 H           1.6248   -0.5886   -1.5386 H       1  LIG1        0.1168
     26 H          -1.4909    2.3068   -0.9247 H       1  LIG1        0.1187
     27 H           2.4069    7.0665   -3.7883 H       1  LIG1        0.1249
     28 H           1.4971    8.7183   -2.1795 H       1  LIG1        0.1274
     29 H          -0.0391    4.3550    3.1025 H       1  LIG1        0.1434
     30 H           4.1476    4.8669    3.9887 H       1  LIG1        0.1364
     31 H           3.3311    1.1487   -1.1089 H       1  LIG1        0.1198
     32 H           0.2075    4.0510   -0.4934 H       1  LIG1        0.1218
     33 H           3.0564    4.8179   -3.0159 H       1  LIG1        0.1270
     34 H          -0.5012    4.0012    5.4968 H       1  LIG1        0.1212
     35 H           3.6836    4.5132    6.3817 H       1  LIG1        0.1222
     36 H           1.2291    8.1159    0.1955 H       1  LIG1        0.1430
     37 H           3.8294    3.4834   -1.1229 H       1  LIG1        0.1436
     38 H           1.3565    2.9552    7.7969 H       1  LIG1        0.0595
     39 H           1.9860    4.5776    8.1748 H       1  LIG1        0.0556
     40 H           0.2736    4.3690    7.8122 H       1  LIG1        0.0555
@<TRIPOS>BOND
     1     1     2   ar
     2     1     3   ar
     3     2     8   ar
     4     3     9   ar
     5     4     5   ar
     6     4    10   ar
     7     5    13   ar
     8     6    11   ar
     9     6    14   ar
    10     7    12   ar
    11     7    14   ar
    12     8    15   ar
    13     9    15   ar
    14    10    16   ar
    15    11    17   ar
    16    12    17   ar
    17    13    18   ar
    18    14    19    1
    19    15    20    1
    20    16    18   ar
    21    16    20    1
    22    17    21    1
    23    18    22    1
    24    19    22    2
    25    19    23    1
    26    20    23    1
    27     1    24    1
    28     2    25    1
    29     3    26    1
    30     4    27    1
    31     5    28    1
    32     6    29    1
    33     7    30    1
    34     8    31    1
    35     9    32    1
    36    10    33    1
    37    11    34    1
    38    12    35    1
    39    13    36    1
    40    20    37    1
    41    21    38    1
    42    21    39    1
    43    21    40    1
