@<TRIPOS>MOLECULE
AO-476/40829155
 39 42 0 0 0
SMALL
USER_CHARGES

@<TRIPOS>ATOM
      1 C           1.4585    0.4140   -1.3497 C.ar    1  LIG1       -0.0835
      2 C           3.2357    7.2564   -1.5443 C.ar    1  LIG1       -0.0896
      3 C           0.1500    0.6250   -1.7617 C.ar    1  LIG1       -0.0891
      4 C           1.9890    7.6715   -1.9895 C.ar    1  LIG1       -0.0878
      5 C           2.2048    1.4730   -0.8280 C.ar    1  LIG1       -0.0523
      6 C           3.3864    5.9996   -0.9504 C.ar    1  LIG1       -0.0643
      7 C           1.8323    4.5345    3.4700 C.ar    1  LIG1       -0.0634
      8 C           2.9361    3.5652    5.3881 C.ar    1  LIG1       -0.0478
      9 C          -0.4034    1.8988   -1.6697 C.ar    1  LIG1       -0.0728
     10 C           0.8945    6.8251   -1.8495 C.ar    1  LIG1       -0.0697
     11 C           1.0084    5.2744    4.3181 C.ar    1  LIG1       -0.0751
     12 C           2.1122    4.3052    6.2362 C.ar    1  LIG1       -0.0639
     13 C           1.6565    2.7626   -0.6911 C.ar    1  LIG1       -0.0102
     14 C           2.2950    5.1260   -0.7859 C.ar    1  LIG1       -0.0181
     15 C           2.7961    3.6798    4.0050 C.ar    1  LIG1       -0.0013
     16 C           0.3471    2.9676   -1.1544 C.ar    1  LIG1       -0.0059
     17 C           1.0419    5.5582   -1.2609 C.ar    1  LIG1       -0.0060
     18 C           1.1483    5.1598    5.7012 C.ar    1  LIG1       -0.0172
     19 C           3.3857    3.6557    0.8993 C.2     1  LIG1        0.1628
     20 C           3.0753    2.5746    1.9179 C.3     1  LIG1        0.1469
     21 N           2.4619    3.8333   -0.1552 N.am    1  LIG1       -0.2751
     22 O           4.3652    4.3707    1.1305 O.2     1  LIG1       -0.4383
     23 O           3.6082    2.9496    3.1689 O.3     1  LIG1       -0.3784
     24 S          -0.4211    4.5645   -1.0796 S.3     1  LIG1       -0.1248
     25 CL          0.1309    6.0716    6.7477 Cl      1  LIG1       -0.1505
     26 H           1.9040   -0.5730   -1.4391 H       1  LIG1        0.1340
     27 H           4.0966    7.9115   -1.6533 H       1  LIG1        0.1358
     28 H          -0.4356   -0.1981   -2.1638 H       1  LIG1        0.1309
     29 H           1.8660    8.6574   -2.4304 H       1  LIG1        0.1331
     30 H           3.2282    1.2504   -0.5556 H       1  LIG1        0.1445
     31 H           4.3870    5.7476   -0.6247 H       1  LIG1        0.1325
     32 H           1.7177    4.6282    2.3938 H       1  LIG1        0.1182
     33 H           3.6848    2.9008    5.8107 H       1  LIG1        0.1414
     34 H          -1.4230    2.0398   -2.0117 H       1  LIG1        0.1419
     35 H          -0.0720    7.1761   -2.1952 H       1  LIG1        0.1461
     36 H           0.2607    5.9359    3.8875 H       1  LIG1        0.1405
     37 H           2.2317    4.2052    7.3121 H       1  LIG1        0.1467
     38 H           3.5159    1.6384    1.5942 H       1  LIG1        0.1670
     39 H           1.9993    2.4713    1.9987 H       1  LIG1        0.1625
@<TRIPOS>BOND
     1     1     3   ar
     2     1     5   ar
     3     2     4   ar
     4     2     6   ar
     5     3     9   ar
     6     4    10   ar
     7     5    13   ar
     8     6    14   ar
     9     7    11   ar
    10     7    15   ar
    11     8    12   ar
    12     8    15   ar
    13     9    16   ar
    14    10    17   ar
    15    11    18   ar
    16    12    18   ar
    17    13    16   ar
    18    13    21    1
    19    14    17   ar
    20    14    21    1
    21    15    23    1
    22    16    24    1
    23    17    24    1
    24    18    25    1
    25    19    20    1
    26    19    21   am
    27    19    22    2
    28    20    23    1
    29     1    26    1
    30     2    27    1
    31     3    28    1
    32     4    29    1
    33     5    30    1
    34     6    31    1
    35     7    32    1
    36     8    33    1
    37     9    34    1
    38    10    35    1
    39    11    36    1
    40    12    37    1
    41    20    38    1
    42    20    39    1
