@<TRIPOS>MOLECULE
AE-473/30684001
 49 53 0 0 0
SMALL
USER_CHARGES

@<TRIPOS>ATOM
      1 C           6.9442    2.7372   -0.3325 C.ar    1  LIG1       -0.1067
      2 C           1.8059    7.3791   -2.3459 C.ar    1  LIG1       -0.1077
      3 C           0.1298    0.9621   -1.8761 C.ar    1  LIG1       -0.1084
      4 C           2.1266    4.4711    6.1935 C.ar    1  LIG1       -0.1045
      5 C           6.5607    4.0705   -0.4770 C.ar    1  LIG1       -0.1068
      6 C           5.9899    1.7659   -0.0297 C.ar    1  LIG1       -0.1036
      7 C           2.2578    6.1984   -2.9353 C.ar    1  LIG1       -0.1050
      8 C           1.6477    7.4516   -0.9620 C.ar    1  LIG1       -0.1042
      9 C           1.4131    1.2113   -2.3626 C.ar    1  LIG1       -0.1057
     10 C          -0.3296    1.6347   -0.7437 C.ar    1  LIG1       -0.1052
     11 C           0.8223    4.7834    5.8153 C.ar    1  LIG1       -0.1013
     12 C           3.0934    4.1502    5.2336 C.ar    1  LIG1       -0.0949
     13 C           5.2231    4.4326   -0.3185 C.ar    1  LIG1       -0.0982
     14 C           4.6522    2.1280    0.1288 C.ar    1  LIG1       -0.0925
     15 C           2.5516    5.0903   -2.1408 C.ar    1  LIG1       -0.0919
     16 C           1.9415    6.3434   -0.1674 C.ar    1  LIG1       -0.0921
     17 C           2.2370    2.1329   -1.7167 C.ar    1  LIG1       -0.0924
     18 C           0.4943    2.5564   -0.0978 C.ar    1  LIG1       -0.0932
     19 C           0.4428    4.7854    4.4700 C.ar    1  LIG1       -0.0788
     20 C           3.4343    3.8761    2.6620 C.ar    1  LIG1       -0.0739
     21 C           2.7341    4.1456    3.8710 C.ar    1  LIG1       -0.0751
     22 C           4.2688    3.4614   -0.0156 C.ar    1  LIG1       -0.0725
     23 C           2.3934    5.1627   -0.7568 C.ar    1  LIG1       -0.0676
     24 C           1.7776    2.8055   -0.5843 C.ar    1  LIG1       -0.0689
     25 C           1.4197    4.4626    3.5214 C.ar    1  LIG1       -0.0682
     26 C           2.5481    4.0315    1.6212 C.ar    1  LIG1       -0.0523
     27 C           2.7341    3.8761    0.1666 C.3     1  LIG1        0.0370
     28 N           1.3356    4.3855    2.1495 N.ar    1  LIG1       -0.3649
     29 H           7.9856    2.4552   -0.4573 H       1  LIG1        0.1166
     30 H           1.5785    8.2423   -2.9646 H       1  LIG1        0.1151
     31 H          -0.5122    0.2453   -2.3799 H       1  LIG1        0.1144
     32 H           2.3974    4.4756    7.2458 H       1  LIG1        0.1095
     33 H           7.3035    4.8267   -0.7138 H       1  LIG1        0.1172
     34 H           6.2879    0.7276    0.0818 H       1  LIG1        0.1183
     35 H           2.3820    6.1422   -4.0129 H       1  LIG1        0.1153
     36 H           1.2969    8.3709   -0.5026 H       1  LIG1        0.1153
     37 H           1.7705    0.6885   -3.2450 H       1  LIG1        0.1149
     38 H          -1.3291    1.4417   -0.3652 H       1  LIG1        0.1149
     39 H           0.0874    5.0297    6.5779 H       1  LIG1        0.1201
     40 H           4.1066    3.9092    5.5418 H       1  LIG1        0.1253
     41 H           4.9335    5.4739   -0.4327 H       1  LIG1        0.1135
     42 H           3.9156    1.3646    0.3648 H       1  LIG1        0.1267
     43 H           2.9030    4.1744   -2.6088 H       1  LIG1        0.1255
     44 H           1.8152    6.4091    0.9100 H       1  LIG1        0.1187
     45 H           3.2355    2.3206   -2.1028 H       1  LIG1        0.1277
     46 H           0.1281    3.0756    0.7839 H       1  LIG1        0.1196
     47 H          -0.5730    5.0281    4.1767 H       1  LIG1        0.1178
     48 H           4.4756    3.5986    2.5662 H       1  LIG1        0.1255
     49 H           0.4977    4.5648    1.6133 H       1  LIG1        0.3269
@<TRIPOS>BOND
     1     1     5   ar
     2     1     6   ar
     3     2     7   ar
     4     2     8   ar
     5     3     9   ar
     6     3    10   ar
     7     4    11   ar
     8     4    12   ar
     9     5    13   ar
    10     6    14   ar
    11     7    15   ar
    12     8    16   ar
    13     9    17   ar
    14    10    18   ar
    15    11    19   ar
    16    12    21   ar
    17    13    22   ar
    18    14    22   ar
    19    15    23   ar
    20    16    23   ar
    21    17    24   ar
    22    18    24   ar
    23    19    25   ar
    24    20    21   ar
    25    20    26   ar
    26    21    25   ar
    27    22    27    1
    28    23    27    1
    29    24    27    1
    30    25    28   ar
    31    26    27    1
    32    26    28   ar
    33     1    29    1
    34     2    30    1
    35     3    31    1
    36     4    32    1
    37     5    33    1
    38     6    34    1
    39     7    35    1
    40     8    36    1
    41     9    37    1
    42    10    38    1
    43    11    39    1
    44    12    40    1
    45    13    41    1
    46    14    42    1
    47    15    43    1
    48    16    44    1
    49    17    45    1
    50    18    46    1
    51    19    47    1
    52    20    48    1
    53    28    49    1
