@<TRIPOS>MOLECULE
AK-968/41925407
 48 50 0 0 0
SMALL
USER_CHARGES

@<TRIPOS>ATOM
      1 C           0.9765    0.4415   -1.9197 C.ar    1  LIG1       -0.1063
      2 C           2.8085    7.4088   -2.0686 C.ar    1  LIG1       -0.1085
      3 C           2.0594    1.3191   -1.9717 C.ar    1  LIG1       -0.1051
      4 C          -0.1842    0.8056   -1.2368 C.ar    1  LIG1       -0.1031
      5 C           1.4971    7.0857   -2.4168 C.ar    1  LIG1       -0.1061
      6 C           3.4485    6.7152   -1.0413 C.ar    1  LIG1       -0.1047
      7 C           0.5423    4.9873    4.9069 C.ar    1  LIG1       -0.0652
      8 C           2.6087    4.2973    3.8623 C.ar    1  LIG1       -0.0732
      9 C           1.9819    2.5607   -1.3408 C.ar    1  LIG1       -0.0953
     10 C          -0.2617    2.0472   -0.6059 C.ar    1  LIG1       -0.0919
     11 C           0.8255    6.0692   -1.7378 C.ar    1  LIG1       -0.0947
     12 C           2.7768    5.6986   -0.3623 C.ar    1  LIG1       -0.0926
     13 C           1.1141    4.7957    6.1645 C.ar    1  LIG1       -0.0891
     14 C           3.1805    4.1058    5.1201 C.ar    1  LIG1       -0.0938
     15 C           1.2895    4.7381    3.7557 C.ar    1  LIG1        0.0207
     16 C           0.8213    2.9248   -0.6579 C.ar    1  LIG1       -0.0739
     17 C           1.4653    5.3756   -0.7105 C.ar    1  LIG1       -0.0729
     18 C           2.4331    4.3549    6.2711 C.ar    1  LIG1       -0.1086
     19 C           0.6945    4.9381    2.4437 C.2     1  LIG1        0.1041
     20 C           2.4174    5.0587    8.6916 C.3     1  LIG1       -0.0621
     21 C           4.5735    4.3374    7.6026 C.3     1  LIG1       -0.0621
     22 C           0.7366    4.2720    0.0273 C.3     1  LIG1        0.0142
     23 C           3.0445    4.1512    7.6163 C.3     1  LIG1       -0.0530
     24 N           1.2061    4.1712    1.3904 N.am    1  LIG1       -0.3280
     25 O          -0.2130    5.7732    2.2828 O.2     1  LIG1       -0.4779
     26 H           1.0365   -0.5247   -2.4121 H       1  LIG1        0.1164
     27 H           3.3319    8.1995   -2.5984 H       1  LIG1        0.1139
     28 H           2.9627    1.0362   -2.5044 H       1  LIG1        0.1173
     29 H          -1.0279    0.1231   -1.1970 H       1  LIG1        0.1188
     30 H           0.9991    7.6250   -3.2174 H       1  LIG1        0.1136
     31 H           4.4699    6.9657   -0.7706 H       1  LIG1        0.1160
     32 H          -0.4863    5.3311    4.8346 H       1  LIG1        0.1427
     33 H           3.2004    4.0999    2.9722 H       1  LIG1        0.1249
     34 H           2.8307    3.2379   -1.3864 H       1  LIG1        0.1141
     35 H          -1.1699    2.3223   -0.0761 H       1  LIG1        0.1223
     36 H          -0.1964    5.8244   -2.0158 H       1  LIG1        0.1143
     37 H           3.2833    5.1638    0.4368 H       1  LIG1        0.1205
     38 H           0.5246    4.9926    7.0561 H       1  LIG1        0.1237
     39 H           4.2092    3.7626    5.1938 H       1  LIG1        0.1220
     40 H           2.5403    6.1191    8.4458 H       1  LIG1        0.0364
     41 H           2.8730    4.8902    9.6734 H       1  LIG1        0.0388
     42 H           1.3436    4.8592    8.7814 H       1  LIG1        0.0360
     43 H           4.8325    5.3505    7.2750 H       1  LIG1        0.0361
     44 H           5.0569    3.6305    6.9195 H       1  LIG1        0.0388
     45 H           5.0069    4.1870    8.5974 H       1  LIG1        0.0364
     46 H          -0.3178    4.5633    0.1211 H       1  LIG1        0.1557
     47 H           2.8682    3.1125    7.9550 H       1  LIG1        0.0690
     48 H           1.9894    3.5499    1.5640 H       1  LIG1        0.3013
@<TRIPOS>BOND
     1     1     3   ar
     2     1     4   ar
     3     2     5   ar
     4     2     6   ar
     5     3     9   ar
     6     4    10   ar
     7     5    11   ar
     8     6    12   ar
     9     7    13   ar
    10     7    15   ar
    11     8    14   ar
    12     8    15   ar
    13     9    16   ar
    14    10    16   ar
    15    11    17   ar
    16    12    17   ar
    17    13    18   ar
    18    14    18   ar
    19    15    19    1
    20    16    22    1
    21    17    22    1
    22    18    23    1
    23    19    24   am
    24    19    25    2
    25    20    23    1
    26    21    23    1
    27    22    24    1
    28     1    26    1
    29     2    27    1
    30     3    28    1
    31     4    29    1
    32     5    30    1
    33     6    31    1
    34     7    32    1
    35     8    33    1
    36     9    34    1
    37    10    35    1
    38    11    36    1
    39    12    37    1
    40    13    38    1
    41    14    39    1
    42    20    40    1
    43    20    41    1
    44    20    42    1
    45    21    43    1
    46    21    44    1
    47    21    45    1
    48    22    46    1
    49    23    47    1
    50    24    48    1
