@<TRIPOS>MOLECULE
AP-518/41793673
 42 44 0 0 0
SMALL
USER_CHARGES

@<TRIPOS>ATOM
      1 C           1.8587    7.2257   -2.1412 C.ar    1  LIG1       -0.1076
      2 C           0.7821    5.4159    5.3342 C.ar    1  LIG1       -0.0909
      3 C           2.9308    6.3826   -2.4328 C.ar    1  LIG1       -0.1066
      4 C           0.9762    6.9011   -1.1109 C.ar    1  LIG1       -0.1045
      5 C           1.3312    4.7139    6.4072 C.ar    1  LIG1       -0.0898
      6 C           1.3219    5.2704    4.0562 C.ar    1  LIG1       -0.0655
      7 C           3.1206    5.2146   -1.6943 C.ar    1  LIG1       -0.0983
      8 C           1.1659    5.7330   -0.3723 C.ar    1  LIG1       -0.0948
      9 C           2.4201    3.8664    6.2022 C.ar    1  LIG1       -0.0715
     10 C           2.4107    4.4230    3.8512 C.ar    1  LIG1        0.0395
     11 C           2.2380    4.8898   -0.6640 C.ar    1  LIG1       -0.0842
     12 C           2.9597    3.7209    4.9243 C.ar    1  LIG1       -0.0006
     13 C           2.9464    4.3046    2.4706 C.2     1  LIG1        0.1141
     14 C          -0.2168    1.5674   -1.5932 C.3     1  LIG1       -0.0742
     15 C           1.0239    1.2300   -2.4219 C.3     1  LIG1       -0.0740
     16 C           0.2183    2.6341   -0.5932 C.3     1  LIG1       -0.0635
     17 C           2.1409    2.1235   -1.8926 C.3     1  LIG1       -0.0647
     18 C           1.7230    2.4232   -0.4566 C.3     1  LIG1       -0.0470
     19 C           2.4437    3.6198    0.1394 C.3     1  LIG1       -0.0107
     20 N           2.0635    3.8159    1.5229 N.am    1  LIG1       -0.3365
     21 O           4.1139    4.6166    2.2512 O.2     1  LIG1       -0.4613
     22 BR          4.4427    2.5583    4.7009 Br      1  LIG1       -0.0732
     23 H           1.7118    8.1357   -2.7155 H       1  LIG1        0.1147
     24 H          -0.0655    6.0756    5.4939 H       1  LIG1        0.1289
     25 H           3.6187    6.6358   -3.2344 H       1  LIG1        0.1158
     26 H           0.1419    7.5578   -0.8829 H       1  LIG1        0.1174
     27 H           0.9107    4.8272    7.4022 H       1  LIG1        0.1349
     28 H           0.8843    5.8234    3.2291 H       1  LIG1        0.1333
     29 H           3.9586    4.5635   -1.9287 H       1  LIG1        0.1127
     30 H           0.4732    5.4880    0.4286 H       1  LIG1        0.1209
     31 H           2.8341    3.3276    7.0511 H       1  LIG1        0.1378
     32 H          -1.0411    1.9232   -2.2198 H       1  LIG1        0.0392
     33 H          -0.5669    0.6711   -1.0681 H       1  LIG1        0.0410
     34 H           1.2848    0.1739   -2.2859 H       1  LIG1        0.0400
     35 H           0.8565    1.3916   -3.4914 H       1  LIG1        0.0414
     36 H          -0.0020    3.6302   -0.9966 H       1  LIG1        0.0600
     37 H          -0.3050    2.5375    0.3630 H       1  LIG1        0.0376
     38 H           3.1186    1.6348   -1.9490 H       1  LIG1        0.0431
     39 H           2.1900    3.0447   -2.4864 H       1  LIG1        0.0476
     40 H           1.9114    1.5409    0.1692 H       1  LIG1        0.0620
     41 H           3.5188    3.3909    0.1698 H       1  LIG1        0.1407
     42 H           1.1318    3.5189    1.7892 H       1  LIG1        0.2970
@<TRIPOS>BOND
     1     1     3   ar
     2     1     4   ar
     3     2     5   ar
     4     2     6   ar
     5     3     7   ar
     6     4     8   ar
     7     5     9   ar
     8     6    10   ar
     9     7    11   ar
    10     8    11   ar
    11     9    12   ar
    12    10    12   ar
    13    10    13    1
    14    11    19    1
    15    12    22    1
    16    13    20   am
    17    13    21    2
    18    14    15    1
    19    14    16    1
    20    15    17    1
    21    16    18    1
    22    17    18    1
    23    18    19    1
    24    19    20    1
    25     1    23    1
    26     2    24    1
    27     3    25    1
    28     4    26    1
    29     5    27    1
    30     6    28    1
    31     7    29    1
    32     8    30    1
    33     9    31    1
    34    14    32    1
    35    14    33    1
    36    15    34    1
    37    15    35    1
    38    16    36    1
    39    16    37    1
    40    17    38    1
    41    17    39    1
    42    18    40    1
    43    19    41    1
    44    20    42    1
