@<TRIPOS>MOLECULE
AG-690/11634847
 42 44 0 0 0
SMALL
USER_CHARGES

@<TRIPOS>ATOM
      1 C           0.9894    0.4824   -1.6037 C.ar    1  LIG1       -0.1063
      2 C           2.7900    7.4127   -2.4099 C.ar    1  LIG1       -0.1086
      3 C           1.3518    5.3065    5.9793 C.ar    1  LIG1       -0.1001
      4 C           2.0667    1.3529   -1.7685 C.ar    1  LIG1       -0.1051
      5 C          -0.1478    0.9027   -0.9138 C.ar    1  LIG1       -0.1031
      6 C           1.4684    7.0604   -2.6829 C.ar    1  LIG1       -0.1062
      7 C           3.4682    6.8096   -1.3506 C.ar    1  LIG1       -0.1048
      8 C           2.4391    4.4877    6.2839 C.ar    1  LIG1       -0.1008
      9 C           0.7338    5.2101    4.7325 C.ar    1  LIG1       -0.0757
     10 C           2.0068    2.6438   -1.2432 C.ar    1  LIG1       -0.0953
     11 C          -0.2076    2.1935   -0.3885 C.ar    1  LIG1       -0.0920
     12 C           0.8247    6.1049   -1.8964 C.ar    1  LIG1       -0.0947
     13 C           2.8244    5.8542   -0.5641 C.ar    1  LIG1       -0.0925
     14 C           2.9086    3.5726    5.3418 C.ar    1  LIG1       -0.0936
     15 C           1.2033    4.2950    3.7903 C.ar    1  LIG1        0.0204
     16 C           0.8697    3.0641   -0.5533 C.ar    1  LIG1       -0.0739
     17 C           1.5027    5.5019   -0.8371 C.ar    1  LIG1       -0.0728
     18 C           2.2907    3.4762    4.0950 C.ar    1  LIG1       -0.0811
     19 C           0.5401    4.2155    2.4958 C.2     1  LIG1        0.1063
     20 C           2.8143    2.4880    3.1047 C.3     1  LIG1       -0.0319
     21 C           0.8043    4.4648    0.0172 C.3     1  LIG1        0.0143
     22 N           1.3218    4.4807    1.3666 N.am    1  LIG1       -0.3279
     23 O          -0.6703    3.9432    2.4249 O.2     1  LIG1       -0.4741
     24 H           1.0355   -0.5222   -2.0139 H       1  LIG1        0.1164
     25 H           3.2916    8.1556   -3.0232 H       1  LIG1        0.1137
     26 H           0.9857    6.0193    6.7128 H       1  LIG1        0.1176
     27 H           2.9517    1.0263   -2.3066 H       1  LIG1        0.1173
     28 H          -0.9872    0.2255   -0.7863 H       1  LIG1        0.1187
     29 H           0.9406    7.5291   -3.5083 H       1  LIG1        0.1135
     30 H           4.4975    7.0828   -1.1384 H       1  LIG1        0.1159
     31 H           2.9201    4.5634    7.2548 H       1  LIG1        0.1257
     32 H          -0.1120    5.8546    4.5068 H       1  LIG1        0.1244
     33 H           2.8512    3.3152   -1.3763 H       1  LIG1        0.1140
     34 H          -1.0975    2.5122    0.1477 H       1  LIG1        0.1222
     35 H          -0.2054    5.8369   -2.1164 H       1  LIG1        0.1142
     36 H           3.3606    5.3896    0.2592 H       1  LIG1        0.1205
     37 H           3.7562    2.9390    5.5894 H       1  LIG1        0.1220
     38 H           2.3068    1.5241    3.2255 H       1  LIG1        0.0620
     39 H           2.6604    2.8379    2.0766 H       1  LIG1        0.0494
     40 H           3.8931    2.3339    3.2315 H       1  LIG1        0.0750
     41 H          -0.2471    4.7623    0.1232 H       1  LIG1        0.1559
     42 H           2.2901    4.7597    1.4864 H       1  LIG1        0.3009
@<TRIPOS>BOND
     1     1     4   ar
     2     1     5   ar
     3     2     6   ar
     4     2     7   ar
     5     3     8   ar
     6     3     9   ar
     7     4    10   ar
     8     5    11   ar
     9     6    12   ar
    10     7    13   ar
    11     8    14   ar
    12     9    15   ar
    13    10    16   ar
    14    11    16   ar
    15    12    17   ar
    16    13    17   ar
    17    14    18   ar
    18    15    18   ar
    19    15    19    1
    20    16    21    1
    21    17    21    1
    22    18    20    1
    23    19    22   am
    24    19    23    2
    25    21    22    1
    26     1    24    1
    27     2    25    1
    28     3    26    1
    29     4    27    1
    30     5    28    1
    31     6    29    1
    32     7    30    1
    33     8    31    1
    34     9    32    1
    35    10    33    1
    36    11    34    1
    37    12    35    1
    38    13    36    1
    39    14    37    1
    40    20    38    1
    41    20    39    1
    42    20    40    1
    43    21    41    1
    44    22    42    1
