@<TRIPOS>MOLECULE
AE-477/13519243
 44 47 0 0 0
SMALL
USER_CHARGES

@<TRIPOS>ATOM
      1 C           0.6797    0.6483   -2.5017 C.ar    1  LIG1       -0.1018
      2 C           2.6900    7.5175   -2.4162 C.ar    1  LIG1       -0.1012
      3 C           1.9117    1.2458   -2.7676 C.ar    1  LIG1       -0.0983
      4 C          -0.1088    1.1142   -1.4496 C.ar    1  LIG1       -0.0993
      5 C           1.4250    6.9323   -2.3643 C.ar    1  LIG1       -0.0975
      6 C           3.7503    6.9508   -1.7087 C.ar    1  LIG1       -0.0968
      7 C           1.2084    4.3276    6.0960 C.ar    1  LIG1       -0.1003
      8 C           2.2469    5.2117    6.3881 C.ar    1  LIG1       -0.1021
      9 C           2.3553    2.3091   -1.9814 C.ar    1  LIG1       -0.0860
     10 C           0.3348    2.1776   -0.6633 C.ar    1  LIG1       -0.0877
     11 C           1.2200    5.7804   -1.6049 C.ar    1  LIG1       -0.0821
     12 C           3.5453    5.7989   -0.9493 C.ar    1  LIG1       -0.0806
     13 C           1.1275    3.7394    4.8337 C.ar    1  LIG1       -0.0839
     14 C           3.2044    5.5079    5.4180 C.ar    1  LIG1       -0.0669
     15 C           1.5669    2.7750   -0.9292 C.ar    1  LIG1       -0.0487
     16 C           2.2802    5.2137   -0.8974 C.ar    1  LIG1       -0.0412
     17 C           2.0851    4.0355    3.8636 C.ar    1  LIG1       -0.0253
     18 C           3.1235    4.9198    4.1557 C.ar    1  LIG1       -0.0034
     19 C           3.3156    3.1827    1.8300 C.2     1  LIG1        0.2036
     20 C           1.9814    3.3903    2.5039 C.3     1  LIG1        0.1234
     21 C           2.0555    3.9471   -0.0619 C.3     1  LIG1        0.0987
     22 C           5.0924    6.1337    3.6029 C.3     1  LIG1        0.0264
     23 O           4.3069    2.7404    2.3996 O.2     1  LIG1       -0.4031
     24 O           3.3202    3.5106    0.5078 O.3     1  LIG1       -0.3075
     25 O           4.0665    5.2204    3.2194 O.3     1  LIG1       -0.4114
     26 S           0.9852    4.3541    1.3605 S.3     1  LIG1       -0.1637
     27 H           0.3338   -0.1787   -3.1148 H       1  LIG1        0.1228
     28 H           2.8498    8.4137   -3.0087 H       1  LIG1        0.1227
     29 H           2.5253    0.8839   -3.5875 H       1  LIG1        0.1226
     30 H          -1.0685    0.6500   -1.2428 H       1  LIG1        0.1214
     31 H           0.5996    7.3728   -2.9161 H       1  LIG1        0.1230
     32 H           4.7356    7.4056   -1.7498 H       1  LIG1        0.1222
     33 H           0.4622    4.0970    6.8509 H       1  LIG1        0.1153
     34 H           2.3090    5.6700    7.3707 H       1  LIG1        0.1293
     35 H           3.3167    2.7684   -2.1959 H       1  LIG1        0.1329
     36 H          -0.2861    2.5337    0.1544 H       1  LIG1        0.1279
     37 H           0.2309    5.3315   -1.5702 H       1  LIG1        0.1288
     38 H           4.3772    5.3644   -0.4013 H       1  LIG1        0.1315
     39 H           0.3137    3.0529    4.6155 H       1  LIG1        0.1461
     40 H           4.0111    6.1975    5.6516 H       1  LIG1        0.1153
     41 H           1.5000    2.3963    2.6149 H       1  LIG1        0.1702
     42 H           5.7774    6.2863    2.7653 H       1  LIG1        0.0910
     43 H           5.6350    5.7333    4.4630 H       1  LIG1        0.0904
     44 H           4.6353    7.0879    3.8753 H       1  LIG1        0.1234
@<TRIPOS>BOND
     1     1     3   ar
     2     1     4   ar
     3     2     5   ar
     4     2     6   ar
     5     3     9   ar
     6     4    10   ar
     7     5    11   ar
     8     6    12   ar
     9     7     8   ar
    10     7    13   ar
    11     8    14   ar
    12     9    15   ar
    13    10    15   ar
    14    11    16   ar
    15    12    16   ar
    16    13    17   ar
    17    14    18   ar
    18    15    21    1
    19    16    21    1
    20    17    18   ar
    21    17    20    1
    22    18    25    1
    23    19    20    1
    24    19    23    2
    25    19    24    1
    26    20    26    1
    27    21    24    1
    28    21    26    1
    29    22    25    1
    30     1    27    1
    31     2    28    1
    32     3    29    1
    33     4    30    1
    34     5    31    1
    35     6    32    1
    36     7    33    1
    37     8    34    1
    38     9    35    1
    39    10    36    1
    40    11    37    1
    41    12    38    1
    42    13    39    1
    43    14    40    1
    44    20    41    1
    45    22    42    1
    46    22    43    1
    47    22    44    1
