@<TRIPOS>MOLECULE
AG-690/33404046
 41 44 0 0 0
SMALL
USER_CHARGES

@<TRIPOS>ATOM
      1 C          -0.3624    1.7946   -0.5362 C.ar    1  LIG1       -0.0979
      2 C          -0.0128    1.0373   -1.6542 C.ar    1  LIG1       -0.0935
      3 C           2.9120    3.6047    4.7233 C.ar    1  LIG1       -0.0657
      4 C           0.9690    4.9817    4.3163 C.ar    1  LIG1       -0.0634
      5 C           0.5962    2.5847    0.0985 C.ar    1  LIG1       -0.0851
      6 C           1.2953    1.0699   -2.1373 C.ar    1  LIG1       -0.0489
      7 C           2.6368    3.6204    6.0906 C.ar    1  LIG1       -0.0662
      8 C           0.6938    4.9974    5.6837 C.ar    1  LIG1       -0.0650
      9 C           1.9877    7.3099   -2.9686 C.ar    1  LIG1       -0.0603
     10 C           1.2020    7.5181   -1.8350 C.ar    1  LIG1       -0.0505
     11 C           3.0950    5.4691   -1.8629 C.ar    1  LIG1       -0.0142
     12 C           2.0781    4.2853    3.8361 C.ar    1  LIG1       -0.0292
     13 C           1.9042    2.6172   -0.3846 C.ar    1  LIG1       -0.0298
     14 C           2.3094    5.6773   -0.7293 C.ar    1  LIG1        0.0155
     15 C           2.2539    1.8598   -1.5026 C.ar    1  LIG1        0.0691
     16 C           1.5277    4.3167    6.5709 C.ar    1  LIG1       -0.0137
     17 C           2.9343    6.2853   -2.9826 C.ar    1  LIG1        0.0035
     18 C           1.3629    6.7019   -0.7155 C.ar    1  LIG1        0.0445
     19 C           2.3646    4.2688    2.4105 C.2     1  LIG1        0.0146
     20 C           3.0538    3.0914    1.7774 C.3     1  LIG1        0.0311
     21 C           2.9282    3.4648    0.2979 C.3     1  LIG1        0.0269
     22 N           2.0853    5.2406    1.5999 N.2     1  LIG1       -0.3180
     23 N           2.4893    4.8597    0.3550 N.pl3   1  LIG1       -0.3163
     24 F           3.5082    1.8847   -1.9743 F       1  LIG1       -0.2662
     25 CL          1.1875    4.3349    8.2574 Cl      1  LIG1       -0.1415
     26 CL          3.9031    6.0289   -4.3815 Cl      1  LIG1       -0.1293
     27 CL          0.3687    6.9940    0.6667 Cl      1  LIG1       -0.1151
     28 H          -1.3809    1.7690   -0.1595 H       1  LIG1        0.1208
     29 H          -0.7589    0.4218   -2.1480 H       1  LIG1        0.1317
     30 H           3.7793    3.0594    4.3599 H       1  LIG1        0.1407
     31 H           0.3122    5.5153    3.6342 H       1  LIG1        0.1457
     32 H           0.3147    3.1708    0.9693 H       1  LIG1        0.1370
     33 H           1.5677    0.4805   -3.0080 H       1  LIG1        0.1311
     34 H           3.2948    3.0852    6.7705 H       1  LIG1        0.1363
     35 H          -0.1740    5.5444    6.0434 H       1  LIG1        0.1358
     36 H           1.8515    7.9536   -3.8339 H       1  LIG1        0.1429
     37 H           0.4688    8.3207   -1.8405 H       1  LIG1        0.1504
     38 H           3.8328    4.6694   -1.8716 H       1  LIG1        0.1514
     39 H           4.1014    3.0927    2.0973 H       1  LIG1        0.0999
     40 H           2.5815    2.1450    2.0548 H       1  LIG1        0.1023
     41 H           3.8872    3.3613   -0.2205 H       1  LIG1        0.1385
@<TRIPOS>BOND
     1     1     2   ar
     2     1     5   ar
     3     2     6   ar
     4     3     7   ar
     5     3    12   ar
     6     4     8   ar
     7     4    12   ar
     8     5    13   ar
     9     6    15   ar
    10     7    16   ar
    11     8    16   ar
    12     9    10   ar
    13     9    17   ar
    14    10    18   ar
    15    11    14   ar
    16    11    17   ar
    17    12    19    1
    18    13    15   ar
    19    13    21    1
    20    14    18   ar
    21    14    23    1
    22    15    24    1
    23    16    25    1
    24    17    26    1
    25    18    27    1
    26    19    20    1
    27    19    22    2
    28    20    21    1
    29    21    23    1
    30    22    23    1
    31     1    28    1
    32     2    29    1
    33     3    30    1
    34     4    31    1
    35     5    32    1
    36     6    33    1
    37     7    34    1
    38     8    35    1
    39     9    36    1
    40    10    37    1
    41    11    38    1
    42    20    39    1
    43    20    40    1
    44    21    41    1
