@<TRIPOS>MOLECULE
AF-407/36112010
 34 35 0 0 0
SMALL
USER_CHARGES

@<TRIPOS>ATOM
      1 C           1.3898    4.7883    6.3431 C.ar    1  LIG1       -0.0995
      2 C           0.0362    0.8213   -1.3732 C.ar    1  LIG1       -0.1034
      3 C           0.4502    4.9071    5.3191 C.ar    1  LIG1       -0.0954
      4 C           2.6562    4.2708    6.0712 C.ar    1  LIG1       -0.0979
      5 C          -0.4321    1.8119   -0.5101 C.ar    1  LIG1       -0.1034
      6 C           1.3481    0.8702   -1.8448 C.ar    1  LIG1       -0.0994
      7 C           0.7769    4.5081    4.0231 C.ar    1  LIG1       -0.0797
      8 C           2.9830    3.8718    4.7751 C.ar    1  LIG1       -0.0837
      9 C           0.4113    2.8515   -0.1187 C.ar    1  LIG1       -0.0979
     10 C           2.1915    1.9099   -1.4534 C.ar    1  LIG1       -0.0914
     11 C           2.0434    3.9905    3.7510 C.ar    1  LIG1       -0.0125
     12 C           1.7232    2.9006   -0.5903 C.ar    1  LIG1       -0.0618
     13 C           2.3923    3.5645    2.3671 C.2     1  LIG1        0.0829
     14 C           2.3382    4.6036    1.2486 C.3     1  LIG1        0.0839
     15 C           2.6484    4.0403   -0.1617 C.3     1  LIG1        0.1293
     16 C           2.5746    5.1681   -1.1979 C.3     1  LIG1        0.3599
     17 O           2.6941    2.3907    2.1663 O.2     1  LIG1       -0.4555
     18 O           4.0131    3.5956   -0.1471 O.3     1  LIG1       -0.4463
     19 F           1.3186    5.6552   -1.3145 F       1  LIG1       -0.1849
     20 F           2.9693    4.7557   -2.4227 F       1  LIG1       -0.1826
     21 F           3.3743    6.2018   -0.8462 F       1  LIG1       -0.1847
     22 H           1.1353    5.0989    7.3522 H       1  LIG1        0.1282
     23 H          -0.6203    0.0110   -1.6768 H       1  LIG1        0.1203
     24 H          -0.5359    5.3100    5.5312 H       1  LIG1        0.1217
     25 H           3.3879    4.1786    6.8685 H       1  LIG1        0.1215
     26 H          -1.4532    1.7733   -0.1420 H       1  LIG1        0.1181
     27 H           1.7134    0.0985   -2.5159 H       1  LIG1        0.1202
     28 H           0.0372    4.6051    3.2326 H       1  LIG1        0.1389
     29 H           3.9728    3.4697    4.5749 H       1  LIG1        0.1321
     30 H           0.0378    3.6192    0.5539 H       1  LIG1        0.1176
     31 H           3.2121    1.9399   -1.8259 H       1  LIG1        0.1312
     32 H           3.0379    5.4127    1.4856 H       1  LIG1        0.1057
     33 H           1.3207    5.0157    1.2596 H       1  LIG1        0.1148
     34 H           4.0488    2.8672    0.4875 H       1  LIG1        0.3539
@<TRIPOS>BOND
     1     1     3   ar
     2     1     4   ar
     3     2     5   ar
     4     2     6   ar
     5     3     7   ar
     6     4     8   ar
     7     5     9   ar
     8     6    10   ar
     9     7    11   ar
    10     8    11   ar
    11     9    12   ar
    12    10    12   ar
    13    11    13    1
    14    12    15    1
    15    13    14    1
    16    13    17    2
    17    14    15    1
    18    15    16    1
    19    15    18    1
    20    16    19    1
    21    16    20    1
    22    16    21    1
    23     1    22    1
    24     2    23    1
    25     3    24    1
    26     4    25    1
    27     5    26    1
    28     6    27    1
    29     7    28    1
    30     8    29    1
    31     9    30    1
    32    10    31    1
    33    14    32    1
    34    14    33    1
    35    18    34    1
