@<TRIPOS>MOLECULE
AG-205/07762011
 41 44 0 0 0
SMALL
USER_CHARGES

@<TRIPOS>ATOM
      1 C           2.9214    6.3048   -2.9881 C.ar    1  LIG1       -0.0858
      2 C           2.9095    3.6009    4.7220 C.ar    1  LIG1       -0.0648
      3 C           0.9745    4.9875    4.3097 C.ar    1  LIG1       -0.0627
      4 C           2.0364    2.3073   -1.7408 C.ar    1  LIG1       -0.0845
      5 C           0.8119    2.1222    0.3336 C.ar    1  LIG1       -0.0852
      6 C           3.0981    5.4740   -1.8817 C.ar    1  LIG1       -0.0479
      7 C           1.0765    1.5210   -2.3777 C.ar    1  LIG1       -0.0700
      8 C          -0.1482    1.3360   -0.3034 C.ar    1  LIG1       -0.0709
      9 C           1.9728    7.3268   -2.9486 C.ar    1  LIG1       -0.0835
     10 C           2.6328    3.6211    6.0889 C.ar    1  LIG1       -0.0734
     11 C           0.6977    5.0078    5.6767 C.ar    1  LIG1       -0.0723
     12 C           1.3774    6.6870   -0.6962 C.ar    1  LIG1       -0.0368
     13 C           2.0804    4.2841    3.8323 C.ar    1  LIG1       -0.0278
     14 C           1.9042    2.6079   -0.3852 C.ar    1  LIG1       -0.0749
     15 C           2.3260    5.6651   -0.7356 C.ar    1  LIG1       -0.0156
     16 C          -0.0158    1.0354   -1.6591 C.ar    1  LIG1       -0.0141
     17 C           1.5269    4.3245    6.5663 C.ar    1  LIG1       -0.0380
     18 C           1.2008    7.5177   -1.8026 C.ar    1  LIG1       -0.0352
     19 C           2.3689    4.2631    2.4072 C.2     1  LIG1        0.0136
     20 C           3.0529    3.0807    1.7777 C.3     1  LIG1        0.0319
     21 C           2.9315    3.4514    0.2972 C.3     1  LIG1        0.0237
     22 N           2.0961    5.2345    1.5940 N.2     1  LIG1       -0.3195
     23 N           2.4999    4.8488    0.3506 N.pl3   1  LIG1       -0.3190
     24 CL         -1.2002    0.0656   -2.4451 Cl      1  LIG1       -0.1410
     25 BR          1.1520    4.3518    8.4185 Br      1  LIG1       -0.1080
     26 BR         -0.0844    8.9027   -1.7499 Br      1  LIG1       -0.1046
     27 H           3.5225    6.1561   -3.8803 H       1  LIG1        0.1353
     28 H           3.7739    3.0496    4.3608 H       1  LIG1        0.1408
     29 H           0.3218    5.5234    3.6254 H       1  LIG1        0.1451
     30 H           2.8849    2.6817   -2.3076 H       1  LIG1        0.1287
     31 H           0.7013    2.3521    1.3901 H       1  LIG1        0.1327
     32 H           3.8401    4.6809   -1.9233 H       1  LIG1        0.1359
     33 H           1.1925    1.2953   -3.4346 H       1  LIG1        0.1333
     34 H          -0.9940    0.9644    0.2693 H       1  LIG1        0.1352
     35 H           1.8477    7.9652   -3.8194 H       1  LIG1        0.1243
     36 H           3.2889    3.0835    6.7688 H       1  LIG1        0.1386
     37 H          -0.1679    5.5606    6.0323 H       1  LIG1        0.1382
     38 H           0.7781    6.8314    0.2003 H       1  LIG1        0.1343
     39 H           4.1000    3.0771    2.0992 H       1  LIG1        0.1016
     40 H           2.5752    2.1373    2.0564 H       1  LIG1        0.1028
     41 H           3.8908    3.3419   -0.2196 H       1  LIG1        0.1396
@<TRIPOS>BOND
     1     1     6   ar
     2     1     9   ar
     3     2    10   ar
     4     2    13   ar
     5     3    11   ar
     6     3    13   ar
     7     4     7   ar
     8     4    14   ar
     9     5     8   ar
    10     5    14   ar
    11     6    15   ar
    12     7    16   ar
    13     8    16   ar
    14     9    18   ar
    15    10    17   ar
    16    11    17   ar
    17    12    15   ar
    18    12    18   ar
    19    13    19    1
    20    14    21    1
    21    15    23    1
    22    16    24    1
    23    17    25    1
    24    18    26    1
    25    19    20    1
    26    19    22    2
    27    20    21    1
    28    21    23    1
    29    22    23    1
    30     1    27    1
    31     2    28    1
    32     3    29    1
    33     4    30    1
    34     5    31    1
    35     6    32    1
    36     7    33    1
    37     8    34    1
    38     9    35    1
    39    10    36    1
    40    11    37    1
    41    12    38    1
    42    20    39    1
    43    20    40    1
    44    21    41    1
