@<TRIPOS>MOLECULE
AQ-776/42801731
 37 39 0 0 0
SMALL
USER_CHARGES

@<TRIPOS>ATOM
      1 C           1.8169    7.4946   -2.1603 C.ar    1  LIG1       -0.1063
      2 C           2.0969    4.8322    6.2173 C.ar    1  LIG1       -0.1027
      3 C           0.7679    6.6667   -1.7609 C.ar    1  LIG1       -0.1036
      4 C           3.1270    7.1864   -1.7939 C.ar    1  LIG1       -0.1060
      5 C           0.7948    4.4129    5.9513 C.ar    1  LIG1       -0.0989
      6 C           3.0413    4.9317    5.1893 C.ar    1  LIG1       -0.0926
      7 C           1.0289    5.5306   -0.9947 C.ar    1  LIG1       -0.0953
      8 C           3.3881    6.0504   -1.0278 C.ar    1  LIG1       -0.0987
      9 C           0.3955    4.0806    4.6536 C.ar    1  LIG1       -0.0718
     10 C           3.3377    4.5864    2.6208 C.ar    1  LIG1       -0.0717
     11 C           2.6619    4.6019    3.8729 C.ar    1  LIG1       -0.0690
     12 C           2.3390    5.2225   -0.6282 C.ar    1  LIG1       -0.0689
     13 C           1.3504    4.1848    3.6360 C.ar    1  LIG1       -0.0446
     14 C           2.4402    4.1678    1.6657 C.ar    1  LIG1       -0.0307
     15 C          -1.3031    1.5653    1.3455 C.3     1  LIG1        0.0054
     16 C           0.0404    3.4714    1.6236 C.3     1  LIG1        0.0520
     17 C           2.6261    3.9765    0.2123 C.3     1  LIG1        0.0446
     18 N           1.2443    3.9282    2.2876 N.ar    1  LIG1       -0.3421
     19 O           3.9440    3.4867   -0.1220 O.3     1  LIG1       -0.4535
     20 O          -0.1237    2.0948    1.9354 O.3     1  LIG1       -0.4436
     21 H           1.6136    8.3784   -2.7580 H       1  LIG1        0.1169
     22 H           2.3834    5.0855    7.2347 H       1  LIG1        0.1119
     23 H          -0.2522    6.9058   -2.0470 H       1  LIG1        0.1191
     24 H           3.9441    7.8303   -2.1057 H       1  LIG1        0.1171
     25 H           0.0772    4.3426    6.7648 H       1  LIG1        0.1222
     26 H           4.0532    5.2593    5.4102 H       1  LIG1        0.1277
     27 H           0.2052    4.8914   -0.6878 H       1  LIG1        0.1193
     28 H           4.4119    5.8182   -0.7469 H       1  LIG1        0.1127
     29 H          -0.6199    3.7556    4.4529 H       1  LIG1        0.1192
     30 H           4.3705    4.8531    2.4408 H       1  LIG1        0.1262
     31 H          -1.3980    0.5080    1.6048 H       1  LIG1        0.0791
     32 H          -1.2527    1.6822    0.2600 H       1  LIG1        0.1142
     33 H          -2.1684    2.1112    1.7290 H       1  LIG1        0.0793
     34 H          -0.8064    4.0633    1.9885 H       1  LIG1        0.1607
     35 H           0.1576    3.6204    0.5445 H       1  LIG1        0.1634
     36 H           1.9584    3.1733   -0.1654 H       1  LIG1        0.1732
     37 H           4.0754    2.7073    0.4303 H       1  LIG1        0.3352
@<TRIPOS>BOND
     1     1     3   ar
     2     1     4   ar
     3     2     5   ar
     4     2     6   ar
     5     3     7   ar
     6     4     8   ar
     7     5     9   ar
     8     6    11   ar
     9     7    12   ar
    10     8    12   ar
    11     9    13   ar
    12    10    11   ar
    13    10    14   ar
    14    11    13   ar
    15    12    17    1
    16    13    18   ar
    17    14    17    1
    18    14    18   ar
    19    15    20    1
    20    16    18    1
    21    16    20    1
    22    17    19    1
    23     1    21    1
    24     2    22    1
    25     3    23    1
    26     4    24    1
    27     5    25    1
    28     6    26    1
    29     7    27    1
    30     8    28    1
    31     9    29    1
    32    10    30    1
    33    15    31    1
    34    15    32    1
    35    15    33    1
    36    16    34    1
    37    16    35    1
    38    17    36    1
    39    19    37    1
