@<TRIPOS>MOLECULE
AN-465/41865707
 54 57 0 0 0
SMALL
USER_CHARGES

@<TRIPOS>ATOM
      1 C           1.0917    4.0885    5.8937 C.ar    1  LIG1       -0.1087
      2 C          -0.1008    0.5716   -1.7422 C.ar    1  LIG1       -0.1086
      3 C           0.4988    4.8631    4.8966 C.ar    1  LIG1       -0.1074
      4 C           2.4491    3.7761    5.8195 C.ar    1  LIG1       -0.1058
      5 C          -0.5217    1.7323   -1.0931 C.ar    1  LIG1       -0.0982
      6 C           1.2605    0.2862   -1.8477 C.ar    1  LIG1       -0.1001
      7 C           1.0934    6.3182   -0.4987 C.ar    1  LIG1       -0.0877
      8 C           3.3693    5.8702   -1.1743 C.ar    1  LIG1       -0.0854
      9 C           1.2632    5.3254    3.8255 C.ar    1  LIG1       -0.0999
     10 C           3.2136    4.2384    4.7483 C.ar    1  LIG1       -0.0965
     11 C           1.0336    7.3783   -1.4031 C.ar    1  LIG1       -0.0991
     12 C           3.3095    6.9303   -2.0787 C.ar    1  LIG1       -0.0969
     13 C           0.4186    2.6075   -0.5496 C.ar    1  LIG1       -0.0548
     14 C           2.2008    1.1614   -1.3042 C.ar    1  LIG1       -0.0589
     15 C           2.2613    5.5640   -0.3842 C.ar    1  LIG1       -0.0487
     16 C           2.1416    7.6844   -2.1931 C.ar    1  LIG1       -0.1129
     17 C           2.6207    5.0131    3.7513 C.ar    1  LIG1       -0.0822
     18 C           1.7799    2.3221   -0.6552 C.ar    1  LIG1       -0.0164
     19 C           4.2902    3.5256    1.2748 C.2     1  LIG1        0.1320
     20 C           5.5451    3.2823    2.0154 C.2     1  LIG1        0.1518
     21 C           2.3258    4.4316    0.5810 C.3     1  LIG1        0.0514
     22 C           6.8073    3.8815    1.4640 C.3     1  LIG1        0.0585
     23 C           2.5216   10.1385   -2.5397 C.3     1  LIG1       -0.0632
     24 C           2.0764    8.8172   -3.1611 C.3     1  LIG1       -0.0482
     25 C           3.4442    5.5101    2.5984 C.3     1  LIG1        0.0091
     26 N           3.9208    2.6898    0.3375 N.2     1  LIG1       -0.2771
     27 N           2.7068    3.1844   -0.1197 N.pl3   1  LIG1       -0.2927
     28 N           3.4472    4.5824    1.4998 N.pl3   1  LIG1       -0.3342
     29 O           5.5349    2.6054    3.0387 O.2     1  LIG1       -0.4343
     30 H           0.4965    3.7297    6.7284 H       1  LIG1        0.1147
     31 H          -0.8331   -0.1097   -2.1655 H       1  LIG1        0.1061
     32 H          -0.5579    5.1073    4.9548 H       1  LIG1        0.1135
     33 H           2.9113    3.1740    6.5961 H       1  LIG1        0.1140
     34 H          -1.5814    1.9544   -1.0112 H       1  LIG1        0.1236
     35 H           1.5881   -0.6178   -2.3533 H       1  LIG1        0.1234
     36 H           0.2252    6.0870    0.1131 H       1  LIG1        0.1212
     37 H           4.2827    5.2869   -1.0925 H       1  LIG1        0.1192
     38 H           0.7928    5.9282    3.0531 H       1  LIG1        0.1149
     39 H           4.2705    3.9900    4.6988 H       1  LIG1        0.1246
     40 H           0.1189    7.9591   -1.4866 H       1  LIG1        0.1193
     41 H           4.1773    7.1622   -2.6905 H       1  LIG1        0.1177
     42 H           0.0802    3.5093   -0.0460 H       1  LIG1        0.1272
     43 H           3.2590    0.9285   -1.3924 H       1  LIG1        0.1165
     44 H           1.3825    4.3154    1.1260 H       1  LIG1        0.1849
     45 H           6.9843    4.8832    1.8647 H       1  LIG1        0.0797
     46 H           6.7269    3.9487    0.3759 H       1  LIG1        0.0932
     47 H           7.6542    3.2471    1.7395 H       1  LIG1        0.0930
     48 H           1.9187   10.3807   -1.6579 H       1  LIG1        0.0340
     49 H           2.4177   10.9585   -3.2570 H       1  LIG1        0.0337
     50 H           3.5703   10.0919   -2.2271 H       1  LIG1        0.0368
     51 H           2.7023    8.6054   -4.0430 H       1  LIG1        0.0605
     52 H           1.0521    8.9301   -3.5516 H       1  LIG1        0.0611
     53 H           3.0565    6.4666    2.2312 H       1  LIG1        0.1502
     54 H           4.4839    5.6749    2.9003 H       1  LIG1        0.1317
@<TRIPOS>BOND
     1     1     3   ar
     2     1     4   ar
     3     2     5   ar
     4     2     6   ar
     5     3     9   ar
     6     4    10   ar
     7     5    13   ar
     8     6    14   ar
     9     7    11   ar
    10     7    15   ar
    11     8    12   ar
    12     8    15   ar
    13     9    17   ar
    14    10    17   ar
    15    11    16   ar
    16    12    16   ar
    17    13    18   ar
    18    14    18   ar
    19    15    21    1
    20    16    24    1
    21    17    25    1
    22    18    27    1
    23    19    20    1
    24    19    26    2
    25    19    28    1
    26    20    22    1
    27    20    29    2
    28    21    27    1
    29    21    28    1
    30    23    24    1
    31    25    28    1
    32    26    27    1
    33     1    30    1
    34     2    31    1
    35     3    32    1
    36     4    33    1
    37     5    34    1
    38     6    35    1
    39     7    36    1
    40     8    37    1
    41     9    38    1
    42    10    39    1
    43    11    40    1
    44    12    41    1
    45    13    42    1
    46    14    43    1
    47    21    44    1
    48    22    45    1
    49    22    46    1
    50    22    47    1
    51    23    48    1
    52    23    49    1
    53    23    50    1
    54    24    51    1
    55    24    52    1
    56    25    53    1
    57    25    54    1
