@<TRIPOS>MOLECULE
AG-690/36748014
 38 41 0 0 0
SMALL
USER_CHARGES

@<TRIPOS>ATOM
      1 C           1.0521    5.1696    5.8625 C.ar    1  LIG1       -0.1048
      2 C           1.5114    6.0603   -0.0746 C.ar    1  LIG1       -0.0722
      3 C           2.3036    1.5721   -1.1149 C.ar    1  LIG1       -0.0279
      4 C           1.7307    0.7681   -2.1002 C.ar    1  LIG1       -0.0268
      5 C           1.0205    7.1147   -0.8443 C.ar    1  LIG1       -0.0628
      6 C           0.9213    5.0209    4.4514 C.ar    1  LIG1       -0.0862
      7 C          -0.4336    1.7332   -1.6295 C.ar    1  LIG1        0.0209
      8 C           2.7778    6.7519   -2.4621 C.ar    1  LIG1       -0.0409
      9 C           2.2597    4.6931    6.3233 C.ar    1  LIG1       -0.0441
     10 C           2.6356    5.3515   -0.4985 C.ar    1  LIG1       -0.0453
     11 C           1.5079    2.4567   -0.3869 C.ar    1  LIG1        0.0388
     12 C           0.3621    0.8486   -2.3576 C.ar    1  LIG1        0.0807
     13 C           0.1393    2.5373   -0.6442 C.ar    1  LIG1        0.1282
     14 C           1.6537    7.4606   -2.0381 C.ar    1  LIG1       -0.0032
     15 C           3.2687    5.6973   -1.6923 C.ar    1  LIG1        0.0045
     16 C           2.0343    4.4366    3.8875 C.ar    1  LIG1        0.0076
     17 C           2.2821    4.1254    2.5254 C.2     1  LIG1        0.0203
     18 C           3.4449    4.7164    1.7736 C.3     1  LIG1        0.0344
     19 C           3.1317    4.2301    0.3562 C.3     1  LIG1        0.0265
     20 N           1.5553    3.2973    1.8403 N.2     1  LIG1       -0.3163
     21 N           2.0729    3.2455    0.5804 N.pl3   1  LIG1       -0.3190
     22 F          -0.1880    0.0764   -3.3038 F       1  LIG1       -0.2555
     23 F          -0.6348    3.3840    0.0495 F       1  LIG1       -0.2386
     24 S           3.2298    4.0699    5.0572 S.2     1  LIG1       -0.1147
     25 CL          1.0467    8.7606   -2.9885 Cl      1  LIG1       -0.1305
     26 CL          4.6627    4.8444   -2.2481 Cl      1  LIG1       -0.1268
     27 H           0.2982    5.6027    6.5068 H       1  LIG1        0.1157
     28 H           1.0117    5.8000    0.8551 H       1  LIG1        0.1483
     29 H           3.3711    1.5011   -0.9228 H       1  LIG1        0.1624
     30 H           2.3498    0.0791   -2.6673 H       1  LIG1        0.1432
     31 H           0.1433    7.6578   -0.5020 H       1  LIG1        0.1405
     32 H           0.0523    5.3291    3.8837 H       1  LIG1        0.1288
     33 H          -1.4990    1.7958   -1.8299 H       1  LIG1        0.1486
     34 H           3.2711    7.0234   -3.3931 H       1  LIG1        0.1481
     35 H           2.6180    4.6807    7.3429 H       1  LIG1        0.1685
     36 H           3.4924    5.8029    1.8885 H       1  LIG1        0.1043
     37 H           4.3669    4.2647    2.1554 H       1  LIG1        0.1016
     38 H           4.0130    3.7809   -0.1131 H       1  LIG1        0.1437
@<TRIPOS>BOND
     1     1     6   ar
     2     1     9   ar
     3     2     5   ar
     4     2    10   ar
     5     3     4   ar
     6     3    11   ar
     7     4    12   ar
     8     5    14   ar
     9     6    16   ar
    10     7    12   ar
    11     7    13   ar
    12     8    14   ar
    13     8    15   ar
    14     9    24   ar
    15    10    15   ar
    16    10    19    1
    17    11    13   ar
    18    11    21    1
    19    12    22    1
    20    13    23    1
    21    14    25    1
    22    15    26    1
    23    16    17    1
    24    16    24   ar
    25    17    18    1
    26    17    20    2
    27    18    19    1
    28    19    21    1
    29    20    21    1
    30     1    27    1
    31     2    28    1
    32     3    29    1
    33     4    30    1
    34     5    31    1
    35     6    32    1
    36     7    33    1
    37     8    34    1
    38     9    35    1
    39    18    36    1
    40    18    37    1
    41    19    38    1
