@<TRIPOS>MOLECULE
AN-212/13751090
 46 47 0 0 0
SMALL
USER_CHARGES

@<TRIPOS>ATOM
      1 C           2.0896    4.1738    1.4315 C.1     1  LIG1       -0.1155
      2 C           1.8059    4.3651    2.5835 C.1     1  LIG1       -0.2036
      3 C           1.9800    7.5683   -2.2979 C.ar    1  LIG1       -0.1025
      4 C           0.1941    0.7209   -1.7985 C.ar    1  LIG1       -0.1027
      5 C           0.8828    7.0167   -1.6364 C.ar    1  LIG1       -0.0998
      6 C           3.2276    6.9498   -2.2152 C.ar    1  LIG1       -0.1032
      7 C          -0.3736    1.4801   -0.7753 C.ar    1  LIG1       -0.1021
      8 C           1.4881    0.9999   -2.2384 C.ar    1  LIG1       -0.0975
      9 C           1.0333    5.8466   -0.8922 C.ar    1  LIG1       -0.0886
     10 C           3.3779    5.7798   -1.4708 C.ar    1  LIG1       -0.0941
     11 C           0.3526    2.5184   -0.1922 C.ar    1  LIG1       -0.0880
     12 C           2.2143    2.0381   -1.6552 C.ar    1  LIG1       -0.0799
     13 C           2.2807    5.2282   -0.8093 C.ar    1  LIG1       -0.0496
     14 C           1.6467    2.7974   -0.6320 C.ar    1  LIG1       -0.0399
     15 C           0.2866    3.6971    4.4121 C.3     1  LIG1       -0.0454
     16 C           2.6565    4.4073    4.9028 C.3     1  LIG1       -0.0453
     17 C          -0.1538    6.3399    3.2105 C.3     1  LIG1       -0.0845
     18 C           0.6774    6.3746    5.5575 C.3     1  LIG1       -0.0832
     19 C           2.4470    3.9409    0.0097 C.3     1  LIG1        0.0839
     20 C           1.4462    4.5983    3.9908 C.3     1  LIG1       -0.0839
     21 N           0.9916    6.0174    4.1305 N.4     1  LIG1        0.4057
     22 O           3.8369    3.5754    0.0366 O.3     1  LIG1       -0.4310
     23 H           1.8624    8.4785   -2.8786 H       1  LIG1        0.1231
     24 H          -0.3710   -0.0884   -2.2516 H       1  LIG1        0.1227
     25 H          -0.0888    7.4975   -1.7017 H       1  LIG1        0.1237
     26 H           4.0818    7.3784   -2.7310 H       1  LIG1        0.1195
     27 H          -1.3807    1.2623   -0.4320 H       1  LIG1        0.1195
     28 H           1.9308    0.4083   -3.0342 H       1  LIG1        0.1225
     29 H           0.1729    5.4240   -0.3798 H       1  LIG1        0.1296
     30 H           4.3537    5.3049   -1.4119 H       1  LIG1        0.1145
     31 H          -0.0978    3.1049    0.6044 H       1  LIG1        0.1158
     32 H           3.2218    2.2483   -2.0045 H       1  LIG1        0.1359
     33 H           0.0088    3.8618    5.4603 H       1  LIG1        0.0669
     34 H           0.5400    2.6371    4.2960 H       1  LIG1        0.0618
     35 H          -0.6058    3.8940    3.8060 H       1  LIG1        0.0777
     36 H           2.3977    4.5792    5.9539 H       1  LIG1        0.0781
     37 H           3.0551    3.3891    4.8208 H       1  LIG1        0.0610
     38 H           3.4698    5.0955    4.6421 H       1  LIG1        0.0677
     39 H          -0.9999    5.7133    3.4984 H       1  LIG1        0.0819
     40 H          -0.3907    7.3988    3.3301 H       1  LIG1        0.0832
     41 H           0.1661    6.1221    2.1898 H       1  LIG1        0.0765
     42 H          -0.1554    5.7486    5.8828 H       1  LIG1        0.0826
     43 H           1.5706    6.1812    6.1547 H       1  LIG1        0.0836
     44 H           0.4079    7.4321    5.5856 H       1  LIG1        0.0821
     45 H           1.7783    6.6177    3.8430 H       1  LIG1        0.1724
     46 H           4.0868    3.4198   -0.8838 H       1  LIG1        0.3482
@<TRIPOS>BOND
     1     1     2    3
     2     1    19    1
     3     2    20    1
     4     3     5   ar
     5     3     6   ar
     6     4     7   ar
     7     4     8   ar
     8     5     9   ar
     9     6    10   ar
    10     7    11   ar
    11     8    12   ar
    12     9    13   ar
    13    10    13   ar
    14    11    14   ar
    15    12    14   ar
    16    13    19    1
    17    14    19    1
    18    15    20    1
    19    16    20    1
    20    17    21    1
    21    18    21    1
    22    19    22    1
    23    20    21    1
    24     3    23    1
    25     4    24    1
    26     5    25    1
    27     6    26    1
    28     7    27    1
    29     8    28    1
    30     9    29    1
    31    10    30    1
    32    11    31    1
    33    12    32    1
    34    15    33    1
    35    15    34    1
    36    15    35    1
    37    16    36    1
    38    16    37    1
    39    16    38    1
    40    17    39    1
    41    17    40    1
    42    17    41    1
    43    18    42    1
    44    18    43    1
    45    18    44    1
    46    21    45    1
    47    22    46    1
