@<TRIPOS>MOLECULE
AN-329/07140032
 41 43 0 0 0
SMALL
USER_CHARGES

@<TRIPOS>ATOM
      1 C           0.3764    0.5966   -1.9152 C.ar    1  LIG1       -0.1067
      2 C           2.2054    7.5755   -2.3375 C.ar    1  LIG1       -0.1050
      3 C           1.7078    0.9492   -2.1352 C.ar    1  LIG1       -0.1053
      4 C          -0.4101    1.3503   -1.0438 C.ar    1  LIG1       -0.1016
      5 C           3.1755    6.5855   -2.4937 C.ar    1  LIG1       -0.1040
      6 C           1.1851    7.4106   -1.4007 C.ar    1  LIG1       -0.1035
      7 C           2.2530    2.0556   -1.4838 C.ar    1  LIG1       -0.0970
      8 C           0.1352    2.4567   -0.3925 C.ar    1  LIG1       -0.0922
      9 C           3.1254    5.4306   -1.7131 C.ar    1  LIG1       -0.0995
     10 C           1.1351    6.2557   -0.6201 C.ar    1  LIG1       -0.0983
     11 C           1.6218    4.6707    6.6219 C.ar    1  LIG1       -0.0316
     12 C           2.6111    3.7862    6.1924 C.ar    1  LIG1       -0.0128
     13 C           1.1005    5.2034    4.3237 C.ar    1  LIG1        0.0044
     14 C           1.4667    2.8095   -0.6124 C.ar    1  LIG1       -0.0685
     15 C           2.1051    5.2656   -0.7762 C.ar    1  LIG1       -0.0751
     16 C           2.0898    4.3189    3.8943 C.ar    1  LIG1        0.0259
     17 C           0.8664    5.3794    5.6875 C.ar    1  LIG1        0.0810
     18 C           2.8452    3.6103    4.8287 C.ar    1  LIG1        0.1181
     19 C           1.4082    4.2660    1.4680 C.2     1  LIG1        0.1158
     20 C           2.0491    3.9924    0.0846 C.3     1  LIG1        0.0885
     21 N           2.3255    4.1412    2.5102 N.am    1  LIG1       -0.2948
     22 N          -0.1411    6.2791    6.1255 N.pl3   1  LIG1       -0.0436
     23 O          -0.3353    6.4217    7.3569 O.2     1  LIG1       -0.1530
     24 O           0.2175    4.5490    1.5678 O.2     1  LIG1       -0.4600
     25 O          -0.8094    6.9070    5.2691 O.2     1  LIG1       -0.2411
     26 F           3.7995    2.7583    4.4277 F       1  LIG1       -0.2416
     27 H          -0.0484   -0.2642   -2.4234 H       1  LIG1        0.1163
     28 H           2.2453    8.4753   -2.9445 H       1  LIG1        0.1185
     29 H           2.3199    0.3631   -2.8144 H       1  LIG1        0.1156
     30 H          -1.4470    1.0767   -0.8731 H       1  LIG1        0.1159
     31 H           3.9706    6.7141   -3.2223 H       1  LIG1        0.1182
     32 H           0.4303    8.1817   -1.2780 H       1  LIG1        0.1194
     33 H           3.2914    2.3229   -1.6611 H       1  LIG1        0.1190
     34 H          -0.4850    3.0381    0.2847 H       1  LIG1        0.1233
     35 H           3.8854    4.6644   -1.8418 H       1  LIG1        0.1174
     36 H           0.3364    6.1359    0.1072 H       1  LIG1        0.1219
     37 H           1.4499    4.7988    7.6878 H       1  LIG1        0.1731
     38 H           3.1997    3.2344    6.9194 H       1  LIG1        0.1629
     39 H           0.5115    5.7546    3.5931 H       1  LIG1        0.1975
     40 H           3.1110    3.7701    0.3254 H       1  LIG1        0.1488
     41 H           3.2833    3.9021    2.2625 H       1  LIG1        0.3337
@<TRIPOS>BOND
     1     1     3   ar
     2     1     4   ar
     3     2     5   ar
     4     2     6   ar
     5     3     7   ar
     6     4     8   ar
     7     5     9   ar
     8     6    10   ar
     9     7    14   ar
    10     8    14   ar
    11     9    15   ar
    12    10    15   ar
    13    11    12   ar
    14    11    17   ar
    15    12    18   ar
    16    13    16   ar
    17    13    17   ar
    18    14    20    1
    19    15    20    1
    20    16    18   ar
    21    16    21    1
    22    17    22    1
    23    18    26    1
    24    19    20    1
    25    19    21   am
    26    19    24    2
    27    22    23    1
    28    22    25    2
    29     1    27    1
    30     2    28    1
    31     3    29    1
    32     4    30    1
    33     5    31    1
    34     6    32    1
    35     7    33    1
    36     8    34    1
    37     9    35    1
    38    10    36    1
    39    11    37    1
    40    12    38    1
    41    13    39    1
    42    20    40    1
    43    21    41    1
