@<TRIPOS>MOLECULE
AO-476/36090030
 45 49 0 0 0
SMALL
USER_CHARGES

@<TRIPOS>ATOM
      1 C           2.0799    7.4920   -2.9613 C.ar    1  LIG1       -0.1098
      2 C           1.2111    5.3834    5.8058 C.ar    1  LIG1       -0.0964
      3 C           1.5363    4.2479    6.5466 C.ar    1  LIG1       -0.1021
      4 C           2.5379    6.1876   -3.1471 C.ar    1  LIG1       -0.0999
      5 C           1.7251    7.9316   -1.6860 C.ar    1  LIG1       -0.1016
      6 C           1.4730    5.4254    4.4373 C.ar    1  LIG1       -0.0730
      7 C           2.1200    3.1448    5.9208 C.ar    1  LIG1       -0.0954
      8 C           2.2744    1.3911   -0.9860 C.ar    1  LIG1       -0.0824
      9 C           0.4871    2.8922   -0.3617 C.ar    1  LIG1       -0.0841
     10 C           2.6410    5.3228   -2.0575 C.ar    1  LIG1       -0.0581
     11 C           1.8282    7.0668   -0.5964 C.ar    1  LIG1       -0.0620
     12 C           1.3476    0.5352   -1.5810 C.ar    1  LIG1       -0.0705
     13 C          -0.4396    2.0363   -0.9567 C.ar    1  LIG1       -0.0721
     14 C           2.0623    4.3219    3.8145 C.ar    1  LIG1       -0.0307
     15 C           1.8442    2.5696   -0.3763 C.ar    1  LIG1       -0.0713
     16 C           2.3779    3.1622    4.5439 C.ar    1  LIG1       -0.0843
     17 C           2.2861    5.7625   -0.7821 C.ar    1  LIG1       -0.0275
     18 C          -0.0094    0.8578   -1.5664 C.ar    1  LIG1       -0.0159
     19 C           2.3490    4.3512    2.3730 C.2     1  LIG1        0.0133
     20 C           3.0241    1.9613    3.8928 C.3     1  LIG1       -0.0333
     21 C           2.7575    1.9048    2.3849 C.3     1  LIG1       -0.0357
     22 C           2.8527    3.5023    0.2701 C.3     1  LIG1        0.0246
     23 C           3.1446    3.2336    1.7565 C.3     1  LIG1        0.0246
     24 N           1.9888    5.2896    1.5554 N.2     1  LIG1       -0.3198
     25 N           2.3892    4.8981    0.3076 N.pl3   1  LIG1       -0.3216
     26 CL         -1.1524   -0.1983   -2.3007 Cl      1  LIG1       -0.1434
     27 H           1.9996    8.1652   -3.8100 H       1  LIG1        0.1049
     28 H           0.7569    6.2389    6.2975 H       1  LIG1        0.1202
     29 H           1.3362    4.2221    7.6140 H       1  LIG1        0.1207
     30 H           2.8141    5.8455   -4.1399 H       1  LIG1        0.1223
     31 H           1.3684    8.9474   -1.5416 H       1  LIG1        0.1225
     32 H           1.2186    6.3221    3.8796 H       1  LIG1        0.1348
     33 H           2.3694    2.2692    6.5149 H       1  LIG1        0.1204
     34 H           3.3298    1.1326   -1.0014 H       1  LIG1        0.1292
     35 H           0.1439    3.8086    0.1111 H       1  LIG1        0.1314
     36 H           2.9989    4.3084   -2.2129 H       1  LIG1        0.1249
     37 H           1.5489    7.4205    0.3929 H       1  LIG1        0.1149
     38 H           1.6975   -0.3795   -2.0527 H       1  LIG1        0.1321
     39 H          -1.4938    2.3006   -0.9375 H       1  LIG1        0.1336
     40 H           4.1041    2.0039    4.0791 H       1  LIG1        0.0726
     41 H           2.6431    1.0399    4.3493 H       1  LIG1        0.0721
     42 H           3.3287    1.0851    1.9353 H       1  LIG1        0.0594
     43 H           1.6924    1.6921    2.2269 H       1  LIG1        0.0625
     44 H           3.7990    3.4281   -0.3155 H       1  LIG1        0.1411
     45 H           4.2034    3.4545    1.9537 H       1  LIG1        0.1084
@<TRIPOS>BOND
     1     1     4   ar
     2     1     5   ar
     3     2     3   ar
     4     2     6   ar
     5     3     7   ar
     6     4    10   ar
     7     5    11   ar
     8     6    14   ar
     9     7    16   ar
    10     8    12   ar
    11     8    15   ar
    12     9    13   ar
    13     9    15   ar
    14    10    17   ar
    15    11    17   ar
    16    12    18   ar
    17    13    18   ar
    18    14    16   ar
    19    14    19    1
    20    15    22    1
    21    16    20    1
    22    17    25    1
    23    18    26    1
    24    19    23    1
    25    19    24    2
    26    20    21    1
    27    21    23    1
    28    22    23    1
    29    22    25    1
    30    24    25    1
    31     1    27    1
    32     2    28    1
    33     3    29    1
    34     4    30    1
    35     5    31    1
    36     6    32    1
    37     7    33    1
    38     8    34    1
    39     9    35    1
    40    10    36    1
    41    11    37    1
    42    12    38    1
    43    13    39    1
    44    20    40    1
    45    20    41    1
    46    21    42    1
    47    21    43    1
    48    22    44    1
    49    23    45    1
