@<TRIPOS>MOLECULE
AO-476/41339624
 45 49 0 0 0
SMALL
USER_CHARGES

@<TRIPOS>ATOM
      1 C           0.2889    0.6418   -2.4663 C.ar    1  LIG1       -0.1088
      2 C           0.8677    4.0921    5.8902 C.ar    1  LIG1       -0.0960
      3 C           1.7343    5.0110    6.4806 C.ar    1  LIG1       -0.1018
      4 C           1.6450    0.5509   -2.1527 C.ar    1  LIG1       -0.0991
      5 C          -0.5162    1.5770   -1.8159 C.ar    1  LIG1       -0.1010
      6 C           1.0273    3.7394    4.5509 C.ar    1  LIG1       -0.0723
      7 C           2.7623    5.5872    5.7321 C.ar    1  LIG1       -0.0949
      8 C           1.5417    6.1275   -0.1001 C.ar    1  LIG1       -0.0711
      9 C           2.1959    1.3950   -1.1887 C.ar    1  LIG1       -0.0579
     10 C           0.0347    2.4211   -0.8519 C.ar    1  LIG1       -0.0624
     11 C           1.1114    7.2471   -0.8120 C.ar    1  LIG1       -0.0624
     12 C           2.7786    6.8112   -2.5055 C.ar    1  LIG1       -0.0406
     13 C           2.0607    4.3136    3.8058 C.ar    1  LIG1       -0.0296
     14 C           2.9308    5.2560    4.3813 C.ar    1  LIG1       -0.0834
     15 C           2.5906    5.3497   -0.5908 C.ar    1  LIG1       -0.0419
     16 C           1.3909    2.3302   -0.5382 C.ar    1  LIG1       -0.0277
     17 C           1.7298    7.5889   -2.0147 C.ar    1  LIG1       -0.0030
     18 C           3.2089    5.6916   -1.7935 C.ar    1  LIG1        0.0061
     19 C           2.2462    3.9489    2.3939 C.2     1  LIG1        0.0144
     20 C           4.0615    5.8810    3.5975 C.3     1  LIG1       -0.0328
     21 C           3.8064    5.8526    2.0869 C.3     1  LIG1       -0.0359
     22 C           3.0304    4.1411    0.2156 C.3     1  LIG1        0.0308
     23 C           3.4673    4.4334    1.6616 C.3     1  LIG1        0.0258
     24 N           1.4432    3.2067    1.6990 N.2     1  LIG1       -0.3192
     25 N           1.9414    3.1745    0.4257 N.pl3   1  LIG1       -0.3208
     26 CL          1.1974    8.9694   -2.8936 Cl      1  LIG1       -0.1310
     27 CL          4.5105    4.7540   -2.4311 Cl      1  LIG1       -0.1274
     28 H          -0.1401   -0.0158   -3.2169 H       1  LIG1        0.1060
     29 H           0.0687    3.6471    6.4764 H       1  LIG1        0.1204
     30 H           1.6098    5.2790    7.5259 H       1  LIG1        0.1210
     31 H           2.2715   -0.1772   -2.6591 H       1  LIG1        0.1231
     32 H          -1.5723    1.6476   -2.0603 H       1  LIG1        0.1232
     33 H           0.3456    3.0167    4.1117 H       1  LIG1        0.1354
     34 H           3.4301    6.2997    6.2100 H       1  LIG1        0.1208
     35 H           1.0543    5.8708    0.8370 H       1  LIG1        0.1425
     36 H           3.2537    1.3161   -0.9514 H       1  LIG1        0.1261
     37 H          -0.6024    3.1461   -0.3517 H       1  LIG1        0.1139
     38 H           0.2926    7.8436   -0.4181 H       1  LIG1        0.1410
     39 H           3.2603    7.0796   -3.4433 H       1  LIG1        0.1492
     40 H           4.1996    6.9234    3.9088 H       1  LIG1        0.0732
     41 H           4.9861    5.3383    3.8296 H       1  LIG1        0.0732
     42 H           2.9795    6.5377    1.8602 H       1  LIG1        0.0563
     43 H           4.6916    6.2140    1.5520 H       1  LIG1        0.0627
     44 H           3.8700    3.6583   -0.3377 H       1  LIG1        0.1468
     45 H           4.2860    3.7496    1.9277 H       1  LIG1        0.1094
@<TRIPOS>BOND
     1     1     4   ar
     2     1     5   ar
     3     2     3   ar
     4     2     6   ar
     5     3     7   ar
     6     4     9   ar
     7     5    10   ar
     8     6    13   ar
     9     7    14   ar
    10     8    11   ar
    11     8    15   ar
    12     9    16   ar
    13    10    16   ar
    14    11    17   ar
    15    12    17   ar
    16    12    18   ar
    17    13    14   ar
    18    13    19    1
    19    14    20    1
    20    15    18   ar
    21    15    22    1
    22    16    25    1
    23    17    26    1
    24    18    27    1
    25    19    23    1
    26    19    24    2
    27    20    21    1
    28    21    23    1
    29    22    23    1
    30    22    25    1
    31    24    25    1
    32     1    28    1
    33     2    29    1
    34     3    30    1
    35     4    31    1
    36     5    32    1
    37     6    33    1
    38     7    34    1
    39     8    35    1
    40     9    36    1
    41    10    37    1
    42    11    38    1
    43    12    39    1
    44    20    40    1
    45    20    41    1
    46    21    42    1
    47    21    43    1
    48    22    44    1
    49    23    45    1
