@<TRIPOS>MOLECULE
AN-329/40529359
 44 46 0 0 0
SMALL
USER_CHARGES

@<TRIPOS>ATOM
      1 C           0.3744    0.5967   -1.9174 C.ar    1  LIG1       -0.1074
      2 C           2.2038    7.5760   -2.3309 C.ar    1  LIG1       -0.1052
      3 C           1.7054    0.9495   -2.1399 C.ar    1  LIG1       -0.1021
      4 C          -0.4098    1.3489   -1.0427 C.ar    1  LIG1       -0.1058
      5 C           3.1734    6.5862   -2.4913 C.ar    1  LIG1       -0.1043
      6 C           1.1858    7.4096   -1.3920 C.ar    1  LIG1       -0.1036
      7 C           0.8632    5.3855    5.6668 C.ar    1  LIG1       -0.0671
      8 C           2.2523    2.0545   -1.4877 C.ar    1  LIG1       -0.0922
      9 C           0.1372    2.4540   -0.3906 C.ar    1  LIG1       -0.0971
     10 C           3.1248    5.4297   -1.7127 C.ar    1  LIG1       -0.0995
     11 C           1.1373    6.2532   -0.6134 C.ar    1  LIG1       -0.0982
     12 C           1.1094    5.1965    4.3070 C.ar    1  LIG1       -0.0443
     13 C           1.6101    4.6859    6.6147 C.ar    1  LIG1       -0.0440
     14 C           1.4682    2.8069   -0.6131 C.ar    1  LIG1       -0.0685
     15 C           2.1068    5.2632   -0.7737 C.ar    1  LIG1       -0.0751
     16 C           2.8491    3.6080    4.8429 C.ar    1  LIG1       -0.0309
     17 C           2.1024    4.3077    3.8950 C.ar    1  LIG1       -0.0292
     18 C           2.6030    3.7971    6.2027 C.ar    1  LIG1        0.0722
     19 C           1.4150    4.2595    1.4702 C.2     1  LIG1        0.1129
     20 C           3.9130    2.6527    4.3956 C.3     1  LIG1       -0.0184
     21 C           2.0525    3.9884    0.0848 C.3     1  LIG1        0.0881
     22 N           2.3347    4.1325    2.5100 N.am    1  LIG1       -0.3030
     23 N           3.3508    3.0956    7.1888 N.pl3   1  LIG1       -0.0483
     24 O           2.9327    1.9834    7.5882 O.2     1  LIG1       -0.1560
     25 O           0.2246    4.5426    1.5734 O.2     1  LIG1       -0.4652
     26 O           4.4055    3.6106    7.6287 O.2     1  LIG1       -0.2488
     27 H          -0.0518   -0.2630   -2.4262 H       1  LIG1        0.1155
     28 H           2.2425    8.4769   -2.9363 H       1  LIG1        0.1182
     29 H           2.3157    0.3645   -2.8217 H       1  LIG1        0.1153
     30 H          -1.4464    1.0752   -0.8701 H       1  LIG1        0.1152
     31 H           3.9667    6.7160   -3.2215 H       1  LIG1        0.1180
     32 H           0.4314    8.1806   -1.2660 H       1  LIG1        0.1194
     33 H           0.0901    6.0776    5.9877 H       1  LIG1        0.1464
     34 H           3.2904    2.3219   -1.6670 H       1  LIG1        0.1233
     35 H          -0.4813    3.0342    0.2892 H       1  LIG1        0.1186
     36 H           3.8844    4.6636   -1.8446 H       1  LIG1        0.1173
     37 H           0.3404    6.1321    0.1155 H       1  LIG1        0.1218
     38 H           0.5206    5.7477    3.5780 H       1  LIG1        0.1674
     39 H           1.4067    4.8437    7.6712 H       1  LIG1        0.1598
     40 H           4.8705    3.1746    4.3011 H       1  LIG1        0.0721
     41 H           4.0275    1.8310    5.1108 H       1  LIG1        0.0808
     42 H           3.6570    2.2061    3.4287 H       1  LIG1        0.0561
     43 H           3.1150    3.7654    0.3227 H       1  LIG1        0.1467
     44 H           3.2919    3.8937    2.2596 H       1  LIG1        0.3290
@<TRIPOS>BOND
     1     1     3   ar
     2     1     4   ar
     3     2     5   ar
     4     2     6   ar
     5     3     8   ar
     6     4     9   ar
     7     5    10   ar
     8     6    11   ar
     9     7    12   ar
    10     7    13   ar
    11     8    14   ar
    12     9    14   ar
    13    10    15   ar
    14    11    15   ar
    15    12    17   ar
    16    13    18   ar
    17    14    21    1
    18    15    21    1
    19    16    17   ar
    20    16    18   ar
    21    16    20    1
    22    17    22    1
    23    18    23    1
    24    19    21    1
    25    19    22   am
    26    19    25    2
    27    23    24    1
    28    23    26    2
    29     1    27    1
    30     2    28    1
    31     3    29    1
    32     4    30    1
    33     5    31    1
    34     6    32    1
    35     7    33    1
    36     8    34    1
    37     9    35    1
    38    10    36    1
    39    11    37    1
    40    12    38    1
    41    13    39    1
    42    20    40    1
    43    20    41    1
    44    20    42    1
    45    21    43    1
    46    22    44    1
