@<TRIPOS>MOLECULE
AO-435/41051475
 31 33 0 0 0
SMALL
USER_CHARGES

@<TRIPOS>ATOM
      1 C           0.1549    0.6287   -1.7836 C.ar    1  LIG1       -0.1044
      2 C           1.8151    7.7278   -1.5693 C.ar    1  LIG1       -0.0862
      3 C          -0.4902    1.7626   -1.2902 C.ar    1  LIG1       -0.1015
      4 C           1.5433    0.5239   -1.6989 C.ar    1  LIG1       -0.1022
      5 C           2.3070    6.7585   -2.4616 C.ar    1  LIG1       -0.0863
      6 C           1.5567    7.4046   -0.2368 C.ar    1  LIG1       -0.0615
      7 C           0.2529    2.7919   -0.7122 C.ar    1  LIG1       -0.0866
      8 C           2.2865    1.5531   -1.1209 C.ar    1  LIG1       -0.0887
      9 C           2.5471    5.4480   -2.0366 C.ar    1  LIG1       -0.0665
     10 C           1.8009    6.1030    0.1580 C.ar    1  LIG1        0.0451
     11 C           1.6413    2.6872   -0.6275 C.ar    1  LIG1       -0.0443
     12 C           2.2849    5.1265   -0.7147 C.ar    1  LIG1       -0.0052
     13 C           1.6298    5.5044    1.4848 C.2     1  LIG1        0.1269
     14 C           2.4538    3.8114    0.0035 C.3     1  LIG1        0.0669
     15 C           2.0508    3.2355    2.4784 C.3     1  LIG1       -0.0042
     16 N           2.0074    4.1685    1.3656 N.am    1  LIG1       -0.3125
     17 O           1.2363    6.1179    2.4603 O.2     1  LIG1       -0.4639
     18 O           3.8529    3.5385    0.0538 O.3     1  LIG1       -0.4340
     19 H          -0.4240   -0.1732   -2.2323 H       1  LIG1        0.1199
     20 H           1.6376    8.7399   -1.9231 H       1  LIG1        0.1309
     21 H          -1.5714    1.8439   -1.3550 H       1  LIG1        0.1196
     22 H           2.0459   -0.3593   -2.0819 H       1  LIG1        0.1183
     23 H           2.5037    7.0334   -3.4945 H       1  LIG1        0.1356
     24 H           1.1816    8.1515    0.4532 H       1  LIG1        0.1448
     25 H          -0.2583    3.6719   -0.3306 H       1  LIG1        0.1289
     26 H           3.3678    1.4628   -1.0594 H       1  LIG1        0.1204
     27 H           2.9295    4.7075   -2.7310 H       1  LIG1        0.1374
     28 H           1.0855    2.7342    2.5863 H       1  LIG1        0.1140
     29 H           2.2779    3.7655    3.4073 H       1  LIG1        0.0973
     30 H           2.8226    2.4800    2.3083 H       1  LIG1        0.0958
     31 H           4.2763    4.3082    0.4690 H       1  LIG1        0.3464
@<TRIPOS>BOND
     1     1     3   ar
     2     1     4   ar
     3     2     5   ar
     4     2     6   ar
     5     3     7   ar
     6     4     8   ar
     7     5     9   ar
     8     6    10   ar
     9     7    11   ar
    10     8    11   ar
    11     9    12   ar
    12    10    12   ar
    13    10    13    1
    14    11    14    1
    15    12    14    1
    16    13    16   am
    17    13    17    2
    18    14    16    1
    19    14    18    1
    20    15    16    1
    21     1    19    1
    22     2    20    1
    23     3    21    1
    24     4    22    1
    25     5    23    1
    26     6    24    1
    27     7    25    1
    28     8    26    1
    29     9    27    1
    30    15    28    1
    31    15    29    1
    32    15    30    1
    33    18    31    1
