@<TRIPOS>MOLECULE
AK-968/12971191
 45 48 0 0 0
SMALL
USER_CHARGES

@<TRIPOS>ATOM
      1 C           1.7023    4.9942    6.5663 C.ar    1  LIG1       -0.1041
      2 C           2.8951    4.3972    6.1589 C.ar    1  LIG1       -0.0989
      3 C           0.7134    5.2884    5.6275 C.ar    1  LIG1       -0.0979
      4 C           3.0993    4.0943    4.8127 C.ar    1  LIG1       -0.0778
      5 C           0.9175    4.9855    4.2813 C.ar    1  LIG1       -0.0759
      6 C           3.5015    6.0892   -1.3254 C.ar    1  LIG1       -0.0964
      7 C           1.2636    5.6610   -0.5220 C.ar    1  LIG1       -0.0844
      8 C           3.0216    7.1462   -2.0988 C.ar    1  LIG1       -0.0712
      9 C           0.7837    6.7180   -1.2954 C.ar    1  LIG1       -0.0566
     10 C           0.3498    0.8428   -2.4190 C.ar    1  LIG1        0.0403
     11 C           2.1105    4.3884    3.8739 C.ar    1  LIG1       -0.0363
     12 C           2.6224    5.3466   -0.5370 C.ar    1  LIG1       -0.0803
     13 C           1.5130    2.4391   -0.4487 C.ar    1  LIG1        0.1144
     14 C           1.6627    7.4606   -2.0838 C.ar    1  LIG1       -0.0151
     15 C           1.7214    0.7647   -2.1780 C.ar    1  LIG1        0.1582
     16 C          -0.4403    1.7192   -1.6749 C.ar    1  LIG1        0.1569
     17 C           2.3030    1.5627   -1.1928 C.ar    1  LIG1        0.1966
     18 C           0.1414    2.5172   -0.6898 C.ar    1  LIG1        0.1939
     19 C           2.3234    4.0727    2.4704 C.2     1  LIG1        0.0107
     20 C           3.4717    4.6792    1.7118 C.3     1  LIG1        0.0302
     21 C           3.1364    4.2148    0.2920 C.3     1  LIG1        0.0160
     22 C          -0.2053    8.7598   -2.7753 C.3     1  LIG1        0.0235
     23 N           1.5873    3.2541    1.7874 N.2     1  LIG1       -0.3246
     24 N           2.0842    3.2231    0.5185 N.pl3   1  LIG1       -0.3135
     25 O           1.1949    8.4928   -2.8375 O.3     1  LIG1       -0.4181
     26 F           2.4802   -0.0762   -2.8929 F       1  LIG1       -0.2395
     27 F          -1.7575    1.7940   -1.9059 F       1  LIG1       -0.2399
     28 F           3.6226    1.4804   -0.9708 F       1  LIG1       -0.2217
     29 F          -0.6276    3.3550    0.0201 F       1  LIG1       -0.2257
     30 H           1.5433    5.2301    7.6144 H       1  LIG1        0.1191
     31 H           3.6651    4.1684    6.8900 H       1  LIG1        0.1196
     32 H          -0.2156    5.7530    5.9447 H       1  LIG1        0.1190
     33 H           4.0327    3.6291    4.5062 H       1  LIG1        0.1291
     34 H           0.1401    5.2193    3.5585 H       1  LIG1        0.1330
     35 H           4.5616    5.8513   -1.3432 H       1  LIG1        0.1282
     36 H           0.5712    5.0876    0.0892 H       1  LIG1        0.1359
     37 H           3.7114    7.7212   -2.7107 H       1  LIG1        0.1117
     38 H          -0.2757    6.9581   -1.2791 H       1  LIG1        0.1280
     39 H          -0.1031    0.2218   -3.1860 H       1  LIG1        0.1770
     40 H           3.5189    5.7640    1.8416 H       1  LIG1        0.1009
     41 H           4.4004    4.2211    2.0684 H       1  LIG1        0.1010
     42 H           4.0108    3.7747   -0.1988 H       1  LIG1        0.1347
     43 H          -0.4446    9.6068   -3.4229 H       1  LIG1        0.0888
     44 H          -0.4889    8.9844   -1.7440 H       1  LIG1        0.1220
     45 H          -0.7511    7.8771   -3.1172 H       1  LIG1        0.0892
@<TRIPOS>BOND
     1     1     2   ar
     2     1     3   ar
     3     2     4   ar
     4     3     5   ar
     5     4    11   ar
     6     5    11   ar
     7     6     8   ar
     8     6    12   ar
     9     7     9   ar
    10     7    12   ar
    11     8    14   ar
    12     9    14   ar
    13    10    15   ar
    14    10    16   ar
    15    11    19    1
    16    12    21    1
    17    13    17   ar
    18    13    18   ar
    19    13    24    1
    20    14    25    1
    21    15    17   ar
    22    15    26    1
    23    16    18   ar
    24    16    27    1
    25    17    28    1
    26    18    29    1
    27    19    20    1
    28    19    23    2
    29    20    21    1
    30    21    24    1
    31    22    25    1
    32    23    24    1
    33     1    30    1
    34     2    31    1
    35     3    32    1
    36     4    33    1
    37     5    34    1
    38     6    35    1
    39     7    36    1
    40     8    37    1
    41     9    38    1
    42    10    39    1
    43    20    40    1
    44    20    41    1
    45    21    42    1
    46    22    43    1
    47    22    44    1
    48    22    45    1
