@<TRIPOS>MOLECULE
AG-205/33127029
 49 52 0 0 0
SMALL
USER_CHARGES

@<TRIPOS>ATOM
      1 C           1.6121    1.2337   -2.6073 C.ar    1  LIG1       -0.0887
      2 C           0.2852    0.8252   -2.4736 C.ar    1  LIG1       -0.0923
      3 C           3.0776    4.0324    4.7626 C.ar    1  LIG1       -0.0662
      4 C           0.9035    4.9459    4.2374 C.ar    1  LIG1       -0.0639
      5 C           1.2461    5.6297   -0.5654 C.ar    1  LIG1       -0.0928
      6 C           2.2015    2.0238   -1.6202 C.ar    1  LIG1       -0.0450
      7 C           0.7758    6.6944   -1.3339 C.ar    1  LIG1       -0.0581
      8 C          -0.4525    1.2068   -1.3529 C.ar    1  LIG1       -0.0388
      9 C           2.8790    4.3338    6.1099 C.ar    1  LIG1       -0.0668
     10 C           0.7048    5.2473    5.5848 C.ar    1  LIG1       -0.0655
     11 C           3.4872    6.0390   -1.3700 C.ar    1  LIG1       -0.0520
     12 C           2.0900    4.3385    3.8263 C.ar    1  LIG1       -0.0307
     13 C           2.6020    5.3020   -0.5834 C.ar    1  LIG1       -0.0787
     14 C           1.4638    2.4055   -0.4996 C.ar    1  LIG1        0.0303
     15 C           1.6610    7.4314   -2.1205 C.ar    1  LIG1        0.0326
     16 C           3.0168    7.1037   -2.1386 C.ar    1  LIG1        0.0339
     17 C           0.1368    1.9969   -0.3659 C.ar    1  LIG1        0.1120
     18 C           1.6925    4.9413    6.5210 C.ar    1  LIG1       -0.0144
     19 C           2.2967    4.0240    2.4216 C.2     1  LIG1        0.0117
     20 C           3.4494    4.6208    1.6619 C.3     1  LIG1        0.0295
     21 C           3.1064    4.1631    0.2417 C.3     1  LIG1        0.0186
     22 C          -0.2098    8.7375   -2.7914 C.3     1  LIG1        0.0249
     23 C           4.5111    8.9471   -2.2959 C.3     1  LIG1        0.0245
     24 N           1.5511    3.2143    1.7383 N.2     1  LIG1       -0.3223
     25 N           2.0448    3.1815    0.4683 N.pl3   1  LIG1       -0.3189
     26 O           1.1889    8.4689   -2.8667 O.3     1  LIG1       -0.4087
     27 O           3.8908    7.8156   -2.9035 O.3     1  LIG1       -0.4090
     28 F          -0.5814    2.3582    0.7069 F       1  LIG1       -0.2537
     29 CL          1.4469    5.3118    8.1832 Cl      1  LIG1       -0.1425
     30 H           2.1862    0.9365   -3.4799 H       1  LIG1        0.1274
     31 H          -0.1731    0.2099   -3.2422 H       1  LIG1        0.1288
     32 H           4.0061    3.5595    4.4530 H       1  LIG1        0.1402
     33 H           0.1271    5.1886    3.5166 H       1  LIG1        0.1447
     34 H           0.5496    5.0621    0.0457 H       1  LIG1        0.1234
     35 H           3.2367    2.3359   -1.7342 H       1  LIG1        0.1381
     36 H          -0.2815    6.9439   -1.3155 H       1  LIG1        0.1239
     37 H          -1.4855    0.8889   -1.2487 H       1  LIG1        0.1341
     38 H           3.6568    4.0892    6.8287 H       1  LIG1        0.1358
     39 H          -0.2247    5.7209    5.8903 H       1  LIG1        0.1355
     40 H           4.5446    5.7860   -1.3854 H       1  LIG1        0.1276
     41 H           3.5076    5.7047    1.7942 H       1  LIG1        0.0990
     42 H           4.3743    4.1526    2.0154 H       1  LIG1        0.0989
     43 H           3.9754    3.7156   -0.2520 H       1  LIG1        0.1355
     44 H          -0.4533    9.5878   -3.4331 H       1  LIG1        0.0884
     45 H          -0.4843    8.9578   -1.7567 H       1  LIG1        0.1226
     46 H          -0.7596    7.8572   -3.1327 H       1  LIG1        0.0886
     47 H           5.1832    9.4242   -3.0133 H       1  LIG1        0.0883
     48 H           5.0708    8.6267   -1.4135 H       1  LIG1        0.0879
     49 H           3.7377    9.6582   -1.9960 H       1  LIG1        0.1222
@<TRIPOS>BOND
     1     1     2   ar
     2     1     6   ar
     3     2     8   ar
     4     3     9   ar
     5     3    12   ar
     6     4    10   ar
     7     4    12   ar
     8     5     7   ar
     9     5    13   ar
    10     6    14   ar
    11     7    15   ar
    12     8    17   ar
    13     9    18   ar
    14    10    18   ar
    15    11    13   ar
    16    11    16   ar
    17    12    19    1
    18    13    21    1
    19    14    17   ar
    20    14    25    1
    21    15    16   ar
    22    15    26    1
    23    16    27    1
    24    17    28    1
    25    18    29    1
    26    19    20    1
    27    19    24    2
    28    20    21    1
    29    21    25    1
    30    22    26    1
    31    23    27    1
    32    24    25    1
    33     1    30    1
    34     2    31    1
    35     3    32    1
    36     4    33    1
    37     5    34    1
    38     6    35    1
    39     7    36    1
    40     8    37    1
    41     9    38    1
    42    10    39    1
    43    11    40    1
    44    20    41    1
    45    20    42    1
    46    21    43    1
    47    22    44    1
    48    22    45    1
    49    22    46    1
    50    23    47    1
    51    23    48    1
    52    23    49    1
