@<TRIPOS>MOLECULE
AQ-344/43100175
 50 54 0 0 0
SMALL
USER_CHARGES

@<TRIPOS>ATOM
      1 C           2.0024    7.6100   -2.2401 C.ar    1  LIG1       -0.1093
      2 C           0.9074    6.7690   -2.0419 C.ar    1  LIG1       -0.1076
      3 C           3.2418    7.2828   -1.6898 C.ar    1  LIG1       -0.1058
      4 C           4.3487    1.9667    3.7692 C.ar    1  LIG1       -0.0944
      5 C           1.2095    4.9715    5.9700 C.ar    1  LIG1       -0.0824
      6 C           3.8351    2.4211    5.0016 C.ar    1  LIG1       -0.0868
      7 C           2.2018    3.9843    6.1466 C.ar    1  LIG1       -0.0818
      8 C           3.8809    2.4806    2.5465 C.ar    1  LIG1       -0.0847
      9 C           0.8269    5.4036    4.6880 C.ar    1  LIG1       -0.0661
     10 C           1.0516    5.6009   -1.2934 C.ar    1  LIG1       -0.0985
     11 C           3.3860    6.1147   -0.9413 C.ar    1  LIG1       -0.0980
     12 C           2.1701    2.1031   -1.5803 C.ar    1  LIG1       -0.0884
     13 C           0.4141    2.4935    0.0324 C.ar    1  LIG1       -0.0858
     14 C           1.4437    1.0385   -2.1136 C.ar    1  LIG1       -0.0740
     15 C          -0.3124    1.4289   -0.5010 C.ar    1  LIG1       -0.0726
     16 C           2.8326    3.4093    5.0264 C.ar    1  LIG1       -0.0774
     17 C           2.4105    3.8787    3.7824 C.ar    1  LIG1       -0.0631
     18 C           2.8953    3.4518    2.5706 C.ar    1  LIG1       -0.0765
     19 C           1.4483    4.8365    3.5907 C.ar    1  LIG1       -0.0282
     20 C           2.2909    5.2737   -0.7430 C.ar    1  LIG1       -0.0910
     21 C           1.6553    2.8306   -0.5073 C.ar    1  LIG1       -0.0859
     22 C           0.2025    0.7014   -1.5740 C.ar    1  LIG1       -0.0179
     23 C           2.1880    4.1942    1.5213 C.2     1  LIG1       -0.0457
     24 C           1.3257    5.0185    2.1516 C.2     1  LIG1        0.0119
     25 C          -0.3622    8.1514    1.4441 C.3     1  LIG1       -0.0357
     26 C           0.6763    7.2431    2.0671 C.3     1  LIG1        0.0178
     27 C           2.4492    3.9970    0.0757 C.3     1  LIG1        0.0039
     28 O           0.4402    5.9135    1.6426 O.2     1  LIG1       -0.4101
     29 CL         -0.6935   -0.6119   -2.2322 Cl      1  LIG1       -0.1459
     30 H           1.8903    8.5189   -2.8241 H       1  LIG1        0.1140
     31 H          -0.0573    7.0231   -2.4712 H       1  LIG1        0.1137
     32 H           4.0948    7.9368   -1.8449 H       1  LIG1        0.1153
     33 H           5.1229    1.2031    3.7660 H       1  LIG1        0.1180
     34 H           0.7311    5.4068    6.8440 H       1  LIG1        0.1222
     35 H           4.2194    2.0025    5.9280 H       1  LIG1        0.1330
     36 H           2.4730    3.6744    7.1525 H       1  LIG1        0.1401
     37 H           4.2916    2.1156    1.6109 H       1  LIG1        0.1413
     38 H           0.0615    6.1638    4.5737 H       1  LIG1        0.1473
     39 H           0.1928    4.9518   -1.1439 H       1  LIG1        0.1211
     40 H           4.3553    5.8679   -0.5162 H       1  LIG1        0.1170
     41 H           3.1366    2.3594   -2.0062 H       1  LIG1        0.1282
     42 H           0.0057    3.0556    0.8682 H       1  LIG1        0.1323
     43 H           1.8575    0.4809   -2.9499 H       1  LIG1        0.1328
     44 H          -1.2782    1.1776   -0.0702 H       1  LIG1        0.1320
     45 H          -0.3052    8.1183    0.3525 H       1  LIG1        0.0468
     46 H          -1.3698    7.8557    1.7545 H       1  LIG1        0.0474
     47 H          -0.2182    9.1854    1.7741 H       1  LIG1        0.0566
     48 H           0.6138    7.2808    3.1587 H       1  LIG1        0.1089
     49 H           1.6822    7.5393    1.7552 H       1  LIG1        0.0916
     50 H           3.5126    3.7015    0.0273 H       1  LIG1        0.1205
@<TRIPOS>BOND
     1     1     2   ar
     2     1     3   ar
     3     2    10   ar
     4     3    11   ar
     5     4     6   ar
     6     4     8   ar
     7     5     7   ar
     8     5     9   ar
     9     6    16   ar
    10     7    16   ar
    11     8    18   ar
    12     9    19   ar
    13    10    20   ar
    14    11    20   ar
    15    12    14   ar
    16    12    21   ar
    17    13    15   ar
    18    13    21   ar
    19    14    22   ar
    20    15    22   ar
    21    16    17   ar
    22    17    18   ar
    23    17    19   ar
    24    18    23    1
    25    19    24    1
    26    20    27    1
    27    21    27    1
    28    22    29    1
    29    23    24    2
    30    23    27    1
    31    24    28    1
    32    25    26    1
    33    26    28    1
    34     1    30    1
    35     2    31    1
    36     3    32    1
    37     4    33    1
    38     5    34    1
    39     6    35    1
    40     7    36    1
    41     8    37    1
    42     9    38    1
    43    10    39    1
    44    11    40    1
    45    12    41    1
    46    13    42    1
    47    14    43    1
    48    15    44    1
    49    25    45    1
    50    25    46    1
    51    25    47    1
    52    26    48    1
    53    26    49    1
    54    27    50    1
