@<TRIPOS>MOLECULE
AN-329/14724225
 49 51 0 0 0
SMALL
USER_CHARGES

@<TRIPOS>ATOM
      1 C           0.3615    0.6646   -1.5562 C.ar    1  LIG1       -0.1084
      2 C           2.1446    7.5633   -2.7686 C.ar    1  LIG1       -0.1063
      3 C           1.6751    0.9894   -1.8944 C.ar    1  LIG1       -0.1026
      4 C          -0.3692    1.5022   -0.7133 C.ar    1  LIG1       -0.1068
      5 C           1.0299    6.7297   -2.6793 C.ar    1  LIG1       -0.1046
      6 C           3.2612    7.3231   -1.9677 C.ar    1  LIG1       -0.1047
      7 C           2.2583    2.1516   -1.3895 C.ar    1  LIG1       -0.0917
      8 C           0.2141    2.6644   -0.2085 C.ar    1  LIG1       -0.0974
      9 C           1.0318    5.6558   -1.7890 C.ar    1  LIG1       -0.0988
     10 C           3.2630    6.2492   -1.0776 C.ar    1  LIG1       -0.0986
     11 C           2.8432    3.4660    4.7296 C.ar    1  LIG1       -0.0614
     12 C           1.0260    4.9906    4.2704 C.ar    1  LIG1       -0.0674
     13 C           2.6133    3.6042    6.0983 C.ar    1  LIG1       -0.0622
     14 C           0.7961    5.1288    5.6392 C.ar    1  LIG1       -0.0583
     15 C           1.5278    2.9891   -0.5466 C.ar    1  LIG1       -0.0684
     16 C           2.1483    5.4155   -0.9882 C.ar    1  LIG1       -0.0748
     17 C           2.0496    4.1592    3.8155 C.ar    1  LIG1       -0.0547
     18 C           1.5897    4.4355    6.5532 C.ar    1  LIG1       -0.0480
     19 C           0.1125    4.2300    8.5499 C.2     1  LIG1        0.0901
     20 C           1.5995    4.6404    1.3824 C.2     1  LIG1        0.1084
     21 C          -1.0436    3.8229    7.6652 C.3     1  LIG1        0.0543
     22 C           2.4931    5.0128    8.7942 C.3     1  LIG1       -0.0060
     23 C           2.1508    4.2318   -0.0063 C.3     1  LIG1        0.0871
     24 N           2.2830    4.0195    2.4267 N.am    1  LIG1       -0.3130
     25 N           1.3595    4.5740    7.9222 N.am    1  LIG1       -0.3305
     26 O          -0.0812    4.2746    9.7674 O.2     1  LIG1       -0.4829
     27 O           0.6585    5.4227    1.4833 O.2     1  LIG1       -0.4696
     28 H          -0.0930   -0.2397   -1.9504 H       1  LIG1        0.1141
     29 H           2.1436    8.3987   -3.4627 H       1  LIG1        0.1167
     30 H           2.2437    0.3380   -2.5516 H       1  LIG1        0.1144
     31 H          -1.3923    1.2503   -0.4506 H       1  LIG1        0.1139
     32 H           0.1609    6.9159   -3.3035 H       1  LIG1        0.1172
     33 H           4.1297    7.9713   -2.0378 H       1  LIG1        0.1178
     34 H           3.2825    2.3964   -1.6583 H       1  LIG1        0.1242
     35 H          -0.3627    3.3109    0.4477 H       1  LIG1        0.1177
     36 H           0.1586    5.0116   -1.7261 H       1  LIG1        0.1183
     37 H           4.1373    6.0698   -0.4575 H       1  LIG1        0.1206
     38 H           3.6436    2.8154    4.3868 H       1  LIG1        0.1403
     39 H           0.4013    5.5352    3.5670 H       1  LIG1        0.1277
     40 H           3.2386    3.0593    6.8011 H       1  LIG1        0.1265
     41 H          -0.0036    5.7797    5.9823 H       1  LIG1        0.1660
     42 H          -1.0335    2.7419    7.5025 H       1  LIG1        0.0835
     43 H          -1.0049    4.3605    6.7141 H       1  LIG1        0.0959
     44 H          -1.9865    4.0784    8.1597 H       1  LIG1        0.0955
     45 H           2.5093    6.1032    8.8689 H       1  LIG1        0.0933
     46 H           3.4448    4.6745    8.3755 H       1  LIG1        0.1035
     47 H           2.3827    4.5929    9.7975 H       1  LIG1        0.1046
     48 H           3.2265    4.0298    0.1863 H       1  LIG1        0.1438
     49 H           3.0474    3.3953    2.1780 H       1  LIG1        0.3218
@<TRIPOS>BOND
     1     1     3   ar
     2     1     4   ar
     3     2     5   ar
     4     2     6   ar
     5     3     7   ar
     6     4     8   ar
     7     5     9   ar
     8     6    10   ar
     9     7    15   ar
    10     8    15   ar
    11     9    16   ar
    12    10    16   ar
    13    11    13   ar
    14    11    17   ar
    15    12    14   ar
    16    12    17   ar
    17    13    18   ar
    18    14    18   ar
    19    15    23    1
    20    16    23    1
    21    17    24    1
    22    18    25    1
    23    19    21    1
    24    19    25   am
    25    19    26    2
    26    20    23    1
    27    20    24   am
    28    20    27    2
    29    22    25    1
    30     1    28    1
    31     2    29    1
    32     3    30    1
    33     4    31    1
    34     5    32    1
    35     6    33    1
    36     7    34    1
    37     8    35    1
    38     9    36    1
    39    10    37    1
    40    11    38    1
    41    12    39    1
    42    13    40    1
    43    14    41    1
    44    21    42    1
    45    21    43    1
    46    21    44    1
    47    22    45    1
    48    22    46    1
    49    22    47    1
    50    23    48    1
    51    24    49    1
