@<TRIPOS>MOLECULE
AK-968/11842372
 41 44 0 0 0
SMALL
USER_CHARGES

@<TRIPOS>ATOM
      1 C           1.2202    0.3975   -0.8774 C.ar    1  LIG1       -0.0972
      2 C           3.0682    7.4721   -1.3972 C.ar    1  LIG1       -0.0999
      3 C          -0.0490    0.7808   -1.3050 C.ar    1  LIG1       -0.0909
      4 C           1.7583    7.7005   -1.8128 C.ar    1  LIG1       -0.0899
      5 C           2.1916    1.3653   -0.6188 C.ar    1  LIG1       -0.0874
      6 C           3.4545    6.1997   -0.9743 C.ar    1  LIG1       -0.0953
      7 C           0.6258    4.7764    5.0628 C.ar    1  LIG1       -0.0957
      8 C           2.9568    4.1952    5.3194 C.ar    1  LIG1       -0.0998
      9 C           0.7452    4.6447    3.6794 C.ar    1  LIG1       -0.0673
     10 C           3.0761    4.0635    3.9359 C.ar    1  LIG1       -0.0746
     11 C          -0.3466    2.1314   -1.4790 C.ar    1  LIG1       -0.0508
     12 C           0.8353    6.6562   -1.8108 C.ar    1  LIG1       -0.0493
     13 C           1.9028    2.7278   -0.7870 C.ar    1  LIG1       -0.0281
     14 C           2.5333    5.1415   -0.9640 C.ar    1  LIG1       -0.0353
     15 C           1.7317    4.5516    5.8828 C.ar    1  LIG1       -0.1176
     16 C           1.9704    4.2883    3.1159 C.ar    1  LIG1       -0.0570
     17 C           0.6282    3.1007   -1.2262 C.ar    1  LIG1        0.0249
     18 C           1.2234    5.3800   -1.3932 C.ar    1  LIG1        0.0224
     19 C           3.2274    3.8084    0.9914 C.2     1  LIG1        0.1086
     20 C           2.9430    3.7742   -0.4821 C.3     1  LIG1        0.0931
     21 C           1.6039    4.6925    7.3621 C.3     1  LIG1       -0.0455
     22 N           2.0918    4.1544    1.7124 N.am    1  LIG1       -0.3133
     23 O           4.3465    3.5475    1.4213 O.2     1  LIG1       -0.4661
     24 O           0.2528    4.4069   -1.4355 O.3     1  LIG1       -0.3562
     25 H           1.4534   -0.6547   -0.7429 H       1  LIG1        0.1191
     26 H           3.7885    8.2849   -1.3998 H       1  LIG1        0.1209
     27 H          -0.8058    0.0278   -1.5045 H       1  LIG1        0.1334
     28 H           1.4571    8.6913   -2.1399 H       1  LIG1        0.1355
     29 H           3.1762    1.0508   -0.2814 H       1  LIG1        0.1307
     30 H           4.4791    6.0383   -0.6484 H       1  LIG1        0.1253
     31 H          -0.3321    5.0567    5.4932 H       1  LIG1        0.1219
     32 H           3.8237    4.0189    5.9506 H       1  LIG1        0.1217
     33 H          -0.1233    4.8219    3.0500 H       1  LIG1        0.1375
     34 H           4.0359    3.7863    3.5071 H       1  LIG1        0.1221
     35 H          -1.3377    2.4222   -1.8169 H       1  LIG1        0.1344
     36 H          -0.1838    6.8416   -2.1402 H       1  LIG1        0.1372
     37 H           3.8680    3.4939   -1.0031 H       1  LIG1        0.1484
     38 H           1.3156    3.7353    7.8134 H       1  LIG1        0.0555
     39 H           2.5491    5.0197    7.8144 H       1  LIG1        0.0525
     40 H           0.8484    5.4438    7.6270 H       1  LIG1        0.0526
     41 H           1.2416    4.3343    1.1822 H       1  LIG1        0.3193
@<TRIPOS>BOND
     1     1     3   ar
     2     1     5   ar
     3     2     4   ar
     4     2     6   ar
     5     3    11   ar
     6     4    12   ar
     7     5    13   ar
     8     6    14   ar
     9     7     9   ar
    10     7    15   ar
    11     8    10   ar
    12     8    15   ar
    13     9    16   ar
    14    10    16   ar
    15    11    17   ar
    16    12    18   ar
    17    13    17   ar
    18    13    20    1
    19    14    18   ar
    20    14    20    1
    21    15    21    1
    22    16    22    1
    23    17    24    1
    24    18    24    1
    25    19    20    1
    26    19    22   am
    27    19    23    2
    28     1    25    1
    29     2    26    1
    30     3    27    1
    31     4    28    1
    32     5    29    1
    33     6    30    1
    34     7    31    1
    35     8    32    1
    36     9    33    1
    37    10    34    1
    38    11    35    1
    39    12    36    1
    40    20    37    1
    41    21    38    1
    42    21    39    1
    43    21    40    1
    44    22    41    1
