@<TRIPOS>MOLECULE
AN-056/25013025
 52 55 0 0 0
SMALL
USER_CHARGES

@<TRIPOS>ATOM
      1 C           0.2303    1.7323   -2.5204 C.ar    1  LIG1       -0.1085
      2 C           1.8809    7.2557   -2.8165 C.ar    1  LIG1       -0.1080
      3 C           2.4238    4.0319    6.1366 C.ar    1  LIG1       -0.1038
      4 C          -0.1987    9.7424    2.2463 C.ar    1  LIG1       -0.1034
      5 C          -0.2771    1.7450   -1.2213 C.ar    1  LIG1       -0.1045
      6 C           1.4701    2.3118   -2.7907 C.ar    1  LIG1       -0.1089
      7 C           3.1213    7.1149   -2.1943 C.ar    1  LIG1       -0.1082
      8 C           0.7442    6.6860   -2.2429 C.ar    1  LIG1       -0.1060
      9 C           1.1348    4.5525    6.0237 C.ar    1  LIG1       -0.1124
     10 C           3.2241    3.8986    5.0018 C.ar    1  LIG1       -0.1026
     11 C           1.1076    9.3163    2.4866 C.ar    1  LIG1       -0.1105
     12 C          -1.1925    8.8104    1.9474 C.ar    1  LIG1       -0.1042
     13 C           0.4549    2.3373   -0.1923 C.ar    1  LIG1       -0.0967
     14 C           2.2022    2.9042   -1.7616 C.ar    1  LIG1       -0.1033
     15 C           3.2252    6.4042   -0.9986 C.ar    1  LIG1       -0.1118
     16 C           0.8480    5.9753   -1.0471 C.ar    1  LIG1       -0.1059
     17 C           0.6458    4.9397    4.7760 C.ar    1  LIG1       -0.0903
     18 C           2.7351    4.2858    3.7542 C.ar    1  LIG1       -0.0744
     19 C           1.4202    7.9581    2.4276 C.ar    1  LIG1       -0.0892
     20 C          -0.8799    7.4522    1.8884 C.ar    1  LIG1       -0.0787
     21 C           1.6946    2.9168   -0.4625 C.ar    1  LIG1       -0.0886
     22 C           2.0884    5.8344   -0.4250 C.ar    1  LIG1       -0.0801
     23 C           1.4459    4.8064    3.6413 C.ar    1  LIG1        0.0921
     24 C           0.4264    7.0262    2.1285 C.ar    1  LIG1        0.0895
     25 C           2.4779    3.5506    0.6373 C.3     1  LIG1        0.0443
     26 C           2.2006    5.0619    0.8741 C.3     1  LIG1        0.1441
     27 O          -0.3132    4.4494    1.5415 O.2     1  LIG1       -0.3732
     28 O           3.8865    3.3837    0.4043 O.3     1  LIG1       -0.4802
     29 P           0.8238    5.2991    2.0536 P.3     1  LIG1        0.0723
     30 H          -0.3393    1.2699   -3.3214 H       1  LIG1        0.1135
     31 H           1.8000    7.8103   -3.7469 H       1  LIG1        0.1142
     32 H           2.8045    3.7304    7.1082 H       1  LIG1        0.1237
     33 H          -0.4419   10.7999    2.2922 H       1  LIG1        0.1250
     34 H          -1.2420    1.2929   -1.0105 H       1  LIG1        0.1164
     35 H           1.8660    2.3011   -3.8019 H       1  LIG1        0.1133
     36 H           4.0063    7.5594   -2.6402 H       1  LIG1        0.1119
     37 H          -0.2219    6.7964   -2.7264 H       1  LIG1        0.1204
     38 H           0.5116    4.6560    6.9072 H       1  LIG1        0.1126
     39 H           4.2280    3.4935    5.0900 H       1  LIG1        0.1198
     40 H           1.8814   10.0420    2.7190 H       1  LIG1        0.1137
     41 H          -2.2096    9.1422    1.7607 H       1  LIG1        0.1196
     42 H           0.0516    2.3427    0.8169 H       1  LIG1        0.1225
     43 H           3.1671    3.3533   -1.9816 H       1  LIG1        0.1089
     44 H           4.1958    6.2994   -0.5210 H       1  LIG1        0.1108
     45 H          -0.0430    5.5347   -0.6076 H       1  LIG1        0.1411
     46 H          -0.3589    5.3441    4.6930 H       1  LIG1        0.1036
     47 H           3.3622    4.1804    2.8735 H       1  LIG1        0.1395
     48 H           2.4390    7.6312    2.6148 H       1  LIG1        0.1087
     49 H          -1.6572    6.7301    1.6556 H       1  LIG1        0.1346
     50 H           2.2881    3.0079    1.5809 H       1  LIG1        0.1568
     51 H           3.0517    5.4869    1.4248 H       1  LIG1        0.0964
     52 H           4.0672    3.8158   -0.4410 H       1  LIG1        0.3226
@<TRIPOS>BOND
     1     1     5   ar
     2     1     6   ar
     3     2     7   ar
     4     2     8   ar
     5     3     9   ar
     6     3    10   ar
     7     4    11   ar
     8     4    12   ar
     9     5    13   ar
    10     6    14   ar
    11     7    15   ar
    12     8    16   ar
    13     9    17   ar
    14    10    18   ar
    15    11    19   ar
    16    12    20   ar
    17    13    21   ar
    18    14    21   ar
    19    15    22   ar
    20    16    22   ar
    21    17    23   ar
    22    18    23   ar
    23    19    24   ar
    24    20    24   ar
    25    21    25    1
    26    22    26    1
    27    23    29    1
    28    24    29    1
    29    25    26    1
    30    25    28    1
    31    26    29    1
    32    27    29    2
    33     1    30    1
    34     2    31    1
    35     3    32    1
    36     4    33    1
    37     5    34    1
    38     6    35    1
    39     7    36    1
    40     8    37    1
    41     9    38    1
    42    10    39    1
    43    11    40    1
    44    12    41    1
    45    13    42    1
    46    14    43    1
    47    15    44    1
    48    16    45    1
    49    17    46    1
    50    18    47    1
    51    19    48    1
    52    20    49    1
    53    25    50    1
    54    26    51    1
    55    28    52    1
