@<TRIPOS>MOLECULE
AE-477/13519151
 43 46 0 0 0
SMALL
USER_CHARGES

@<TRIPOS>ATOM
      1 C           0.1670    0.6102   -2.2119 C.ar    1  LIG1       -0.1094
      2 C           1.4500    0.9855   -2.6102 C.ar    1  LIG1       -0.1064
      3 C          -0.4181    1.2048   -1.0939 C.ar    1  LIG1       -0.1079
      4 C           2.2311    6.5669   -2.4165 C.ar    1  LIG1       -0.1059
      5 C           2.0081    7.6343   -1.5516 C.ar    1  LIG1       -0.0989
      6 C           2.1480    1.9552   -1.8905 C.ar    1  LIG1       -0.1003
      7 C           0.2800    2.1744   -0.3741 C.ar    1  LIG1       -0.1020
      8 C           2.3387    5.2693   -1.9128 C.ar    1  LIG1       -0.0989
      9 C           3.0733    4.1064    4.5799 C.ar    1  LIG1       -0.0938
     10 C           1.0040    5.2916    4.1919 C.ar    1  LIG1       -0.0911
     11 C           2.7902    4.0589    5.9448 C.ar    1  LIG1       -0.1034
     12 C           0.7209    5.2442    5.5569 C.ar    1  LIG1       -0.1017
     13 C           1.9107    7.4078   -0.1807 C.ar    1  LIG1       -0.0603
     14 C           1.5630    2.5497   -0.7724 C.ar    1  LIG1       -0.1020
     15 C           2.1802    4.7228    3.7034 C.ar    1  LIG1       -0.0717
     16 C           2.2119    5.0186   -0.5361 C.ar    1  LIG1       -0.0652
     17 C           1.6140    4.6278    6.4334 C.ar    1  LIG1       -0.1183
     18 C           2.0347    6.1109    0.3273 C.ar    1  LIG1       -0.0020
     19 C           1.8973    3.5670    1.4908 C.3     1  LIG1       -0.0113
     20 C           2.3239    3.6072    0.0133 C.3     1  LIG1       -0.0170
     21 C           2.4867    4.7745    2.2212 C.3     1  LIG1        0.0413
     22 C           1.3111    4.5752    7.8928 C.3     1  LIG1       -0.0438
     23 O           1.9531    5.9975    1.6920 O.3     1  LIG1       -0.3992
     24 H          -0.3769   -0.1439   -2.7733 H       1  LIG1        0.1129
     25 H           1.9052    0.5235   -3.4814 H       1  LIG1        0.1144
     26 H          -1.4174    0.9136   -0.7841 H       1  LIG1        0.1144
     27 H           2.3223    6.7428   -3.4844 H       1  LIG1        0.1092
     28 H           1.9189    8.6430   -1.9438 H       1  LIG1        0.1256
     29 H           3.1474    2.2412   -2.2080 H       1  LIG1        0.1164
     30 H          -0.1837    2.6321    0.4958 H       1  LIG1        0.1161
     31 H           2.5167    4.4532   -2.6089 H       1  LIG1        0.1238
     32 H           3.9923    3.6609    4.2082 H       1  LIG1        0.1215
     33 H           0.3020    5.7726    3.5157 H       1  LIG1        0.1259
     34 H           3.4909    3.5751    6.6199 H       1  LIG1        0.1177
     35 H          -0.1978    5.6897    5.9293 H       1  LIG1        0.1170
     36 H           1.7523    8.2489    0.4895 H       1  LIG1        0.1253
     37 H           0.7997    3.5981    1.5641 H       1  LIG1        0.0727
     38 H           2.2193    2.6248    1.9531 H       1  LIG1        0.0687
     39 H           3.4022    3.3297   -0.0388 H       1  LIG1        0.0938
     40 H           3.5918    4.7965    2.1187 H       1  LIG1        0.1301
     41 H           1.7218    5.4567    8.4001 H       1  LIG1        0.0570
     42 H           0.2291    4.5420    8.0742 H       1  LIG1        0.0536
     43 H           1.7385    3.6763    8.3561 H       1  LIG1        0.0536
@<TRIPOS>BOND
     1     1     2   ar
     2     1     3   ar
     3     2     6   ar
     4     3     7   ar
     5     4     5   ar
     6     4     8   ar
     7     5    13   ar
     8     6    14   ar
     9     7    14   ar
    10     8    16   ar
    11     9    11   ar
    12     9    15   ar
    13    10    12   ar
    14    10    15   ar
    15    11    17   ar
    16    12    17   ar
    17    13    18   ar
    18    14    20    1
    19    15    21    1
    20    16    18   ar
    21    16    20    1
    22    17    22    1
    23    18    23    1
    24    19    20    1
    25    19    21    1
    26    21    23    1
    27     1    24    1
    28     2    25    1
    29     3    26    1
    30     4    27    1
    31     5    28    1
    32     6    29    1
    33     7    30    1
    34     8    31    1
    35     9    32    1
    36    10    33    1
    37    11    34    1
    38    12    35    1
    39    13    36    1
    40    19    37    1
    41    19    38    1
    42    20    39    1
    43    21    40    1
    44    22    41    1
    45    22    42    1
    46    22    43    1
