@<TRIPOS>MOLECULE
AE-562/12222354
 37 39 0 0 0
SMALL
USER_CHARGES

@<TRIPOS>ATOM
      1 C           1.9463    7.6855   -2.1607 C.ar    1  LIG1       -0.1074
      2 C           0.1270    0.6493   -1.6124 C.ar    1  LIG1       -0.1077
      3 C           3.1552    7.0116   -2.3342 C.ar    1  LIG1       -0.1056
      4 C           0.9504    7.1349   -1.3541 C.ar    1  LIG1       -0.1053
      5 C           1.5080    0.6109   -1.8033 C.ar    1  LIG1       -0.1066
      6 C          -0.4588    1.7420   -0.9732 C.ar    1  LIG1       -0.1050
      7 C           3.3679    5.7869   -1.7015 C.ar    1  LIG1       -0.0992
      8 C           1.1632    5.9102   -0.7214 C.ar    1  LIG1       -0.0990
      9 C           2.3036    1.6654   -1.3549 C.ar    1  LIG1       -0.1010
     10 C           0.3367    2.7964   -0.5248 C.ar    1  LIG1       -0.0982
     11 C           3.0841    5.1597    1.9573 C.ar    1  LIG1       -0.0684
     12 C           2.3872    2.8498    2.0807 C.ar    1  LIG1       -0.0690
     13 C           3.1692    5.2085    3.3487 C.ar    1  LIG1       -0.0440
     14 C           2.4723    2.8985    3.4722 C.ar    1  LIG1       -0.0443
     15 C           2.3719    5.2361   -0.8951 C.ar    1  LIG1       -0.0904
     16 C           1.7180    2.7580   -0.7156 C.ar    1  LIG1       -0.0909
     17 C           2.6930    3.9804    1.3233 C.ar    1  LIG1       -0.0709
     18 C           2.8634    4.0779    4.1061 C.ar    1  LIG1        0.0651
     19 C           2.5987    3.9265   -0.2183 C.3     1  LIG1        0.0069
     20 N           2.9496    4.1277    5.5226 N.pl3   1  LIG1       -0.0521
     21 O           3.3030    5.1985    6.0729 O.2     1  LIG1       -0.1590
     22 O           2.6700    3.0994    6.1852 O.2     1  LIG1       -0.2493
     23 H           1.7814    8.6398   -2.6523 H       1  LIG1        0.1157
     24 H          -0.4925   -0.1712   -1.9628 H       1  LIG1        0.1152
     25 H           3.9313    7.4408   -2.9613 H       1  LIG1        0.1167
     26 H           0.0096    7.6598   -1.2179 H       1  LIG1        0.1163
     27 H           1.9642   -0.2393   -2.3019 H       1  LIG1        0.1154
     28 H          -1.5342    1.7727   -0.8255 H       1  LIG1        0.1161
     29 H           4.3129    5.2688   -1.8427 H       1  LIG1        0.1191
     30 H           0.3814    5.4887   -0.0950 H       1  LIG1        0.1180
     31 H           3.3790    1.6268   -1.5077 H       1  LIG1        0.1148
     32 H          -0.1283    3.6435   -0.0278 H       1  LIG1        0.1210
     33 H           3.3243    6.0456    1.3752 H       1  LIG1        0.1432
     34 H           2.0817    1.9264    1.5958 H       1  LIG1        0.1434
     35 H           3.4751    6.1341    3.8301 H       1  LIG1        0.1616
     36 H           2.2311    2.0101    4.0508 H       1  LIG1        0.1626
     37 H           3.6215    3.6022   -0.5129 H       1  LIG1        0.1220
@<TRIPOS>BOND
     1     1     3   ar
     2     1     4   ar
     3     2     5   ar
     4     2     6   ar
     5     3     7   ar
     6     4     8   ar
     7     5     9   ar
     8     6    10   ar
     9     7    15   ar
    10     8    15   ar
    11     9    16   ar
    12    10    16   ar
    13    11    13   ar
    14    11    17   ar
    15    12    14   ar
    16    12    17   ar
    17    13    18   ar
    18    14    18   ar
    19    15    19    1
    20    16    19    1
    21    17    19    1
    22    18    20    1
    23    20    21    1
    24    20    22    2
    25     1    23    1
    26     2    24    1
    27     3    25    1
    28     4    26    1
    29     5    27    1
    30     6    28    1
    31     7    29    1
    32     8    30    1
    33     9    31    1
    34    10    32    1
    35    11    33    1
    36    12    34    1
    37    13    35    1
    38    14    36    1
    39    19    37    1
