@<TRIPOS>MOLECULE
AG-690/40111681
 36 38 0 0 0
SMALL
USER_CHARGES

@<TRIPOS>ATOM
      1 C           0.9291    0.4508   -1.9333 C.ar    1  LIG1       -0.1060
      2 C           2.7517    7.4306   -2.3346 C.ar    1  LIG1       -0.1081
      3 C          -0.0791    1.3607   -2.2512 C.ar    1  LIG1       -0.1047
      4 C           1.9116    0.7945   -1.0046 C.ar    1  LIG1       -0.1029
      5 C           1.4246    7.0879   -2.5934 C.ar    1  LIG1       -0.1059
      6 C           3.4640    6.7603   -1.3401 C.ar    1  LIG1       -0.1044
      7 C           2.1715    4.4646    5.7950 C.ar    1  LIG1       -0.0824
      8 C          -0.1048    2.6144   -1.6404 C.ar    1  LIG1       -0.0949
      9 C           1.8858    2.0482   -0.3939 C.ar    1  LIG1       -0.0919
     10 C           0.8096    6.0751   -1.8574 C.ar    1  LIG1       -0.0949
     11 C           2.8490    5.7475   -0.6041 C.ar    1  LIG1       -0.0926
     12 C           1.0330    4.6992    4.9877 C.ar    1  LIG1       -0.0570
     13 C           3.1831    4.1071    4.9344 C.ar    1  LIG1        0.0061
     14 C           0.8776    2.9583   -0.7117 C.ar    1  LIG1       -0.0736
     15 C           1.5218    5.4049   -0.8627 C.ar    1  LIG1       -0.0730
     16 C           1.4301    4.4686    3.6911 C.ar    1  LIG1        0.1163
     17 C           0.6908    4.5483    2.4049 C.2     1  LIG1        0.1479
     18 C           0.8507    4.2988   -0.0584 C.3     1  LIG1        0.0171
     19 N           1.4334    4.2414    1.2949 N.am    1  LIG1       -0.3149
     20 O          -0.4886    4.8910    2.4110 O.2     1  LIG1       -0.4547
     21 O           2.7395    4.1074    3.6500 O.2     1  LIG1       -0.3642
     22 H           0.9484   -0.5260   -2.4080 H       1  LIG1        0.1168
     23 H           3.2308    8.2183   -2.9087 H       1  LIG1        0.1144
     24 H          -0.8447    1.0928   -2.9734 H       1  LIG1        0.1176
     25 H           2.6961    0.0859   -0.7562 H       1  LIG1        0.1189
     26 H           0.8702    7.6089   -3.3685 H       1  LIG1        0.1140
     27 H           4.4975    7.0261   -1.1391 H       1  LIG1        0.1165
     28 H           2.2454    4.5452    6.8699 H       1  LIG1        0.1220
     29 H          -0.8941    3.3171   -1.8942 H       1  LIG1        0.1154
     30 H           2.6555    2.3075    0.3283 H       1  LIG1        0.1228
     31 H          -0.2248    5.8150   -2.0658 H       1  LIG1        0.1148
     32 H           3.4116    5.2309    0.1690 H       1  LIG1        0.1212
     33 H           0.0473    4.9988    5.3143 H       1  LIG1        0.1465
     34 H           4.2199    3.8360    5.0707 H       1  LIG1        0.2299
     35 H          -0.1926    4.6163    0.1217 H       1  LIG1        0.1576
     36 H           2.4114    4.0281    1.3357 H       1  LIG1        0.3100
@<TRIPOS>BOND
     1     1     3   ar
     2     1     4   ar
     3     2     5   ar
     4     2     6   ar
     5     3     8   ar
     6     4     9   ar
     7     5    10   ar
     8     6    11   ar
     9     7    12   ar
    10     7    13   ar
    11     8    14   ar
    12     9    14   ar
    13    10    15   ar
    14    11    15   ar
    15    12    16   ar
    16    13    21   ar
    17    14    18    1
    18    15    18    1
    19    16    17    1
    20    16    21   ar
    21    17    19   am
    22    17    20    2
    23    18    19    1
    24     1    22    1
    25     2    23    1
    26     3    24    1
    27     4    25    1
    28     5    26    1
    29     6    27    1
    30     7    28    1
    31     8    29    1
    32     9    30    1
    33    10    31    1
    34    11    32    1
    35    12    33    1
    36    13    34    1
    37    18    35    1
    38    19    36    1
