@<TRIPOS>MOLECULE
AN-329/43448601
 53 56 0 0 0
SMALL
USER_CHARGES

@<TRIPOS>ATOM
      1 C           0.3843    0.6119   -1.8792 C.ar    1  LIG1       -0.1079
      2 C           2.1978    7.5572   -2.4032 C.ar    1  LIG1       -0.1058
      3 C           1.7167    0.9615   -2.0975 C.ar    1  LIG1       -0.1064
      4 C          -0.4048    1.3746   -1.0181 C.ar    1  LIG1       -0.1024
      5 C           3.1882    6.5813   -2.5149 C.ar    1  LIG1       -0.1044
      6 C           1.1647    7.3998   -1.4792 C.ar    1  LIG1       -0.1043
      7 C           0.5758    4.8103    5.7221 C.ar    1  LIG1       -0.0581
      8 C           2.8907    4.2896    6.1773 C.ar    1  LIG1       -0.0638
      9 C           2.2603    2.0738   -1.4549 C.ar    1  LIG1       -0.0973
     10 C           0.1388    2.4869   -0.3754 C.ar    1  LIG1       -0.0920
     11 C           3.1454    5.4481   -1.7028 C.ar    1  LIG1       -0.0991
     12 C           1.1220    6.2665   -0.6671 C.ar    1  LIG1       -0.0986
     13 C           0.8095    4.6549    4.3557 C.ar    1  LIG1       -0.0585
     14 C           3.1244    4.1341    4.8110 C.ar    1  LIG1       -0.0620
     15 C           1.6164    4.6277    6.6328 C.ar    1  LIG1        0.0244
     16 C           1.4714    2.8364   -0.5938 C.ar    1  LIG1       -0.0686
     17 C           2.1123    5.2906   -0.7789 C.ar    1  LIG1       -0.0751
     18 C           2.0839    4.3168    3.9002 C.ar    1  LIG1       -0.0486
     19 C           1.3718    4.7904    8.0627 C.2     1  LIG1        0.1111
     20 C           1.4062    4.3131    1.4722 C.2     1  LIG1        0.1119
     21 C          -0.1887    8.1170    8.5392 C.3     1  LIG1       -0.0422
     22 C           0.2833    7.7745    9.9463 C.3     1  LIG1       -0.0413
     23 C           0.6822    7.2252    7.6652 C.3     1  LIG1       -0.0251
     24 C           0.5214    6.2746    9.8657 C.3     1  LIG1       -0.0247
     25 C           2.0648    4.0518    0.1090 C.3     1  LIG1        0.0876
     26 N           0.9212    6.0378    8.4852 N.am    1  LIG1       -0.3589
     27 N           2.3166    4.1615    2.5334 N.am    1  LIG1       -0.3070
     28 O           1.5449    3.8434    8.8294 O.2     1  LIG1       -0.4778
     29 O           0.2211    4.6179    1.5742 O.2     1  LIG1       -0.4652
     30 H          -0.0392   -0.2534   -2.3807 H       1  LIG1        0.1148
     31 H           2.2320    8.4402   -3.0346 H       1  LIG1        0.1174
     32 H           2.3310    0.3684   -2.7688 H       1  LIG1        0.1145
     33 H          -1.4426    1.1035   -0.8487 H       1  LIG1        0.1149
     34 H           3.9933    6.7042   -3.2334 H       1  LIG1        0.1177
     35 H           0.3941    8.1598   -1.3912 H       1  LIG1        0.1183
     36 H          -0.4208    5.0743    6.0661 H       1  LIG1        0.1489
     37 H           3.7088    4.1450    6.8783 H       1  LIG1        0.1502
     38 H           3.2996    2.3386   -1.6309 H       1  LIG1        0.1182
     39 H          -0.4835    3.0752    0.2938 H       1  LIG1        0.1239
     40 H           3.9212    4.6927   -1.7970 H       1  LIG1        0.1183
     41 H           0.3131    6.1523    0.0498 H       1  LIG1        0.1210
     42 H          -0.0084    4.7991    3.6541 H       1  LIG1        0.1296
     43 H           4.1216    3.8706    4.4674 H       1  LIG1        0.1368
     44 H          -1.2442    7.8415    8.4252 H       1  LIG1        0.0591
     45 H          -0.0819    9.1779    8.2975 H       1  LIG1        0.0635
     46 H           1.2253    8.2946   10.1584 H       1  LIG1        0.0652
     47 H          -0.4406    8.0456   10.7195 H       1  LIG1        0.0582
     48 H           0.2009    6.9606    6.7194 H       1  LIG1        0.1004
     49 H           1.6526    7.6893    7.4580 H       1  LIG1        0.0994
     50 H           1.2911    5.9221   10.5588 H       1  LIG1        0.0963
     51 H          -0.4003    5.7104   10.0454 H       1  LIG1        0.1030
     52 H           3.1128    3.8050    0.3409 H       1  LIG1        0.1452
     53 H           3.2751    3.9126    2.2637 H       1  LIG1        0.3256
@<TRIPOS>BOND
     1     1     3   ar
     2     1     4   ar
     3     2     5   ar
     4     2     6   ar
     5     3     9   ar
     6     4    10   ar
     7     5    11   ar
     8     6    12   ar
     9     7    13   ar
    10     7    15   ar
    11     8    14   ar
    12     8    15   ar
    13     9    16   ar
    14    10    16   ar
    15    11    17   ar
    16    12    17   ar
    17    13    18   ar
    18    14    18   ar
    19    15    19    1
    20    16    25    1
    21    17    25    1
    22    18    27    1
    23    19    26   am
    24    19    28    2
    25    20    25    1
    26    20    27   am
    27    20    29    2
    28    21    22    1
    29    21    23    1
    30    22    24    1
    31    23    26    1
    32    24    26    1
    33     1    30    1
    34     2    31    1
    35     3    32    1
    36     4    33    1
    37     5    34    1
    38     6    35    1
    39     7    36    1
    40     8    37    1
    41     9    38    1
    42    10    39    1
    43    11    40    1
    44    12    41    1
    45    13    42    1
    46    14    43    1
    47    21    44    1
    48    21    45    1
    49    22    46    1
    50    22    47    1
    51    23    48    1
    52    23    49    1
    53    24    50    1
    54    24    51    1
    55    25    52    1
    56    27    53    1
