@<TRIPOS>MOLECULE
AG-205/07907041
 49 52 0 0 0
SMALL
USER_CHARGES

@<TRIPOS>ATOM
      1 C           2.9224    6.3049   -2.9892 C.ar    1  LIG1       -0.0867
      2 C           3.1214    4.1904    4.7559 C.ar    1  LIG1       -0.0652
      3 C           0.7631    4.3945    4.2725 C.ar    1  LIG1       -0.0634
      4 C           0.5775    3.0031   -0.3671 C.ar    1  LIG1       -0.0835
      5 C           3.1006    5.4749   -1.8824 C.ar    1  LIG1       -0.0484
      6 C          -0.3913    2.2238   -0.9991 C.ar    1  LIG1       -0.0675
      7 C           2.8429    4.2097    6.1226 C.ar    1  LIG1       -0.0658
      8 C           0.4846    4.4137    5.6392 C.ar    1  LIG1       -0.0649
      9 C           1.9706    7.3239   -2.9507 C.ar    1  LIG1       -0.0844
     10 C           1.3751    6.6827   -0.6987 C.ar    1  LIG1       -0.0364
     11 C           1.3133    0.6487   -1.6699 C.ar    1  LIG1       -0.0250
     12 C           2.0814    4.2829    3.8308 C.ar    1  LIG1       -0.0287
     13 C           1.9143    2.6053   -0.3864 C.ar    1  LIG1       -0.0343
     14 C           2.3270    5.6637   -0.7373 C.ar    1  LIG1       -0.0156
     15 C          -0.0234    1.0465   -1.6505 C.ar    1  LIG1       -0.0129
     16 C           2.2822    1.4281   -1.0379 C.ar    1  LIG1        0.0044
     17 C           1.5246    4.3214    6.5642 C.ar    1  LIG1       -0.0134
     18 C           1.1969    7.5127   -1.8055 C.ar    1  LIG1       -0.0358
     19 C           2.3714    4.2625    2.4060 C.2     1  LIG1        0.0128
     20 C           3.0595    3.0821    1.7773 C.3     1  LIG1        0.0319
     21 C           2.9384    3.4522    0.2966 C.3     1  LIG1        0.0285
     22 C          -0.5241   -0.9045   -2.9149 C.3     1  LIG1        0.0256
     23 C           4.3805    1.4848   -2.1558 C.3     1  LIG1        0.0272
     24 N           2.0962    5.2329    1.5924 N.2     1  LIG1       -0.3208
     25 N           2.5024    4.8482    0.3494 N.pl3   1  LIG1       -0.3194
     26 O          -0.9690    0.2868   -2.2678 O.3     1  LIG1       -0.4148
     27 O           3.5835    1.0252   -1.0662 O.3     1  LIG1       -0.4099
     28 CL          1.1811    4.3437    8.2501 Cl      1  LIG1       -0.1410
     29 BR         -0.0925    8.8936   -1.7543 Br      1  LIG1       -0.1063
     30 H           3.5248    6.1578   -3.8809 H       1  LIG1        0.1342
     31 H           4.1524    4.1037    4.4227 H       1  LIG1        0.1418
     32 H          -0.0552    4.4669    3.5607 H       1  LIG1        0.1458
     33 H           0.2812    3.9186    0.1386 H       1  LIG1        0.1396
     34 H           3.8452    4.6840   -1.9233 H       1  LIG1        0.1354
     35 H          -1.4313    2.5385   -0.9803 H       1  LIG1        0.1077
     36 H           3.6630    4.1364    6.8322 H       1  LIG1        0.1366
     37 H          -0.5476    4.5015    5.9686 H       1  LIG1        0.1360
     38 H           1.8444    7.9617   -3.8218 H       1  LIG1        0.1230
     39 H           0.7745    6.8254    0.1971 H       1  LIG1        0.1352
     40 H           1.5998   -0.2687   -2.1785 H       1  LIG1        0.1240
     41 H           4.1064    3.0818    2.0998 H       1  LIG1        0.1002
     42 H           2.5845    2.1373    2.0558 H       1  LIG1        0.1021
     43 H           3.8985    3.3455   -0.2191 H       1  LIG1        0.1414
     44 H          -1.3781   -1.4155   -3.3663 H       1  LIG1        0.0910
     45 H          -0.0394   -1.5575   -2.1847 H       1  LIG1        0.1231
     46 H           0.1927   -0.6386   -3.6954 H       1  LIG1        0.0903
     47 H           5.3952    1.0914   -2.0574 H       1  LIG1        0.0914
     48 H           4.4006    2.5775   -2.1582 H       1  LIG1        0.0913
     49 H           3.9430    1.1284   -3.0914 H       1  LIG1        0.1238
@<TRIPOS>BOND
     1     1     5   ar
     2     1     9   ar
     3     2     7   ar
     4     2    12   ar
     5     3     8   ar
     6     3    12   ar
     7     4     6   ar
     8     4    13   ar
     9     5    14   ar
    10     6    15   ar
    11     7    17   ar
    12     8    17   ar
    13     9    18   ar
    14    10    14   ar
    15    10    18   ar
    16    11    15   ar
    17    11    16   ar
    18    12    19    1
    19    13    16   ar
    20    13    21    1
    21    14    25    1
    22    15    26    1
    23    16    27    1
    24    17    28    1
    25    18    29    1
    26    19    20    1
    27    19    24    2
    28    20    21    1
    29    21    25    1
    30    22    26    1
    31    23    27    1
    32    24    25    1
    33     1    30    1
    34     2    31    1
    35     3    32    1
    36     4    33    1
    37     5    34    1
    38     6    35    1
    39     7    36    1
    40     8    37    1
    41     9    38    1
    42    10    39    1
    43    11    40    1
    44    20    41    1
    45    20    42    1
    46    21    43    1
    47    22    44    1
    48    22    45    1
    49    22    46    1
    50    23    47    1
    51    23    48    1
    52    23    49    1
