@<TRIPOS>MOLECULE
AE-842/32538004
 42 45 0 0 0
SMALL
USER_CHARGES

@<TRIPOS>ATOM
      1 C           0.6072    0.7276   -2.4863 C.ar    1  LIG1       -0.1084
      2 C           2.3228    7.2694   -2.7598 C.ar    1  LIG1       -0.1049
      3 C           1.9582    4.6895    6.8120 C.ar    1  LIG1       -0.0999
      4 C           1.9099    0.8676   -2.0078 C.ar    1  LIG1       -0.1045
      5 C          -0.4251    1.4830   -1.9299 C.ar    1  LIG1       -0.1027
      6 C           3.1108    6.1305   -2.5938 C.ar    1  LIG1       -0.0993
      7 C           1.3574    7.5946   -1.8070 C.ar    1  LIG1       -0.0980
      8 C           0.7547    4.3011    6.2235 C.ar    1  LIG1       -0.0901
      9 C           3.0776    4.9317    6.0159 C.ar    1  LIG1       -0.0930
     10 C           2.1803    1.7627   -0.9727 C.ar    1  LIG1       -0.0905
     11 C          -0.1546    2.3782   -0.8949 C.ar    1  LIG1       -0.0883
     12 C           2.9334    5.3167   -1.4749 C.ar    1  LIG1       -0.0758
     13 C           1.1800    6.7807   -0.6881 C.ar    1  LIG1       -0.0743
     14 C           0.6706    4.1550    4.8388 C.ar    1  LIG1       -0.0526
     15 C           2.9937    4.7856    4.6313 C.ar    1  LIG1       -0.0569
     16 C           1.1481    2.5181   -0.4164 C.ar    1  LIG1       -0.0741
     17 C           1.9680    5.6418   -0.5221 C.ar    1  LIG1       -0.0301
     18 C           1.4261    3.4396    0.6493 C.ar    1  LIG1       -0.0177
     19 C           1.7902    4.3972    4.0427 C.ar    1  LIG1       -0.0084
     20 C           1.7843    4.8009    0.6340 C.ar    1  LIG1        0.0203
     21 C           1.3831    3.1108    1.9822 C.ar    1  LIG1       -0.0271
     22 C           1.0693    1.8349    2.6609 C.3     1  LIG1       -0.0043
     23 N           1.9563    5.3027    1.8599 N.ar    1  LIG1       -0.3105
     24 N           1.7052    4.2510    2.6579 N.ar    1  LIG1       -0.2914
     25 H           0.3966    0.0314   -3.2929 H       1  LIG1        0.1128
     26 H           2.4615    7.9038   -3.6305 H       1  LIG1        0.1179
     27 H           2.0237    4.8051    7.8899 H       1  LIG1        0.1218
     28 H           2.7140    0.2805   -2.4416 H       1  LIG1        0.1147
     29 H          -1.4391    1.3748   -2.3036 H       1  LIG1        0.1153
     30 H           3.8633    5.8780   -3.3349 H       1  LIG1        0.1177
     31 H           0.7448    8.4820   -1.9358 H       1  LIG1        0.1185
     32 H          -0.1174    4.1137    6.8430 H       1  LIG1        0.1286
     33 H           4.0141    5.2355    6.4749 H       1  LIG1        0.1287
     34 H           3.2012    1.8605   -0.6107 H       1  LIG1        0.1187
     35 H          -0.9706    2.9597   -0.4718 H       1  LIG1        0.1208
     36 H           3.5555    4.4322   -1.3598 H       1  LIG1        0.1277
     37 H           0.4230    7.0479    0.0457 H       1  LIG1        0.1294
     38 H          -0.2737    3.8525    4.3928 H       1  LIG1        0.1379
     39 H           3.8737    4.9784    4.0225 H       1  LIG1        0.1320
     40 H           1.9795    1.2329    2.8094 H       1  LIG1        0.0805
     41 H           0.6073    1.9975    3.6484 H       1  LIG1        0.0838
     42 H           0.3533    1.2274    2.0832 H       1  LIG1        0.0752
@<TRIPOS>BOND
     1     1     4   ar
     2     1     5   ar
     3     2     6   ar
     4     2     7   ar
     5     3     8   ar
     6     3     9   ar
     7     4    10   ar
     8     5    11   ar
     9     6    12   ar
    10     7    13   ar
    11     8    14   ar
    12     9    15   ar
    13    10    16   ar
    14    11    16   ar
    15    12    17   ar
    16    13    17   ar
    17    14    19   ar
    18    15    19   ar
    19    16    18    1
    20    17    20    1
    21    18    20   ar
    22    18    21   ar
    23    19    24    1
    24    20    23   ar
    25    21    22    1
    26    21    24   ar
    27    23    24   ar
    28     1    25    1
    29     2    26    1
    30     3    27    1
    31     4    28    1
    32     5    29    1
    33     6    30    1
    34     7    31    1
    35     8    32    1
    36     9    33    1
    37    10    34    1
    38    11    35    1
    39    12    36    1
    40    13    37    1
    41    14    38    1
    42    15    39    1
    43    22    40    1
    44    22    41    1
    45    22    42    1
