@<TRIPOS>MOLECULE
AG-690/33077040
 50 54 0 0 0
SMALL
USER_CHARGES

@<TRIPOS>ATOM
      1 C           1.8722    7.5929   -2.4148 C.ar    1  LIG1       -0.1109
      2 C           0.0442    0.7187   -2.0115 C.ar    1  LIG1       -0.1096
      3 C           0.7993    6.9653   -1.7820 C.ar    1  LIG1       -0.1087
      4 C           3.1421    7.0175   -2.3698 C.ar    1  LIG1       -0.1048
      5 C          -0.5582    1.8599   -1.4821 C.ar    1  LIG1       -0.1094
      6 C           1.4331    0.5906   -1.9927 C.ar    1  LIG1       -0.1064
      7 C           0.9963    5.7624   -1.1039 C.ar    1  LIG1       -0.0915
      8 C           3.3391    5.8146   -1.6918 C.ar    1  LIG1       -0.0863
      9 C           0.2282    2.8730   -0.9339 C.ar    1  LIG1       -0.0979
     10 C           2.2195    1.6038   -1.4445 C.ar    1  LIG1       -0.0949
     11 C           2.2662    5.1870   -1.0589 C.ar    1  LIG1       -0.0631
     12 C           1.6172    2.7451   -0.9151 C.ar    1  LIG1       -0.0734
     13 C           3.3604    4.0369    3.9582 C.3     1  LIG1       -0.0670
     14 C           2.5176    2.7674    1.9655 C.3     1  LIG1       -0.0537
     15 C           3.3245    5.1338    1.7025 C.3     1  LIG1       -0.0532
     16 C           0.9159    3.5121    3.7478 C.3     1  LIG1       -0.0518
     17 C           1.7225    5.8777    3.4847 C.3     1  LIG1       -0.0511
     18 C           0.8745    4.6097    1.4870 C.3     1  LIG1       -0.0389
     19 C           2.3389    2.9922    3.4774 C.3     1  LIG1       -0.0669
     20 C           3.1482    5.3660    3.2137 C.3     1  LIG1       -0.0648
     21 C           2.3028    4.0901    1.1913 C.3     1  LIG1       -0.0305
     22 C           0.7024    4.8365    2.9981 C.3     1  LIG1       -0.0311
     23 C           2.4841    3.8611   -0.3115 C.3     1  LIG1        0.0144
     24 O           3.8582    3.4434   -0.4498 O.3     1  LIG1       -0.4678
     25 BR         -1.1037    5.4914    3.3499 Br      1  LIG1       -0.2082
     26 H           1.7183    8.5290   -2.9439 H       1  LIG1        0.1122
     27 H          -0.5683   -0.0707   -2.4372 H       1  LIG1        0.1129
     28 H          -0.1898    7.4126   -1.8178 H       1  LIG1        0.1122
     29 H           3.9774    7.5054   -2.8634 H       1  LIG1        0.1125
     30 H          -1.6397    1.9593   -1.4957 H       1  LIG1        0.1135
     31 H           1.9024   -0.2982   -2.4038 H       1  LIG1        0.1147
     32 H           0.1546    5.2805   -0.6135 H       1  LIG1        0.1242
     33 H           4.3321    5.3737   -1.6619 H       1  LIG1        0.1300
     34 H          -0.2499    3.7588   -0.5238 H       1  LIG1        0.1221
     35 H           3.3009    1.4955   -1.4343 H       1  LIG1        0.1221
     36 H           3.2562    4.1925    5.0391 H       1  LIG1        0.0466
     37 H           4.3798    3.6702    3.7860 H       1  LIG1        0.0481
     38 H           3.5226    2.3723    1.7687 H       1  LIG1        0.0528
     39 H           1.8067    2.0058    1.6200 H       1  LIG1        0.0595
     40 H           3.1970    6.0833    1.1670 H       1  LIG1        0.0554
     41 H           4.3480    4.7929    1.4997 H       1  LIG1        0.0564
     42 H           0.1815    2.7612    3.4284 H       1  LIG1        0.0580
     43 H           0.7718    3.6486    4.8276 H       1  LIG1        0.0592
     44 H           1.5981    6.0718    4.5581 H       1  LIG1        0.0588
     45 H           1.5716    6.8382    2.9753 H       1  LIG1        0.0587
     46 H           0.6950    5.5437    0.9368 H       1  LIG1        0.0587
     47 H           0.1308    3.8889    1.1206 H       1  LIG1        0.0703
     48 H           2.4951    2.0488    4.0122 H       1  LIG1        0.0595
     49 H           3.8782    6.1053    3.5615 H       1  LIG1        0.0600
     50 H           4.0025    3.3385   -1.3981 H       1  LIG1        0.3489
@<TRIPOS>BOND
     1     1     3   ar
     2     1     4   ar
     3     2     5   ar
     4     2     6   ar
     5     3     7   ar
     6     4     8   ar
     7     5     9   ar
     8     6    10   ar
     9     7    11   ar
    10     8    11   ar
    11     9    12   ar
    12    10    12   ar
    13    11    23    1
    14    12    23    1
    15    13    19    1
    16    13    20    1
    17    14    19    1
    18    14    21    1
    19    15    20    1
    20    15    21    1
    21    16    19    1
    22    16    22    1
    23    17    20    1
    24    17    22    1
    25    18    21    1
    26    18    22    1
    27    21    23    1
    28    22    25    1
    29    23    24    1
    30     1    26    1
    31     2    27    1
    32     3    28    1
    33     4    29    1
    34     5    30    1
    35     6    31    1
    36     7    32    1
    37     8    33    1
    38     9    34    1
    39    10    35    1
    40    13    36    1
    41    13    37    1
    42    14    38    1
    43    14    39    1
    44    15    40    1
    45    15    41    1
    46    16    42    1
    47    16    43    1
    48    17    44    1
    49    17    45    1
    50    18    46    1
    51    18    47    1
    52    19    48    1
    53    20    49    1
    54    24    50    1
