@<TRIPOS>MOLECULE
AE-562/12222856
 44 46 0 0 0
SMALL
USER_CHARGES

@<TRIPOS>ATOM
      1 C           0.7796    6.8377   -1.7380 C.ar    1  LIG1       -0.0885
      2 C           0.9816    5.6955   -0.9633 C.ar    1  LIG1       -0.0758
      3 C           0.3637    2.6332   -0.2149 C.ar    1  LIG1       -0.0846
      4 C           2.2448    2.0927   -1.6313 C.ar    1  LIG1       -0.0907
      5 C           2.3453    3.3071    2.5379 C.ar    1  LIG1       -0.0921
      6 C           1.8351    5.5782    1.8908 C.ar    1  LIG1       -0.0818
      7 C          -0.3922    1.6418   -0.8402 C.ar    1  LIG1       -0.0597
      8 C           1.4889    1.1011   -2.2567 C.ar    1  LIG1       -0.0702
      9 C           2.0972    3.6314    3.8717 C.ar    1  LIG1       -0.0710
     10 C           1.5870    5.9026    3.2245 C.ar    1  LIG1       -0.0576
     11 C           1.8644    7.4672   -2.3485 C.ar    1  LIG1       -0.0518
     12 C           3.3532    5.8124   -1.4096 C.ar    1  LIG1       -0.0335
     13 C           1.6822    2.8588   -0.6104 C.ar    1  LIG1       -0.0636
     14 C           2.2143    4.2806    1.5475 C.ar    1  LIG1       -0.0623
     15 C           2.2684    5.1828   -0.7991 C.ar    1  LIG1       -0.0448
     16 C           0.1704    0.8756   -1.8610 C.ar    1  LIG1       -0.0163
     17 C           1.7180    4.9292    4.2150 C.ar    1  LIG1       -0.0155
     18 C           3.1512    6.9545   -2.1842 C.ar    1  LIG1        0.0612
     19 C           0.0702   -0.8388   -3.5063 C.3     1  LIG1        0.0232
     20 C           1.6263    4.2014    6.4772 C.3     1  LIG1        0.0232
     21 C           2.4906    3.9184    0.0585 C.3     1  LIG1        0.0358
     22 O           3.8950    3.5405    0.0772 O.3     1  LIG1       -0.4543
     23 O          -0.5670   -0.0928   -2.4703 O.3     1  LIG1       -0.4188
     24 O           1.4747    5.2452    5.5163 O.3     1  LIG1       -0.4188
     25 F           4.1929    7.5592   -2.7701 F       1  LIG1       -0.2714
     26 H          -0.2225    7.2368   -1.8663 H       1  LIG1        0.1313
     27 H           0.1304    5.2118   -0.4912 H       1  LIG1        0.1359
     28 H          -0.0826    3.2254    0.5795 H       1  LIG1        0.1331
     29 H           3.2713    2.2615   -1.9462 H       1  LIG1        0.1350
     30 H           2.6403    2.2937    2.2797 H       1  LIG1        0.1276
     31 H           1.7307    6.3432    1.1256 H       1  LIG1        0.1332
     32 H          -1.4188    1.4706   -0.5274 H       1  LIG1        0.1274
     33 H           1.9329    0.5076   -3.0509 H       1  LIG1        0.1121
     34 H           2.2006    2.8686    4.6388 H       1  LIG1        0.1125
     35 H           1.2917    6.9150    3.4853 H       1  LIG1        0.1297
     36 H           1.7069    8.3566   -2.9510 H       1  LIG1        0.1290
     37 H           4.3592    5.4200   -1.2881 H       1  LIG1        0.1348
     38 H          -0.6285   -1.5773   -3.9068 H       1  LIG1        0.0890
     39 H           0.9552   -1.3388   -3.1050 H       1  LIG1        0.0891
     40 H           0.3706   -0.1547   -4.3035 H       1  LIG1        0.1217
     41 H           1.4024    4.5878    7.4745 H       1  LIG1        0.0890
     42 H           2.6500    3.8202    6.4439 H       1  LIG1        0.0890
     43 H           0.9308    3.3936    6.2373 H       1  LIG1        0.1218
     44 H           4.1376    3.4456   -0.8487 H       1  LIG1        0.3382
@<TRIPOS>BOND
     1     1     2   ar
     2     1    11   ar
     3     2    15   ar
     4     3     7   ar
     5     3    13   ar
     6     4     8   ar
     7     4    13   ar
     8     5     9   ar
     9     5    14   ar
    10     6    10   ar
    11     6    14   ar
    12     7    16   ar
    13     8    16   ar
    14     9    17   ar
    15    10    17   ar
    16    11    18   ar
    17    12    15   ar
    18    12    18   ar
    19    13    21    1
    20    14    21    1
    21    15    21    1
    22    16    23    1
    23    17    24    1
    24    18    25    1
    25    19    23    1
    26    20    24    1
    27    21    22    1
    28     1    26    1
    29     2    27    1
    30     3    28    1
    31     4    29    1
    32     5    30    1
    33     6    31    1
    34     7    32    1
    35     8    33    1
    36     9    34    1
    37    10    35    1
    38    11    36    1
    39    12    37    1
    40    19    38    1
    41    19    39    1
    42    19    40    1
    43    20    41    1
    44    20    42    1
    45    20    43    1
    46    22    44    1
