@<TRIPOS>MOLECULE
AG-690/12072802
 45 47 0 0 0
SMALL
USER_CHARGES

@<TRIPOS>ATOM
      1 C           2.0171    7.6174   -2.0729 C.ar    1  LIG1       -0.1078
      2 C           0.1873    0.6516   -1.8794 C.ar    1  LIG1       -0.1057
      3 C           2.9753    6.6911   -2.4845 C.ar    1  LIG1       -0.1061
      4 C           1.1793    7.3230   -0.9972 C.ar    1  LIG1       -0.1039
      5 C           1.4733    0.9617   -2.3219 C.ar    1  LIG1       -0.1050
      6 C          -0.3853    1.3785   -0.8357 C.ar    1  LIG1       -0.1023
      7 C           3.2153    4.2840    4.8161 C.ar    1  LIG1       -0.0518
      8 C           3.0958    5.4704   -1.8203 C.ar    1  LIG1       -0.0954
      9 C           1.2997    6.1023   -0.3331 C.ar    1  LIG1       -0.0923
     10 C           2.1866    1.9987   -1.7207 C.ar    1  LIG1       -0.0957
     11 C           0.3281    2.4155   -0.2344 C.ar    1  LIG1       -0.0915
     12 C           2.7086    4.3570    6.1137 C.ar    1  LIG1       -0.0350
     13 C           1.0095    4.7161    3.9304 C.ar    1  LIG1        0.0036
     14 C           2.3658    4.4636    3.7245 C.ar    1  LIG1        0.0470
     15 C           2.2579    5.1760   -0.7446 C.ar    1  LIG1       -0.0732
     16 C           1.6140    2.7256   -0.6769 C.ar    1  LIG1       -0.0739
     17 C           0.5027    4.7891    5.2279 C.ar    1  LIG1        0.1236
     18 C           1.3523    4.6095    6.3195 C.ar    1  LIG1        0.0536
     19 C           2.8954    4.3873    2.3722 C.2     1  LIG1        0.1113
     20 C           0.4221    3.4564    8.1799 C.3     1  LIG1        0.0389
     21 C           2.3879    3.8513   -0.0236 C.3     1  LIG1        0.0148
     22 N           2.0076    3.9964    1.3632 N.am    1  LIG1       -0.3264
     23 N          -0.8824    5.0484    5.4202 N.pl3   1  LIG1       -0.0378
     24 O          -1.6768    4.0805    5.4839 O.2     1  LIG1       -0.1407
     25 O           4.0919    4.6420    2.1476 O.2     1  LIG1       -0.4704
     26 O          -1.2680    6.2371    5.5204 O.2     1  LIG1       -0.2523
     27 O           0.8801    4.6742    7.5971 O.3     1  LIG1       -0.3876
     28 H           1.9244    8.5684   -2.5893 H       1  LIG1        0.1149
     29 H          -0.3685   -0.1550   -2.3486 H       1  LIG1        0.1171
     30 H           3.6284    6.9207   -3.3213 H       1  LIG1        0.1138
     31 H           0.4339    8.0444   -0.6758 H       1  LIG1        0.1171
     32 H           1.9189    0.3965   -3.1354 H       1  LIG1        0.1174
     33 H          -1.3869    1.1381   -0.4916 H       1  LIG1        0.1197
     34 H           4.2737    4.0865    4.6668 H       1  LIG1        0.1612
     35 H           3.8452    4.7547   -2.1481 H       1  LIG1        0.1134
     36 H           0.6425    5.8815    0.5039 H       1  LIG1        0.1216
     37 H           3.1880    2.2331   -2.0719 H       1  LIG1        0.1134
     38 H          -0.1260    2.9763    0.5782 H       1  LIG1        0.1232
     39 H           3.3764    4.2179    6.9595 H       1  LIG1        0.1394
     40 H           0.3495    4.8567    3.0766 H       1  LIG1        0.1999
     41 H           0.0731    3.6473    9.1976 H       1  LIG1        0.1342
     42 H           1.2373    2.7286    8.1933 H       1  LIG1        0.0979
     43 H          -0.4037    3.0644    7.5815 H       1  LIG1        0.0977
     44 H           3.4464    3.5619    0.0112 H       1  LIG1        0.1581
     45 H           1.0577    3.7390    1.6106 H       1  LIG1        0.3017
@<TRIPOS>BOND
     1     1     3   ar
     2     1     4   ar
     3     2     5   ar
     4     2     6   ar
     5     3     8   ar
     6     4     9   ar
     7     5    10   ar
     8     6    11   ar
     9     7    12   ar
    10     7    14   ar
    11     8    15   ar
    12     9    15   ar
    13    10    16   ar
    14    11    16   ar
    15    12    18   ar
    16    13    14   ar
    17    13    17   ar
    18    14    19    1
    19    15    21    1
    20    16    21    1
    21    17    18   ar
    22    17    23    1
    23    18    27    1
    24    19    22   am
    25    19    25    2
    26    20    27    1
    27    21    22    1
    28    23    24    1
    29    23    26    2
    30     1    28    1
    31     2    29    1
    32     3    30    1
    33     4    31    1
    34     5    32    1
    35     6    33    1
    36     7    34    1
    37     8    35    1
    38     9    36    1
    39    10    37    1
    40    11    38    1
    41    12    39    1
    42    13    40    1
    43    20    41    1
    44    20    42    1
    45    20    43    1
    46    21    44    1
    47    22    45    1
