@<TRIPOS>MOLECULE
AG-690/33392024
 41 44 0 0 0
SMALL
USER_CHARGES

@<TRIPOS>ATOM
      1 C          -0.0187    1.0405   -1.6620 C.ar    1  LIG1       -0.1074
      2 C           1.3078    0.6117   -1.6139 C.ar    1  LIG1       -0.1051
      3 C          -0.3822    2.2511   -1.0720 C.ar    1  LIG1       -0.1054
      4 C           0.8906    7.0479   -2.0721 C.ar    1  LIG1       -0.0861
      5 C           1.9486    7.3283   -2.9368 C.ar    1  LIG1       -0.0922
      6 C           2.9069    3.5957    4.7229 C.ar    1  LIG1       -0.0665
      7 C           0.9815    4.9938    4.3042 C.ar    1  LIG1       -0.0643
      8 C           2.2707    1.3934   -0.9759 C.ar    1  LIG1       -0.0968
      9 C           0.5808    3.0329   -0.4340 C.ar    1  LIG1       -0.0969
     10 C           1.0909    6.2129   -0.9729 C.ar    1  LIG1       -0.0441
     11 C           3.2068    6.7737   -2.7023 C.ar    1  LIG1       -0.0620
     12 C           2.6267    3.6189    6.0890 C.ar    1  LIG1       -0.0674
     13 C           0.7012    5.0169    5.6705 C.ar    1  LIG1       -0.0662
     14 C           2.0843    4.2832    3.8304 C.ar    1  LIG1       -0.0315
     15 C           1.9073    2.6040   -0.3858 C.ar    1  LIG1       -0.0809
     16 C           2.3491    5.6582   -0.7384 C.ar    1  LIG1        0.0054
     17 C           1.5238    4.3294    6.5629 C.ar    1  LIG1       -0.0152
     18 C           3.4071    5.9386   -1.6031 C.ar    1  LIG1        0.0346
     19 C           2.3760    4.2590    2.4060 C.2     1  LIG1        0.0114
     20 C           3.0539    3.0717    1.7791 C.3     1  LIG1        0.0281
     21 C           2.9384    3.4419    0.2980 C.3     1  LIG1        0.0184
     22 N           2.1110    5.2314    1.5913 N.2     1  LIG1       -0.3226
     23 N           2.5154    4.8419    0.3491 N.pl3   1  LIG1       -0.3221
     24 CL          1.1774    4.3568    8.2481 Cl      1  LIG1       -0.1436
     25 CL          4.9808    5.2730   -1.3499 Cl      1  LIG1       -0.1237
     26 H          -0.7682    0.4323   -2.1601 H       1  LIG1        0.1157
     27 H           1.5911   -0.3304   -2.0742 H       1  LIG1        0.1165
     28 H          -1.4146    2.5858   -1.1102 H       1  LIG1        0.1147
     29 H          -0.0890    7.4797   -2.2549 H       1  LIG1        0.1273
     30 H           1.7925    7.9785   -3.7927 H       1  LIG1        0.1305
     31 H           3.7692    3.0394    4.3645 H       1  LIG1        0.1394
     32 H           0.3335    5.5328    3.6179 H       1  LIG1        0.1440
     33 H           3.3018    1.0512   -0.9432 H       1  LIG1        0.1191
     34 H           0.2884    3.9745    0.0231 H       1  LIG1        0.1180
     35 H           0.2585    6.0019   -0.3062 H       1  LIG1        0.1444
     36 H           4.0205    7.0023   -3.3859 H       1  LIG1        0.1350
     37 H           3.2758    3.0782    6.7731 H       1  LIG1        0.1352
     38 H          -0.1615    5.5750    6.0251 H       1  LIG1        0.1348
     39 H           4.1003    3.0619    2.1031 H       1  LIG1        0.0970
     40 H           2.5697    2.1317    2.0576 H       1  LIG1        0.0972
     41 H           3.8981    3.3257   -0.2164 H       1  LIG1        0.1330
@<TRIPOS>BOND
     1     1     2   ar
     2     1     3   ar
     3     2     8   ar
     4     3     9   ar
     5     4     5   ar
     6     4    10   ar
     7     5    11   ar
     8     6    12   ar
     9     6    14   ar
    10     7    13   ar
    11     7    14   ar
    12     8    15   ar
    13     9    15   ar
    14    10    16   ar
    15    11    18   ar
    16    12    17   ar
    17    13    17   ar
    18    14    19    1
    19    15    21    1
    20    16    18   ar
    21    16    23    1
    22    17    24    1
    23    18    25    1
    24    19    20    1
    25    19    22    2
    26    20    21    1
    27    21    23    1
    28    22    23    1
    29     1    26    1
    30     2    27    1
    31     3    28    1
    32     4    29    1
    33     5    30    1
    34     6    31    1
    35     7    32    1
    36     8    33    1
    37     9    34    1
    38    10    35    1
    39    11    36    1
    40    12    37    1
    41    13    38    1
    42    20    39    1
    43    20    40    1
    44    21    41    1
