@<TRIPOS>MOLECULE
AG-219/36433018
 38 40 0 0 0
SMALL
USER_CHARGES

@<TRIPOS>ATOM
      1 C           1.0647    3.8593    4.1466 C.ar    1  LIG1       -0.1055
      2 C           2.0244    7.5110   -2.2961 C.ar    1  LIG1       -0.1054
      3 C           1.5330    5.0437    3.5781 C.ar    1  LIG1       -0.1011
      4 C           1.0366    2.6866    3.3917 C.ar    1  LIG1       -0.1033
      5 C           1.1055    7.2411   -1.2820 C.ar    1  LIG1       -0.1056
      6 C           3.0685    6.6206   -2.5464 C.ar    1  LIG1       -0.1020
      7 C          -0.5001    1.8068   -1.2633 C.ar    1  LIG1       -0.0738
      8 C           1.9734    5.0556    2.2546 C.ar    1  LIG1       -0.0850
      9 C           1.4770    2.6985    2.0682 C.ar    1  LIG1       -0.0899
     10 C           1.2309    6.0808   -0.5181 C.ar    1  LIG1       -0.0974
     11 C           3.1939    5.4603   -1.7824 C.ar    1  LIG1       -0.0912
     12 C           0.2226    2.8237   -0.6395 C.ar    1  LIG1       -0.0706
     13 C           0.1706    0.7350   -1.8529 C.ar    1  LIG1       -0.0446
     14 C           2.2866    1.6974   -1.1948 C.ar    1  LIG1       -0.0331
     15 C           1.9454    3.8830    1.4996 C.ar    1  LIG1       -0.0568
     16 C           2.2751    5.1903   -0.7683 C.ar    1  LIG1       -0.0653
     17 C           1.6160    2.7691   -0.6053 C.ar    1  LIG1       -0.0394
     18 C           1.5639    0.6805   -1.8187 C.ar    1  LIG1        0.0679
     19 C           2.4157    3.8951    0.0843 C.3     1  LIG1        0.0405
     20 N           2.2464   -0.4110   -2.4177 N.pl3   1  LIG1       -0.0494
     21 O           1.5773   -1.3159   -2.9726 O.2     1  LIG1       -0.1565
     22 O           3.5002   -0.4410   -2.3759 O.2     1  LIG1       -0.2467
     23 O           3.8447    3.6300    0.0290 O.3     1  LIG1       -0.4514
     24 H           0.7232    3.8498    5.1776 H       1  LIG1        0.1184
     25 H           1.9258    8.4138   -2.8918 H       1  LIG1        0.1186
     26 H           1.5559    5.9566    4.1661 H       1  LIG1        0.1174
     27 H           0.6731    1.7640    3.8344 H       1  LIG1        0.1195
     28 H           0.2918    7.9337   -1.0877 H       1  LIG1        0.1171
     29 H           3.7835    6.8299   -3.3365 H       1  LIG1        0.1190
     30 H          -1.5851    1.8490   -1.2894 H       1  LIG1        0.1453
     31 H           2.3365    5.9831    1.8199 H       1  LIG1        0.1308
     32 H           1.4514    1.7802    1.4876 H       1  LIG1        0.1203
     33 H           0.5104    5.8787    0.2702 H       1  LIG1        0.1138
     34 H           4.0106    4.7724   -1.9845 H       1  LIG1        0.1282
     35 H          -0.3078    3.6551   -0.1832 H       1  LIG1        0.1484
     36 H          -0.4050   -0.0508   -2.3355 H       1  LIG1        0.1630
     37 H           3.3735    1.6595   -1.1657 H       1  LIG1        0.1665
     38 H           4.2474    4.3391    0.5390 H       1  LIG1        0.3392
@<TRIPOS>BOND
     1     1     3   ar
     2     1     4   ar
     3     2     5   ar
     4     2     6   ar
     5     3     8   ar
     6     4     9   ar
     7     5    10   ar
     8     6    11   ar
     9     7    12   ar
    10     7    13   ar
    11     8    15   ar
    12     9    15   ar
    13    10    16   ar
    14    11    16   ar
    15    12    17   ar
    16    13    18   ar
    17    14    17   ar
    18    14    18   ar
    19    15    19    1
    20    16    19    1
    21    17    19    1
    22    18    20    1
    23    19    23    1
    24    20    21    1
    25    20    22    2
    26     1    24    1
    27     2    25    1
    28     3    26    1
    29     4    27    1
    30     5    28    1
    31     6    29    1
    32     7    30    1
    33     8    31    1
    34     9    32    1
    35    10    33    1
    36    11    34    1
    37    12    35    1
    38    13    36    1
    39    14    37    1
    40    23    38    1
