@<TRIPOS>MOLECULE
AK-830/13217113
 42 45 0 0 0
SMALL
USER_CHARGES

@<TRIPOS>ATOM
      1 C           1.9538    7.5863   -2.3259 C.ar    1  LIG1       -0.1052
      2 C           0.8418    6.9609   -1.7620 C.ar    1  LIG1       -0.1032
      3 C           3.2276    7.0518   -2.1321 C.ar    1  LIG1       -0.1024
      4 C           1.2797    1.3354   -2.4872 C.ar    1  LIG1       -0.1042
      5 C           0.2378    0.7326   -1.7922 C.ar    1  LIG1       -0.0945
      6 C           1.0036    5.8010   -1.0044 C.ar    1  LIG1       -0.0886
      7 C           3.3894    5.8919   -1.3745 C.ar    1  LIG1       -0.0868
      8 C           1.9948    2.3778   -1.8988 C.ar    1  LIG1       -0.0888
      9 C          -0.0849    1.1705   -0.5089 C.ar    1  LIG1       -0.0621
     10 C           2.2774    5.2665   -0.8106 C.ar    1  LIG1       -0.0431
     11 C           1.6764    2.8346   -0.6050 C.ar    1  LIG1       -0.0176
     12 C           0.6275    2.2170    0.0940 C.ar    1  LIG1       -0.0335
     13 C           0.9467    3.5404    1.9716 C.2     1  LIG1        0.0058
     14 C           0.5028    3.8674    3.3920 C.3     1  LIG1        0.0282
     15 C           1.5310    3.3880    4.4094 C.3     1  LIG1       -0.0419
     16 C           2.6917    4.3620    4.5989 C.3     1  LIG1       -0.0628
     17 C           3.5394    4.5942    3.3489 C.3     1  LIG1       -0.0470
     18 C           2.7704    5.2426    2.1994 C.3     1  LIG1       -0.0156
     19 C           2.4566    3.9873    0.0252 C.3     1  LIG1        0.0594
     20 N           0.2616    2.6000    1.3911 N.2     1  LIG1       -0.3826
     21 N           2.0240    4.2383    1.4255 N.pl3   1  LIG1       -0.3405
     22 O           3.8168    3.5284    0.0356 O.3     1  LIG1       -0.4361
     23 H           1.8275    8.4888   -2.9169 H       1  LIG1        0.1185
     24 H          -0.1501    7.3763   -1.9137 H       1  LIG1        0.1190
     25 H           4.0934    7.5379   -2.5719 H       1  LIG1        0.1182
     26 H           1.5362    0.9971   -3.4866 H       1  LIG1        0.1128
     27 H          -0.3227   -0.0790   -2.2462 H       1  LIG1        0.1240
     28 H           0.1315    5.3205   -0.5686 H       1  LIG1        0.1170
     29 H           4.3856    5.4827   -1.2288 H       1  LIG1        0.1206
     30 H           2.8056    2.8374   -2.4604 H       1  LIG1        0.1179
     31 H          -0.8996    0.6869    0.0257 H       1  LIG1        0.1339
     32 H           0.4068    4.9543    3.4798 H       1  LIG1        0.0978
     33 H          -0.4866    3.4437    3.5758 H       1  LIG1        0.1117
     34 H           1.0538    3.1829    5.3768 H       1  LIG1        0.0601
     35 H           1.9490    2.4359    4.0558 H       1  LIG1        0.0507
     36 H           2.2831    5.3288    4.9214 H       1  LIG1        0.0434
     37 H           3.3349    4.0138    5.4181 H       1  LIG1        0.0472
     38 H           4.4213    5.1878    3.6071 H       1  LIG1        0.0602
     39 H           3.9008    3.6170    3.0113 H       1  LIG1        0.0477
     40 H           2.0840    5.9755    2.6312 H       1  LIG1        0.0922
     41 H           3.4375    5.8061    1.5430 H       1  LIG1        0.1193
     42 H           3.8304    2.7276    0.5809 H       1  LIG1        0.3507
@<TRIPOS>BOND
     1     1     2   ar
     2     1     3   ar
     3     2     6   ar
     4     3     7   ar
     5     4     5   ar
     6     4     8   ar
     7     5     9   ar
     8     6    10   ar
     9     7    10   ar
    10     8    11   ar
    11     9    12   ar
    12    10    19    1
    13    11    12   ar
    14    11    19    1
    15    12    20    1
    16    13    14    1
    17    13    20    2
    18    13    21    1
    19    14    15    1
    20    15    16    1
    21    16    17    1
    22    17    18    1
    23    18    21    1
    24    19    21    1
    25    19    22    1
    26     1    23    1
    27     2    24    1
    28     3    25    1
    29     4    26    1
    30     5    27    1
    31     6    28    1
    32     7    29    1
    33     8    30    1
    34     9    31    1
    35    14    32    1
    36    14    33    1
    37    15    34    1
    38    15    35    1
    39    16    36    1
    40    16    37    1
    41    17    38    1
    42    17    39    1
    43    18    40    1
    44    18    41    1
    45    22    42    1
