@<TRIPOS>MOLECULE
AP-970/42897485
 52 55 0 0 0
SMALL
USER_CHARGES

@<TRIPOS>ATOM
      1 C           0.3822    0.6127   -1.8769 C.ar    1  LIG1       -0.1078
      2 C           2.1957    7.5579   -2.4004 C.ar    1  LIG1       -0.1056
      3 C           1.7141    0.9621   -2.0992 C.ar    1  LIG1       -0.1064
      4 C          -0.4040    1.3748   -1.0126 C.ar    1  LIG1       -0.1021
      5 C           3.1855    6.5819   -2.5162 C.ar    1  LIG1       -0.1041
      6 C           1.1655    7.4000   -1.4734 C.ar    1  LIG1       -0.1041
      7 C           2.2600    2.0737   -1.4573 C.ar    1  LIG1       -0.0973
      8 C           0.1419    2.4863   -0.3706 C.ar    1  LIG1       -0.0917
      9 C           3.1451    5.4479   -1.7050 C.ar    1  LIG1       -0.0987
     10 C           1.1251    6.2659   -0.6622 C.ar    1  LIG1       -0.0982
     11 C           2.8791    4.2940    6.1876 C.ar    1  LIG1       -0.0629
     12 C           1.5988    4.6323    6.6258 C.ar    1  LIG1       -0.0705
     13 C           0.8208    4.6502    4.3385 C.ar    1  LIG1       -0.0256
     14 C           1.4739    2.8358   -0.5930 C.ar    1  LIG1       -0.0683
     15 C           2.1148    5.2899   -0.7780 C.ar    1  LIG1       -0.0746
     16 C           3.1303    4.1340    4.8249 C.ar    1  LIG1       -0.0278
     17 C           2.1012    4.3120    3.9004 C.ar    1  LIG1       -0.0111
     18 C           0.5696    4.8103    5.7012 C.ar    1  LIG1       -0.0063
     19 C           1.4157    4.3106    1.4746 C.2     1  LIG1        0.1132
     20 C           4.7607    2.3692    4.2930 C.3     1  LIG1       -0.0089
     21 C           5.5477    4.6813    4.7183 C.3     1  LIG1       -0.0100
     22 C           5.9644    2.1990    3.3733 C.3     1  LIG1        0.0175
     23 C           6.7098    4.3875    3.7762 C.3     1  LIG1        0.0172
     24 C           2.0698    4.0503    0.1090 C.3     1  LIG1        0.0875
     25 N           4.4213    3.7942    4.4078 N.pl3   1  LIG1       -0.3999
     26 N           2.3299    4.1575    2.5300 N.am    1  LIG1       -0.2969
     27 O           0.2311    4.6155    1.5806 O.2     1  LIG1       -0.4657
     28 O           7.0543    3.0033    3.8235 O.3     1  LIG1       -0.4575
     29 CL         -1.0096    5.2272    6.2432 Cl      1  LIG1       -0.1414
     30 H          -0.0431   -0.2521   -2.3778 H       1  LIG1        0.1147
     31 H           2.2282    8.4414   -3.0312 H       1  LIG1        0.1172
     32 H           2.3260    0.3694   -2.7729 H       1  LIG1        0.1143
     33 H          -1.4413    1.1036   -0.8401 H       1  LIG1        0.1151
     34 H           3.9883    6.7053   -3.2372 H       1  LIG1        0.1177
     35 H           0.3954    8.1601   -1.3822 H       1  LIG1        0.1183
     36 H           3.2988    2.3383   -1.6364 H       1  LIG1        0.1178
     37 H          -0.4780    3.0742    0.3011 H       1  LIG1        0.1241
     38 H           3.9204    4.6925   -1.8024 H       1  LIG1        0.1180
     39 H           0.3186    6.1513    0.0572 H       1  LIG1        0.1207
     40 H           3.6731    4.1574    6.9174 H       1  LIG1        0.1339
     41 H           1.4176    4.7541    7.6905 H       1  LIG1        0.1328
     42 H           0.0191    4.7890    3.6160 H       1  LIG1        0.1670
     43 H           3.9132    1.7988    3.8951 H       1  LIG1        0.0785
     44 H           5.0024    1.9774    5.2894 H       1  LIG1        0.1056
     45 H           5.8648    4.5102    5.7550 H       1  LIG1        0.1010
     46 H           5.2537    5.7328    4.6179 H       1  LIG1        0.0767
     47 H           6.2921    1.1546    3.3779 H       1  LIG1        0.1299
     48 H           5.7183    2.4640    2.3378 H       1  LIG1        0.0998
     49 H           6.4662    4.6664    2.7438 H       1  LIG1        0.0996
     50 H           7.5899    4.9651    4.0763 H       1  LIG1        0.1294
     51 H           3.1187    3.8030    0.3373 H       1  LIG1        0.1439
     52 H           3.2871    3.9088    2.2597 H       1  LIG1        0.3323
@<TRIPOS>BOND
     1     1     3   ar
     2     1     4   ar
     3     2     5   ar
     4     2     6   ar
     5     3     7   ar
     6     4     8   ar
     7     5     9   ar
     8     6    10   ar
     9     7    14   ar
    10     8    14   ar
    11     9    15   ar
    12    10    15   ar
    13    11    12   ar
    14    11    16   ar
    15    12    18   ar
    16    13    17   ar
    17    13    18   ar
    18    14    24    1
    19    15    24    1
    20    16    17   ar
    21    16    25    1
    22    17    26    1
    23    18    29    1
    24    19    24    1
    25    19    26   am
    26    19    27    2
    27    20    22    1
    28    20    25    1
    29    21    23    1
    30    21    25    1
    31    22    28    1
    32    23    28    1
    33     1    30    1
    34     2    31    1
    35     3    32    1
    36     4    33    1
    37     5    34    1
    38     6    35    1
    39     7    36    1
    40     8    37    1
    41     9    38    1
    42    10    39    1
    43    11    40    1
    44    12    41    1
    45    13    42    1
    46    20    43    1
    47    20    44    1
    48    21    45    1
    49    21    46    1
    50    22    47    1
    51    22    48    1
    52    23    49    1
    53    23    50    1
    54    24    51    1
    55    26    52    1
