@<TRIPOS>MOLECULE
AK-968/11841587
 45 47 0 0 0
SMALL
USER_CHARGES

@<TRIPOS>ATOM
      1 C           0.9763    0.4415   -1.9200 C.ar    1  LIG1       -0.1085
      2 C           2.8085    7.4088   -2.0686 C.ar    1  LIG1       -0.1063
      3 C           2.0592    1.3190   -1.9721 C.ar    1  LIG1       -0.1062
      4 C          -0.1841    0.8056   -1.2370 C.ar    1  LIG1       -0.1048
      5 C           1.4970    7.0858   -2.4166 C.ar    1  LIG1       -0.1050
      6 C           3.4485    6.7151   -1.0414 C.ar    1  LIG1       -0.1031
      7 C           2.6095    4.2977    3.8630 C.ar    1  LIG1       -0.0746
      8 C           1.9819    2.5606   -1.3411 C.ar    1  LIG1       -0.0948
      9 C          -0.2616    2.0471   -0.6061 C.ar    1  LIG1       -0.0927
     10 C           0.8254    6.0691   -1.7376 C.ar    1  LIG1       -0.0952
     11 C           2.7769    5.6985   -0.3624 C.ar    1  LIG1       -0.0919
     12 C           3.1808    4.1069    5.1210 C.ar    1  LIG1       -0.0973
     13 C           0.5420    4.9864    4.9063 C.ar    1  LIG1       -0.0651
     14 C           1.2901    4.7376    3.7557 C.ar    1  LIG1        0.0213
     15 C           0.8214    2.9247   -0.6580 C.ar    1  LIG1       -0.0730
     16 C           1.4654    5.3755   -0.7105 C.ar    1  LIG1       -0.0739
     17 C           2.4328    4.3557    6.2718 C.ar    1  LIG1       -0.1125
     18 C           1.1133    4.7954    6.1644 C.ar    1  LIG1       -0.1054
     19 C           0.6949    4.9377    2.4436 C.2     1  LIG1        0.1045
     20 C           3.0661    4.1450    7.6078 C.3     1  LIG1       -0.0395
     21 C           0.2939    5.0700    7.3827 C.3     1  LIG1       -0.0407
     22 C           0.7368    4.2719    0.0272 C.3     1  LIG1        0.0143
     23 N           1.2063    4.1708    1.3904 N.am    1  LIG1       -0.3278
     24 O          -0.2126    5.7729    2.2830 O.2     1  LIG1       -0.4778
     25 H           1.0362   -0.5246   -2.4126 H       1  LIG1        0.1139
     26 H           3.3318    8.1995   -2.5982 H       1  LIG1        0.1164
     27 H           2.9625    1.0363   -2.5048 H       1  LIG1        0.1136
     28 H          -1.0279    0.1231   -1.1973 H       1  LIG1        0.1160
     29 H           0.9989    7.6251   -3.2172 H       1  LIG1        0.1173
     30 H           4.4699    6.9656   -0.7708 H       1  LIG1        0.1187
     31 H           3.2015    4.1008    2.9728 H       1  LIG1        0.1237
     32 H           2.8306    3.2379   -1.3867 H       1  LIG1        0.1144
     33 H          -1.1697    2.3222   -0.0761 H       1  LIG1        0.1205
     34 H          -0.1964    5.8245   -2.0156 H       1  LIG1        0.1143
     35 H           3.2834    5.1635    0.4366 H       1  LIG1        0.1223
     36 H           4.2098    3.7650    5.1934 H       1  LIG1        0.1215
     37 H          -0.4870    5.3291    4.8244 H       1  LIG1        0.1434
     38 H           3.5516    5.0671    7.9476 H       1  LIG1        0.0596
     39 H           2.3221    3.8453    8.3563 H       1  LIG1        0.0585
     40 H           3.8184    3.3475    7.5684 H       1  LIG1        0.0548
     41 H          -0.2408    4.1647    7.6925 H       1  LIG1        0.0577
     42 H           0.9229    5.4071    8.2156 H       1  LIG1        0.0544
     43 H          -0.4404    5.8633    7.1956 H       1  LIG1        0.0574
     44 H          -0.3175    4.5631    0.1213 H       1  LIG1        0.1558
     45 H           1.9898    3.5496    1.5637 H       1  LIG1        0.3015
@<TRIPOS>BOND
     1     1     3   ar
     2     1     4   ar
     3     2     5   ar
     4     2     6   ar
     5     3     8   ar
     6     4     9   ar
     7     5    10   ar
     8     6    11   ar
     9     7    12   ar
    10     7    14   ar
    11     8    15   ar
    12     9    15   ar
    13    10    16   ar
    14    11    16   ar
    15    12    17   ar
    16    13    14   ar
    17    13    18   ar
    18    14    19    1
    19    15    22    1
    20    16    22    1
    21    17    18   ar
    22    17    20    1
    23    18    21    1
    24    19    23   am
    25    19    24    2
    26    22    23    1
    27     1    25    1
    28     2    26    1
    29     3    27    1
    30     4    28    1
    31     5    29    1
    32     6    30    1
    33     7    31    1
    34     8    32    1
    35     9    33    1
    36    10    34    1
    37    11    35    1
    38    12    36    1
    39    13    37    1
    40    20    38    1
    41    20    39    1
    42    20    40    1
    43    21    41    1
    44    21    42    1
    45    21    43    1
    46    22    44    1
    47    23    45    1
