@<TRIPOS>MOLECULE
AN-329/15538031
 39 41 0 0 0
SMALL
USER_CHARGES

@<TRIPOS>ATOM
      1 C           2.6035    7.4627   -2.4321 C.ar    1  LIG1       -0.1052
      2 C           0.7828    0.4940   -1.8398 C.ar    1  LIG1       -0.1072
      3 C           1.2594    7.0935   -2.4841 C.ar    1  LIG1       -0.1037
      4 C           3.4714    6.8150   -1.5528 C.ar    1  LIG1       -0.1038
      5 C          -0.2032    1.4633   -2.0238 C.ar    1  LIG1       -0.1020
      6 C           1.8843    0.7649   -1.0280 C.ar    1  LIG1       -0.1057
      7 C           0.7831    6.0767   -1.6565 C.ar    1  LIG1       -0.0979
      8 C           2.9949    5.7982   -0.7253 C.ar    1  LIG1       -0.0988
      9 C          -0.0877    2.7036   -1.3960 C.ar    1  LIG1       -0.0921
     10 C           1.9998    2.0051   -0.4002 C.ar    1  LIG1       -0.0969
     11 C           2.7790    4.1936    4.2531 C.ar    1  LIG1       -0.0133
     12 C           0.9128    4.7221    6.2583 C.ar    1  LIG1       -0.0265
     13 C           1.6508    5.4290   -0.7772 C.ar    1  LIG1       -0.0743
     14 C           1.0138    2.9745   -0.5841 C.ar    1  LIG1       -0.0682
     15 C           1.4554    4.4769    3.9167 C.ar    1  LIG1       -0.0087
     16 C           3.1696    4.1743    5.5921 C.ar    1  LIG1        0.0344
     17 C           0.5223    4.7412    4.9193 C.ar    1  LIG1        0.0346
     18 C           2.2365    4.4386    6.5946 C.ar    1  LIG1        0.0286
     19 C           1.9096    4.2333    1.4492 C.2     1  LIG1        0.1163
     20 C           1.1420    4.3418    0.1081 C.3     1  LIG1        0.0890
     21 N           1.0918    4.4880    2.5491 N.am    1  LIG1       -0.2968
     22 O           3.1059    3.9578    1.4719 O.2     1  LIG1       -0.4613
     23 CL          4.8237    3.8169    5.9453 Cl      1  LIG1       -0.1092
     24 CL         -1.1270    5.0974    4.5457 Cl      1  LIG1       -0.1197
     25 CL          2.6586    4.4286    8.2711 Cl      1  LIG1       -0.1184
     26 H           2.9746    8.2535   -3.0775 H       1  LIG1        0.1177
     27 H           0.6919   -0.4722   -2.3276 H       1  LIG1        0.1153
     28 H           0.5840    7.5969   -3.1694 H       1  LIG1        0.1186
     29 H           4.5181    7.1015   -1.5129 H       1  LIG1        0.1181
     30 H          -1.0615    1.2522   -2.6549 H       1  LIG1        0.1155
     31 H           2.6515    0.0100   -0.8836 H       1  LIG1        0.1151
     32 H          -0.2658    5.7958   -1.7037 H       1  LIG1        0.1216
     33 H           3.6783    5.2993   -0.0433 H       1  LIG1        0.1174
     34 H          -0.8607    3.4529   -1.5452 H       1  LIG1        0.1232
     35 H           2.8615    2.2073    0.2304 H       1  LIG1        0.1187
     36 H           3.5036    3.9880    3.4675 H       1  LIG1        0.1816
     37 H           0.1839    4.9283    7.0394 H       1  LIG1        0.1641
     38 H           0.1056    4.5975    0.4175 H       1  LIG1        0.1473
     39 H           0.1138    4.7007    2.3640 H       1  LIG1        0.3324
@<TRIPOS>BOND
     1     1     3   ar
     2     1     4   ar
     3     2     5   ar
     4     2     6   ar
     5     3     7   ar
     6     4     8   ar
     7     5     9   ar
     8     6    10   ar
     9     7    13   ar
    10     8    13   ar
    11     9    14   ar
    12    10    14   ar
    13    11    15   ar
    14    11    16   ar
    15    12    17   ar
    16    12    18   ar
    17    13    20    1
    18    14    20    1
    19    15    17   ar
    20    15    21    1
    21    16    18   ar
    22    16    23    1
    23    17    24    1
    24    18    25    1
    25    19    20    1
    26    19    21   am
    27    19    22    2
    28     1    26    1
    29     2    27    1
    30     3    28    1
    31     4    29    1
    32     5    30    1
    33     6    31    1
    34     7    32    1
    35     8    33    1
    36     9    34    1
    37    10    35    1
    38    11    36    1
    39    12    37    1
    40    20    38    1
    41    21    39    1
