@<TRIPOS>MOLECULE
AP-124/43238109
 43 45 0 0 0
SMALL
USER_CHARGES

@<TRIPOS>ATOM
      1 C           0.5487    0.5224   -2.3770 C.ar    1  LIG1       -0.1003
      2 C           2.4068    7.5044   -1.8373 C.ar    1  LIG1       -0.1009
      3 C           1.7891    1.1460   -2.5110 C.ar    1  LIG1       -0.0909
      4 C          -0.3693    0.9903   -1.4366 C.ar    1  LIG1       -0.0923
      5 C           1.0946    7.2056   -1.4704 C.ar    1  LIG1       -0.0926
      6 C           3.4291    6.5924   -1.5751 C.ar    1  LIG1       -0.0936
      7 C           2.1119    2.2374   -1.7045 C.ar    1  LIG1       -0.0577
      8 C          -0.0465    2.0817   -0.6301 C.ar    1  LIG1       -0.0594
      9 C           0.8048    5.9949   -0.8414 C.ar    1  LIG1       -0.0623
     10 C           3.1393    5.3817   -0.9460 C.ar    1  LIG1       -0.0632
     11 C           1.9118    4.6441    6.3073 C.ar    1  LIG1       -0.0980
     12 C           0.7279    4.5037    4.2061 C.ar    1  LIG1       -0.0543
     13 C           3.0857    5.0303    4.2313 C.ar    1  LIG1       -0.0543
     14 C           0.7312    4.4219    5.5986 C.ar    1  LIG1       -0.1044
     15 C           3.0890    4.9484    5.6238 C.ar    1  LIG1       -0.1047
     16 C           1.1940    2.7052   -0.7641 C.ar    1  LIG1       -0.0138
     17 C           1.8271    5.0828   -0.5791 C.ar    1  LIG1       -0.0192
     18 C           1.9050    4.8079    3.5225 C.ar    1  LIG1        0.0350
     19 C           1.5180    3.7077    1.4775 C.2     1  LIG1        0.2556
     20 C          -0.5271    4.0972    6.3302 C.3     1  LIG1       -0.0398
     21 C           4.3512    5.1869    6.3812 C.3     1  LIG1       -0.0399
     22 N           1.5279    3.8340    0.0697 N.am    1  LIG1       -0.2450
     23 O           1.2379    2.6762    2.0883 O.2     1  LIG1       -0.4320
     24 O           1.9018    4.8882    2.1637 O.3     1  LIG1       -0.2697
     25 H           0.2967   -0.3269   -3.0054 H       1  LIG1        0.1220
     26 H           2.6327    8.4467   -2.3279 H       1  LIG1        0.1207
     27 H           2.5036    0.7825   -3.2436 H       1  LIG1        0.1250
     28 H          -1.3355    0.5052   -1.3332 H       1  LIG1        0.1248
     29 H           0.2982    7.9150   -1.6753 H       1  LIG1        0.1249
     30 H           4.4507    6.8249   -1.8618 H       1  LIG1        0.1244
     31 H           3.0816    2.7154   -1.8180 H       1  LIG1        0.1328
     32 H          -0.7698    2.4376    0.0993 H       1  LIG1        0.1318
     33 H          -0.2217    5.7729   -0.5602 H       1  LIG1        0.1300
     34 H           3.9443    4.6786   -0.7467 H       1  LIG1        0.1299
     35 H           1.9147    4.5802    7.3932 H       1  LIG1        0.1241
     36 H          -0.1911    4.3322    3.6506 H       1  LIG1        0.1296
     37 H           4.0017    5.2685    3.6960 H       1  LIG1        0.1314
     38 H          -1.0735    5.0158    6.5768 H       1  LIG1        0.0599
     39 H          -1.1825    3.4531    5.7297 H       1  LIG1        0.0573
     40 H          -0.3177    3.5562    7.2623 H       1  LIG1        0.0556
     41 H           4.8993    4.2463    6.5162 H       1  LIG1        0.0602
     42 H           5.0032    5.8969    5.8559 H       1  LIG1        0.0557
     43 H           4.1472    5.6158    7.3710 H       1  LIG1        0.0574
@<TRIPOS>BOND
     1     1     3   ar
     2     1     4   ar
     3     2     5   ar
     4     2     6   ar
     5     3     7   ar
     6     4     8   ar
     7     5     9   ar
     8     6    10   ar
     9     7    16   ar
    10     8    16   ar
    11     9    17   ar
    12    10    17   ar
    13    11    14   ar
    14    11    15   ar
    15    12    14   ar
    16    12    18   ar
    17    13    15   ar
    18    13    18   ar
    19    14    20    1
    20    15    21    1
    21    16    22    1
    22    17    22    1
    23    18    24    1
    24    19    22   am
    25    19    23    2
    26    19    24    1
    27     1    25    1
    28     2    26    1
    29     3    27    1
    30     4    28    1
    31     5    29    1
    32     6    30    1
    33     7    31    1
    34     8    32    1
    35     9    33    1
    36    10    34    1
    37    11    35    1
    38    12    36    1
    39    13    37    1
    40    20    38    1
    41    20    39    1
    42    20    40    1
    43    21    41    1
    44    21    42    1
    45    21    43    1
