@<TRIPOS>MOLECULE
AG-690/11629446
 39 42 0 0 0
SMALL
USER_CHARGES

@<TRIPOS>ATOM
      1 C           1.9471    4.6375    6.8759 C.ar    1  LIG1       -0.1022
      2 C           3.0735    4.2616    6.1443 C.ar    1  LIG1       -0.0933
      3 C           0.7385    4.8766    6.2218 C.ar    1  LIG1       -0.0996
      4 C           2.9915    4.1248    4.7586 C.ar    1  LIG1       -0.0652
      5 C           0.6564    4.7398    4.8362 C.ar    1  LIG1       -0.0759
      6 C           2.1943    1.8118   -0.9371 C.ar    1  LIG1       -0.0639
      7 C          -0.1408    2.4271   -0.8600 C.ar    1  LIG1       -0.0671
      8 C           0.8842    6.3501   -1.1363 C.ar    1  LIG1       -0.0665
      9 C           3.2191    5.7341   -1.2132 C.ar    1  LIG1       -0.0723
     10 C           1.9257    0.9227   -1.9777 C.ar    1  LIG1       -0.0747
     11 C          -0.4094    1.5381   -1.9007 C.ar    1  LIG1       -0.0765
     12 C           1.0605    7.1584   -2.2594 C.ar    1  LIG1       -0.0720
     13 C           3.3953    6.5423   -2.3364 C.ar    1  LIG1       -0.0762
     14 C           1.1610    2.5641   -0.3781 C.ar    1  LIG1       -0.0326
     15 C           1.9635    5.6380   -0.6132 C.ar    1  LIG1       -0.0452
     16 C           1.7829    4.3639    4.1045 C.ar    1  LIG1       -0.0158
     17 C           0.6239    0.7859   -2.4594 C.ar    1  LIG1       -0.0417
     18 C           2.3160    7.2544   -2.8594 C.ar    1  LIG1       -0.0379
     19 C           1.4372    3.4790    0.6937 C.ar    1  LIG1        0.0035
     20 C           1.7812    4.8021    0.5471 C.ar    1  LIG1       -0.0145
     21 C           1.6979    4.2214    2.6714 C.ar    1  LIG1        0.0178
     22 N           1.3868    3.1238    2.0184 N.ar    1  LIG1       -0.3588
     23 N           1.9446    5.2645    1.8226 N.ar    1  LIG1       -0.3237
     24 BR          0.2597   -0.4197   -3.8684 Br      1  LIG1       -0.1140
     25 BR          2.5544    8.3467   -4.3832 Br      1  LIG1       -0.1079
     26 H           2.0109    4.7434    7.9550 H       1  LIG1        0.1213
     27 H           4.0146    4.0757    6.6538 H       1  LIG1        0.1238
     28 H          -0.1391    5.1682    6.7917 H       1  LIG1        0.1207
     29 H           3.8779    3.8285    4.2027 H       1  LIG1        0.1428
     30 H          -0.2927    4.9308    4.3410 H       1  LIG1        0.1183
     31 H           3.2143    1.9070   -0.5727 H       1  LIG1        0.1413
     32 H          -0.9575    3.0055   -0.4338 H       1  LIG1        0.1337
     33 H          -0.1008    6.2859   -0.6799 H       1  LIG1        0.1414
     34 H           4.0701    5.1849   -0.8175 H       1  LIG1        0.1312
     35 H           2.7420    0.3434   -2.4009 H       1  LIG1        0.1356
     36 H          -1.4297    1.4419   -2.2634 H       1  LIG1        0.1350
     37 H           0.2091    7.7066   -2.6549 H       1  LIG1        0.1404
     38 H           4.3799    6.6053   -2.7926 H       1  LIG1        0.1376
     39 H           2.2014    6.2061    2.0899 H       1  LIG1        0.3529
@<TRIPOS>BOND
     1     1     2   ar
     2     1     3   ar
     3     2     4   ar
     4     3     5   ar
     5     4    16   ar
     6     5    16   ar
     7     6    10   ar
     8     6    14   ar
     9     7    11   ar
    10     7    14   ar
    11     8    12   ar
    12     8    15   ar
    13     9    13   ar
    14     9    15   ar
    15    10    17   ar
    16    11    17   ar
    17    12    18   ar
    18    13    18   ar
    19    14    19    1
    20    15    20    1
    21    16    21    1
    22    17    24    1
    23    18    25    1
    24    19    20   ar
    25    19    22   ar
    26    20    23   ar
    27    21    22   ar
    28    21    23   ar
    29     1    26    1
    30     2    27    1
    31     3    28    1
    32     4    29    1
    33     5    30    1
    34     6    31    1
    35     7    32    1
    36     8    33    1
    37     9    34    1
    38    10    35    1
    39    11    36    1
    40    12    37    1
    41    13    38    1
    42    23    39    1
