@<TRIPOS>MOLECULE
AG-205/13056005
 39 42 0 0 0
SMALL
USER_CHARGES

@<TRIPOS>ATOM
      1 C           0.5829    0.7980   -2.4185 C.ar    1  LIG1       -0.1072
      2 C           2.2749    7.2644   -2.8569 C.ar    1  LIG1       -0.1037
      3 C           1.8346    1.4124   -2.3809 C.ar    1  LIG1       -0.1012
      4 C          -0.3565    1.0674   -1.4231 C.ar    1  LIG1       -0.1005
      5 C           1.0496    6.6610   -2.5737 C.ar    1  LIG1       -0.0966
      6 C           3.3667    7.0549   -2.0144 C.ar    1  LIG1       -0.1014
      7 C           2.1470    2.2961   -1.3479 C.ar    1  LIG1       -0.0789
      8 C          -0.0439    1.9511   -0.3901 C.ar    1  LIG1       -0.0772
      9 C           0.9161    5.8483   -1.4479 C.ar    1  LIG1       -0.0785
     10 C           3.2332    6.2423   -0.8886 C.ar    1  LIG1       -0.0851
     11 C           1.5359    4.6612    6.3348 C.ar    1  LIG1       -0.0985
     12 C           2.8699    4.3215    6.3861 C.ar    1  LIG1       -0.0445
     13 C           1.2078    2.5655   -0.3525 C.ar    1  LIG1       -0.0396
     14 C           2.0078    5.6390   -0.6054 C.ar    1  LIG1       -0.0521
     15 C           1.0334    4.6568    5.0015 C.ar    1  LIG1       -0.0898
     16 C           1.5293    3.4750    0.7113 C.ar    1  LIG1        0.0049
     17 C           1.8700    4.7982    0.5574 C.ar    1  LIG1       -0.0148
     18 C           2.0028    4.3142    4.0845 C.ar    1  LIG1        0.0248
     19 C           1.8695    4.2075    2.6806 C.ar    1  LIG1        0.0271
     20 C          -0.3740    4.9866    4.6648 C.3     1  LIG1       -0.0362
     21 N           1.5305    3.1136    2.0353 N.ar    1  LIG1       -0.3507
     22 N           2.0845    5.2541    1.8276 N.ar    1  LIG1       -0.3207
     23 S           3.5112    3.9995    4.8313 S.2     1  LIG1       -0.1186
     24 H           0.3390    0.1108   -3.2234 H       1  LIG1        0.1144
     25 H           2.3789    7.8968   -3.7337 H       1  LIG1        0.1191
     26 H           2.5656    1.2038   -3.1566 H       1  LIG1        0.1158
     27 H          -1.3313    0.5899   -1.4532 H       1  LIG1        0.1162
     28 H           0.1995    6.8245   -3.2297 H       1  LIG1        0.1215
     29 H           4.3211    7.5240   -2.2356 H       1  LIG1        0.1186
     30 H           3.1272    2.7671   -1.3326 H       1  LIG1        0.1234
     31 H          -0.7873    2.1505    0.3784 H       1  LIG1        0.1282
     32 H          -0.0449    5.3830   -1.2423 H       1  LIG1        0.1309
     33 H           4.0934    6.0898   -0.2412 H       1  LIG1        0.1194
     34 H           0.9528    4.9004    7.2151 H       1  LIG1        0.1220
     35 H           3.4985    4.2472    7.2623 H       1  LIG1        0.1720
     36 H          -0.4870    6.0638    4.4768 H       1  LIG1        0.0608
     37 H          -0.7143    4.4455    3.7691 H       1  LIG1        0.0538
     38 H          -1.0616    4.7071    5.4774 H       1  LIG1        0.0744
     39 H           2.3549    6.1934    2.0900 H       1  LIG1        0.3486
@<TRIPOS>BOND
     1     1     3   ar
     2     1     4   ar
     3     2     5   ar
     4     2     6   ar
     5     3     7   ar
     6     4     8   ar
     7     5     9   ar
     8     6    10   ar
     9     7    13   ar
    10     8    13   ar
    11     9    14   ar
    12    10    14   ar
    13    11    12   ar
    14    11    15   ar
    15    12    23   ar
    16    13    16    1
    17    14    17    1
    18    15    18   ar
    19    15    20    1
    20    16    17   ar
    21    16    21   ar
    22    17    22   ar
    23    18    19    1
    24    18    23   ar
    25    19    21   ar
    26    19    22   ar
    27     1    24    1
    28     2    25    1
    29     3    26    1
    30     4    27    1
    31     5    28    1
    32     6    29    1
    33     7    30    1
    34     8    31    1
    35     9    32    1
    36    10    33    1
    37    11    34    1
    38    12    35    1
    39    20    36    1
    40    20    37    1
    41    20    38    1
    42    22    39    1
