@<TRIPOS>MOLECULE
AO-548/43179512
 34 36 0 0 0
SMALL
USER_CHARGES

@<TRIPOS>ATOM
      1 C           0.1503    0.6769   -1.7438 C.ar    1  LIG1       -0.1073
      2 C           1.9715    7.5408   -1.3984 C.ar    1  LIG1       -0.0885
      3 C          -0.4026    1.8714   -1.2824 C.ar    1  LIG1       -0.1059
      4 C           1.5280    0.4712   -1.6688 C.ar    1  LIG1       -0.0979
      5 C           2.3009    6.5493   -2.3223 C.ar    1  LIG1       -0.0909
      6 C           1.9554    4.0772    6.0649 C.ar    1  LIG1       -0.0799
      7 C           1.8581    7.2231   -0.0449 C.ar    1  LIG1       -0.0536
      8 C           0.4220    2.8604   -0.7462 C.ar    1  LIG1       -0.0707
      9 C           2.3526    1.4602   -1.1327 C.ar    1  LIG1       -0.0601
     10 C           2.5170    5.2398   -1.8930 C.ar    1  LIG1       -0.0503
     11 C           2.6836    3.7021    4.9107 C.ar    1  LIG1       -0.0551
     12 C           1.1287    5.1060    5.6772 C.ar    1  LIG1        0.0086
     13 C           2.0741    5.9136    0.3846 C.ar    1  LIG1       -0.0033
     14 C           1.7998    2.6549   -0.6713 C.ar    1  LIG1        0.0033
     15 C           2.4035    4.9220   -0.5395 C.ar    1  LIG1        0.0435
     16 C           2.2499    4.5281    3.9001 C.ar    1  LIG1        0.1196
     17 C           2.6331    4.6199    2.4808 C.2     1  LIG1        0.1608
     18 N           1.9562    5.6107    1.7430 N.am    1  LIG1       -0.2834
     19 O           3.4614    3.8507    1.9980 O.2     1  LIG1       -0.4454
     20 O           1.3020    5.3868    4.3591 O.2     1  LIG1       -0.3627
     21 O           2.6185    3.6363   -0.1409 O.3     1  LIG1       -0.3663
     22 H          -0.4915   -0.0935   -2.1608 H       1  LIG1        0.1109
     23 H           1.8038    8.5604   -1.7329 H       1  LIG1        0.1309
     24 H          -1.4753    2.0318   -1.3408 H       1  LIG1        0.1218
     25 H           1.9578   -0.4594   -2.0282 H       1  LIG1        0.1282
     26 H           2.3900    6.7969   -3.3760 H       1  LIG1        0.1258
     27 H           2.0249    3.6517    7.0555 H       1  LIG1        0.1238
     28 H           1.6008    8.0046    0.6658 H       1  LIG1        0.1483
     29 H          -0.0147    3.7893   -0.3898 H       1  LIG1        0.1110
     30 H           3.4253    1.2953   -1.0785 H       1  LIG1        0.1276
     31 H           2.7736    4.4723   -2.6182 H       1  LIG1        0.1389
     32 H           3.4310    2.9255    4.8302 H       1  LIG1        0.1495
     33 H           0.3979    5.7123    6.1922 H       1  LIG1        0.2332
     34 H           1.2903    6.1842    2.2721 H       1  LIG1        0.3361
@<TRIPOS>BOND
     1     1     3   ar
     2     1     4   ar
     3     2     5   ar
     4     2     7   ar
     5     3     8   ar
     6     4     9   ar
     7     5    10   ar
     8     6    11   ar
     9     6    12   ar
    10     7    13   ar
    11     8    14   ar
    12     9    14   ar
    13    10    15   ar
    14    11    16   ar
    15    12    20   ar
    16    13    15   ar
    17    13    18    1
    18    14    21    1
    19    15    21    1
    20    16    17    1
    21    16    20   ar
    22    17    18   am
    23    17    19    2
    24     1    22    1
    25     2    23    1
    26     3    24    1
    27     4    25    1
    28     5    26    1
    29     6    27    1
    30     7    28    1
    31     8    29    1
    32     9    30    1
    33    10    31    1
    34    11    32    1
    35    12    33    1
    36    18    34    1
