@<TRIPOS>MOLECULE
AG-205/33133034
 41 44 0 0 0
SMALL
USER_CHARGES

@<TRIPOS>ATOM
      1 C           0.2803    0.8260   -2.4769 C.ar    1  LIG1       -0.1087
      2 C           1.0230    7.0782   -0.8852 C.ar    1  LIG1       -0.0949
      3 C           1.6504    0.7259   -2.2352 C.ar    1  LIG1       -0.0991
      4 C          -0.4960    1.7144   -1.7328 C.ar    1  LIG1       -0.1006
      5 C           1.6381    7.4319   -2.0860 C.ar    1  LIG1       -0.0939
      6 C           3.0762    4.0299    4.7582 C.ar    1  LIG1       -0.0648
      7 C           0.9091    4.9557    4.2255 C.ar    1  LIG1       -0.0627
      8 C           1.5154    6.0084   -0.1378 C.ar    1  LIG1       -0.0844
      9 C           2.2442    1.5142   -1.2495 C.ar    1  LIG1       -0.0581
     10 C           0.0977    2.5027   -0.7470 C.ar    1  LIG1       -0.0617
     11 C           2.7459    6.7157   -2.5395 C.ar    1  LIG1       -0.0727
     12 C           2.8758    4.3353    6.1043 C.ar    1  LIG1       -0.0737
     13 C           0.7087    5.2611    5.5718 C.ar    1  LIG1       -0.0726
     14 C           2.0929    4.3402    3.8187 C.ar    1  LIG1       -0.0280
     15 C           2.6232    5.2923   -0.5913 C.ar    1  LIG1       -0.0519
     16 C           1.4677    2.4026   -0.5053 C.ar    1  LIG1       -0.0273
     17 C           3.2385    5.6459   -1.7922 C.ar    1  LIG1       -0.0082
     18 C           1.6920    4.9508    6.5111 C.ar    1  LIG1       -0.0385
     19 C           2.3018    4.0218    2.4153 C.2     1  LIG1        0.0136
     20 C           3.4601    4.6105    1.6578 C.3     1  LIG1        0.0319
     21 C           3.1186    4.1521    0.2375 C.3     1  LIG1        0.0277
     22 N           1.5533    3.2152    1.7313 N.2     1  LIG1       -0.3200
     23 N           2.0507    3.1770    0.4628 N.pl3   1  LIG1       -0.3215
     24 CL          4.6110    4.7833   -2.3850 Cl      1  LIG1       -0.1400
     25 BR          1.4205    5.3646    8.3351 Br      1  LIG1       -0.1091
     26 H          -0.1819    0.2119   -3.2444 H       1  LIG1        0.1064
     27 H           0.1609    7.6366   -0.5319 H       1  LIG1        0.1249
     28 H           2.2547    0.0341   -2.8144 H       1  LIG1        0.1231
     29 H          -1.5630    1.7922   -1.9211 H       1  LIG1        0.1231
     30 H           1.2551    8.2656   -2.6672 H       1  LIG1        0.1293
     31 H           4.0023    3.5501    4.4521 H       1  LIG1        0.1404
     32 H           0.1363    5.2019    3.5019 H       1  LIG1        0.1449
     33 H           1.0288    5.7415    0.7967 H       1  LIG1        0.1305
     34 H           3.3126    1.4286   -1.0688 H       1  LIG1        0.1259
     35 H          -0.5173    3.1917   -0.1736 H       1  LIG1        0.1158
     36 H           3.2146    7.0048   -3.4768 H       1  LIG1        0.1338
     37 H           3.6519    4.0869    6.8236 H       1  LIG1        0.1384
     38 H          -0.2193    5.7408    5.8722 H       1  LIG1        0.1380
     39 H           3.5243    5.6943    1.7882 H       1  LIG1        0.1024
     40 H           4.3812    4.1374    2.0149 H       1  LIG1        0.1002
     41 H           3.9863    3.6985   -0.2529 H       1  LIG1        0.1421
@<TRIPOS>BOND
     1     1     3   ar
     2     1     4   ar
     3     2     5   ar
     4     2     8   ar
     5     3     9   ar
     6     4    10   ar
     7     5    11   ar
     8     6    12   ar
     9     6    14   ar
    10     7    13   ar
    11     7    14   ar
    12     8    15   ar
    13     9    16   ar
    14    10    16   ar
    15    11    17   ar
    16    12    18   ar
    17    13    18   ar
    18    14    19    1
    19    15    17   ar
    20    15    21    1
    21    16    23    1
    22    17    24    1
    23    18    25    1
    24    19    20    1
    25    19    22    2
    26    20    21    1
    27    21    23    1
    28    22    23    1
    29     1    26    1
    30     2    27    1
    31     3    28    1
    32     4    29    1
    33     5    30    1
    34     6    31    1
    35     7    32    1
    36     8    33    1
    37     9    34    1
    38    10    35    1
    39    11    36    1
    40    12    37    1
    41    13    38    1
    42    20    39    1
    43    20    40    1
    44    21    41    1
