@<TRIPOS>MOLECULE
AG-205/33118014
 45 48 0 0 0
SMALL
USER_CHARGES

@<TRIPOS>ATOM
      1 C           1.8703    4.4609    6.4744 C.ar    1  LIG1       -0.1083
      2 C           0.5141    0.4389   -2.2388 C.ar    1  LIG1       -0.1012
      3 C           3.9118    9.2718   -2.4760 C.ar    1  LIG1       -0.1016
      4 C           4.8928    8.6786   -1.6869 C.ar    1  LIG1       -0.1011
      5 C           0.7229    4.8966    5.8116 C.ar    1  LIG1       -0.1058
      6 C           3.0402    4.2152    5.7556 C.ar    1  LIG1       -0.1059
      7 C           1.7467    1.0601   -2.4395 C.ar    1  LIG1       -0.0949
      8 C          -0.3725    0.9400   -1.2856 C.ar    1  LIG1       -0.0937
      9 C           2.6604    8.6689   -2.6054 C.ar    1  LIG1       -0.0906
     10 C           4.6261    7.4801   -1.0243 C.ar    1  LIG1       -0.0883
     11 C           1.1204    6.8418   -2.0646 C.ar    1  LIG1       -0.0776
     12 C           0.7454    5.0866    4.4299 C.ar    1  LIG1       -0.0998
     13 C           3.0626    4.4052    4.3738 C.ar    1  LIG1       -0.1001
     14 C           2.0929    2.1824   -1.6870 C.ar    1  LIG1       -0.0667
     15 C          -0.0263    2.0623   -0.5332 C.ar    1  LIG1       -0.0651
     16 C           0.8537    5.6433   -1.4020 C.ar    1  LIG1       -0.0570
     17 C           3.0862    5.6529   -0.4836 C.ar    1  LIG1       -0.0440
     18 C           2.3745    7.4626   -1.9457 C.ar    1  LIG1       -0.0762
     19 C           3.3721    6.8593   -1.1432 C.ar    1  LIG1       -0.0666
     20 C           1.9153    4.8409    3.7109 C.ar    1  LIG1       -0.0821
     21 C           1.2064    2.6835   -0.7338 C.ar    1  LIG1       -0.0332
     22 C           1.8347    5.0500   -0.6131 C.ar    1  LIG1       -0.0216
     23 C           1.5483    3.7744    1.4627 C.2     1  LIG1        0.1203
     24 C           1.9402    5.0460    2.2152 C.3     1  LIG1        0.0775
     25 N           1.5665    3.8511    0.0486 N.am    1  LIG1       -0.2896
     26 O           1.2785    2.7504    2.0999 O.2     1  LIG1       -0.4638
     27 H           1.8529    4.3144    7.5504 H       1  LIG1        0.1141
     28 H           0.2439   -0.4346   -2.8250 H       1  LIG1        0.1207
     29 H           4.1199   10.2051   -2.9910 H       1  LIG1        0.1181
     30 H           5.8670    9.1485   -1.5869 H       1  LIG1        0.1183
     31 H          -0.1878    5.0890    6.3713 H       1  LIG1        0.1151
     32 H           3.9340    3.8772    6.2714 H       1  LIG1        0.1151
     33 H           2.4369    0.6707   -3.1821 H       1  LIG1        0.1245
     34 H          -1.3327    0.4567   -1.1303 H       1  LIG1        0.1243
     35 H           1.9088    9.1505   -3.2275 H       1  LIG1        0.1255
     36 H           5.4081    7.0339   -0.4134 H       1  LIG1        0.1254
     37 H           0.3387    7.2874   -2.6762 H       1  LIG1        0.1327
     38 H          -0.1534    5.4260    3.9217 H       1  LIG1        0.1168
     39 H           3.9785    4.2111    3.8220 H       1  LIG1        0.1164
     40 H           3.0562    2.6582   -1.8523 H       1  LIG1        0.1281
     41 H          -0.7254    2.4442    0.2068 H       1  LIG1        0.1296
     42 H          -0.1251    5.1822   -1.5101 H       1  LIG1        0.1307
     43 H           3.8468    5.1799    0.1363 H       1  LIG1        0.1416
     44 H           1.2401    5.8410    1.9348 H       1  LIG1        0.1199
     45 H           2.9467    5.3837    1.9468 H       1  LIG1        0.1203
@<TRIPOS>BOND
     1     1     5   ar
     2     1     6   ar
     3     2     7   ar
     4     2     8   ar
     5     3     4   ar
     6     3     9   ar
     7     4    10   ar
     8     5    12   ar
     9     6    13   ar
    10     7    14   ar
    11     8    15   ar
    12     9    18   ar
    13    10    19   ar
    14    11    16   ar
    15    11    18   ar
    16    12    20   ar
    17    13    20   ar
    18    14    21   ar
    19    15    21   ar
    20    16    22   ar
    21    17    19   ar
    22    17    22   ar
    23    18    19   ar
    24    20    24    1
    25    21    25    1
    26    22    25    1
    27    23    24    1
    28    23    25   am
    29    23    26    2
    30     1    27    1
    31     2    28    1
    32     3    29    1
    33     4    30    1
    34     5    31    1
    35     6    32    1
    36     7    33    1
    37     8    34    1
    38     9    35    1
    39    10    36    1
    40    11    37    1
    41    12    38    1
    42    13    39    1
    43    14    40    1
    44    15    41    1
    45    16    42    1
    46    17    43    1
    47    24    44    1
    48    24    45    1
