@<TRIPOS>MOLECULE
AN-919/15559083
 33 36 0 0 0
SMALL
USER_CHARGES

@<TRIPOS>ATOM
      1 C           0.5833    0.7812   -2.4606 C.ar    1  LIG1       -0.1021
      2 C           1.9040    0.9254   -2.0358 C.ar    1  LIG1       -0.0952
      3 C          -0.4262    1.5423   -1.8712 C.ar    1  LIG1       -0.1000
      4 C           2.8032    6.4035   -2.6748 C.ar    1  LIG1       -0.1090
      5 C           1.6318    4.8493    6.2967 C.ar    1  LIG1       -0.0998
      6 C           2.2153    1.8307   -1.0213 C.ar    1  LIG1       -0.0778
      7 C          -0.1148    2.4475   -0.8566 C.ar    1  LIG1       -0.0841
      8 C           2.8925    5.4310   -1.6372 C.ar    1  LIG1       -0.0881
      9 C           1.2645    5.0964    4.9424 C.ar    1  LIG1       -0.0757
     10 C           1.8585    7.3677   -2.4005 C.ar    1  LIG1       -0.0501
     11 C           2.6136    3.8885    6.3996 C.ar    1  LIG1       -0.0444
     12 C           1.2058    2.5918   -0.4316 C.ar    1  LIG1       -0.0488
     13 C           1.8782    4.8578    0.5973 C.ar    1  LIG1        0.0176
     14 C           1.5280    3.5284    0.6167 C.ar    1  LIG1       -0.0069
     15 C           2.0125    5.6892   -0.6092 C.ar    1  LIG1        0.0041
     16 C           1.9800    4.3152    4.0615 C.ar    1  LIG1        0.0275
     17 C           1.8763    4.3000    2.6514 C.ar    1  LIG1        0.0310
     18 N           2.0941    5.3321    1.8669 N.ar    1  LIG1       -0.3436
     19 N           1.5314    3.1850    1.9393 N.ar    1  LIG1       -0.3162
     20 S           1.0839    7.0987   -0.8971 S.2     1  LIG1       -0.1202
     21 S           3.0888    3.2888    4.8675 S.2     1  LIG1       -0.1152
     22 H           0.3411    0.0768   -3.2510 H       1  LIG1        0.1208
     23 H           2.6898    0.3326   -2.4948 H       1  LIG1        0.1228
     24 H          -1.4544    1.4307   -2.2028 H       1  LIG1        0.1196
     25 H           3.4022    6.3965   -3.5762 H       1  LIG1        0.1130
     26 H           1.1986    5.3511    7.1521 H       1  LIG1        0.1211
     27 H           3.2499    1.9335   -0.7030 H       1  LIG1        0.1310
     28 H          -0.9132    3.0326   -0.4063 H       1  LIG1        0.1210
     29 H           3.5715    4.5871   -1.6523 H       1  LIG1        0.1228
     30 H           0.5129    5.8146    4.6389 H       1  LIG1        0.1384
     31 H           1.5862    8.2176   -3.0103 H       1  LIG1        0.1623
     32 H           3.0744    3.5100    7.3009 H       1  LIG1        0.1720
     33 H           1.3173    2.2729    2.3219 H       1  LIG1        0.3520
@<TRIPOS>BOND
     1     1     2   ar
     2     1     3   ar
     3     2     6   ar
     4     3     7   ar
     5     4     8   ar
     6     4    10   ar
     7     5     9   ar
     8     5    11   ar
     9     6    12   ar
    10     7    12   ar
    11     8    15   ar
    12     9    16   ar
    13    10    20   ar
    14    11    21   ar
    15    12    14    1
    16    13    14   ar
    17    13    15    1
    18    13    18   ar
    19    14    19   ar
    20    15    20   ar
    21    16    17    1
    22    16    21   ar
    23    17    18   ar
    24    17    19   ar
    25     1    22    1
    26     2    23    1
    27     3    24    1
    28     4    25    1
    29     5    26    1
    30     6    27    1
    31     7    28    1
    32     8    29    1
    33     9    30    1
    34    10    31    1
    35    11    32    1
    36    19    33    1
