@<TRIPOS>MOLECULE
AO-854/40081697
 42 44 0 0 0
SMALL
USER_CHARGES

@<TRIPOS>ATOM
      1 C           1.2698    4.1760    6.2893 C.ar    1  LIG1       -0.1092
      2 C           2.6148    7.1471   -2.7165 C.ar    1  LIG1       -0.1063
      3 C           0.8575    5.2769    5.5387 C.ar    1  LIG1       -0.1056
      4 C           2.2385    3.3095    5.7826 C.ar    1  LIG1       -0.1080
      5 C           1.2801    6.7481   -2.6475 C.ar    1  LIG1       -0.1051
      6 C           3.4835    6.8612   -1.6632 C.ar    1  LIG1       -0.1048
      7 C           1.3207    1.8692   -2.4339 C.ar    1  LIG1       -0.0881
      8 C           2.0914    2.4401   -1.4211 C.ar    1  LIG1       -0.0670
      9 C           1.4138    5.5115    4.2813 C.ar    1  LIG1       -0.0968
     10 C           2.7948    3.5441    4.5251 C.ar    1  LIG1       -0.1008
     11 C           0.8139    6.0634   -1.5253 C.ar    1  LIG1       -0.1002
     12 C           3.0174    6.1765   -0.5410 C.ar    1  LIG1       -0.1003
     13 C           0.1516    1.1782   -2.1153 C.ar    1  LIG1       -0.0685
     14 C           0.5241    1.6288    0.2288 C.ar    1  LIG1       -0.0360
     15 C           1.6931    2.3199   -0.0897 C.ar    1  LIG1        0.0338
     16 C           2.3824    4.6451    3.7744 C.ar    1  LIG1       -0.0852
     17 C           1.6825    5.7775   -0.4720 C.ar    1  LIG1       -0.0907
     18 C          -0.2467    1.0580   -0.7840 C.ar    1  LIG1       -0.0039
     19 C           2.4974    2.9147    0.9655 C.2     1  LIG1        0.1251
     20 C           2.9814    4.8969    2.4210 C.3     1  LIG1        0.0078
     21 C           1.1814    5.0408    0.7364 C.3     1  LIG1        0.0052
     22 N           2.2304    4.2382    1.3615 N.am    1  LIG1       -0.3343
     23 O           3.3766    2.2037    1.4704 O.2     1  LIG1       -0.4664
     24 CL         -1.6896    0.2055   -0.3917 Cl      1  LIG1       -0.1366
     25 H           0.8374    3.9941    7.2690 H       1  LIG1        0.1139
     26 H           2.9780    7.6791   -3.5909 H       1  LIG1        0.1171
     27 H           0.1040    5.9521    5.9335 H       1  LIG1        0.1142
     28 H           2.5605    2.4529    6.3671 H       1  LIG1        0.1128
     29 H           0.6038    6.9697   -3.4680 H       1  LIG1        0.1170
     30 H           4.5230    7.1708   -1.7170 H       1  LIG1        0.1171
     31 H           1.6309    1.9632   -3.4704 H       1  LIG1        0.1341
     32 H           3.0004    2.9761   -1.6818 H       1  LIG1        0.1378
     33 H           1.0862    6.3717    3.7033 H       1  LIG1        0.1243
     34 H           3.5488    2.8638    4.1383 H       1  LIG1        0.1144
     35 H          -0.2278    5.7565   -1.4802 H       1  LIG1        0.1183
     36 H           3.7014    5.9583    0.2749 H       1  LIG1        0.1162
     37 H          -0.4387    0.7387   -2.9152 H       1  LIG1        0.1407
     38 H           0.2154    1.5370    1.2683 H       1  LIG1        0.1516
     39 H           3.0031    5.9700    2.2019 H       1  LIG1        0.1305
     40 H           4.0138    4.5347    2.3746 H       1  LIG1        0.1298
     41 H           0.8015    5.7428    1.4866 H       1  LIG1        0.1398
     42 H           0.3577    4.3687    0.4733 H       1  LIG1        0.1119
@<TRIPOS>BOND
     1     1     3   ar
     2     1     4   ar
     3     2     5   ar
     4     2     6   ar
     5     3     9   ar
     6     4    10   ar
     7     5    11   ar
     8     6    12   ar
     9     7     8   ar
    10     7    13   ar
    11     8    15   ar
    12     9    16   ar
    13    10    16   ar
    14    11    17   ar
    15    12    17   ar
    16    13    18   ar
    17    14    15   ar
    18    14    18   ar
    19    15    19    1
    20    16    20    1
    21    17    21    1
    22    18    24    1
    23    19    22   am
    24    19    23    2
    25    20    22    1
    26    21    22    1
    27     1    25    1
    28     2    26    1
    29     3    27    1
    30     4    28    1
    31     5    29    1
    32     6    30    1
    33     7    31    1
    34     8    32    1
    35     9    33    1
    36    10    34    1
    37    11    35    1
    38    12    36    1
    39    13    37    1
    40    14    38    1
    41    20    39    1
    42    20    40    1
    43    21    41    1
    44    21    42    1
