@<TRIPOS>MOLECULE
AP-518/42804655
 51 53 0 0 0
SMALL
USER_CHARGES

@<TRIPOS>ATOM
      1 C           0.1959    0.7050   -1.5425 C.ar    1  LIG1       -0.1053
      2 C           1.4704    0.9622   -2.0474 C.ar    1  LIG1       -0.1048
      3 C          -0.3413    1.5279   -0.5525 C.ar    1  LIG1       -0.1016
      4 C           0.8671    6.9865   -1.7976 C.ar    1  LIG1       -0.0959
      5 C           1.9663    7.6148   -2.3829 C.ar    1  LIG1       -0.0948
      6 C           2.2080    2.0422   -1.5623 C.ar    1  LIG1       -0.0959
      7 C           0.3963    2.6078   -0.0674 C.ar    1  LIG1       -0.0906
      8 C           1.0467    5.8275   -1.0425 C.ar    1  LIG1       -0.0828
      9 C           3.2450    7.0841   -2.2134 C.ar    1  LIG1       -0.0798
     10 C           0.9620    4.4810    3.9237 C.ar    1  LIG1       -0.0209
     11 C           3.1279    3.9353    4.8444 C.ar    1  LIG1       -0.0302
     12 C           2.2718    4.0352    3.7476 C.ar    1  LIG1        0.0273
     13 C           1.6708    2.8651   -0.5722 C.ar    1  LIG1       -0.0733
     14 C           2.3255    5.2968   -0.8729 C.ar    1  LIG1       -0.0518
     15 C           0.5080    4.8269    5.1965 C.ar    1  LIG1        0.0516
     16 C           2.6740    4.2810    6.1172 C.ar    1  LIG1        0.0464
     17 C           1.3640    4.7268    6.2932 C.ar    1  LIG1        0.0866
     18 C           3.4246    5.9250   -1.4584 C.ar    1  LIG1       -0.0280
     19 C           2.7468    3.6771    2.4205 C.2     1  LIG1        0.1142
     20 C          -1.5823    5.3345    4.1822 C.3     1  LIG1        0.0294
     21 C           4.3048    5.3279    7.4957 C.3     1  LIG1        0.0288
     22 C           0.3275    4.0266    8.3158 C.3     1  LIG1        0.0204
     23 C           2.4708    4.0372   -0.0451 C.3     1  LIG1        0.0206
     24 N           2.1272    4.3041    1.3332 N.am    1  LIG1       -0.3242
     25 O           3.6499    2.8334    2.2795 O.2     1  LIG1       -0.4678
     26 O          -0.7734    5.2615    5.3545 O.3     1  LIG1       -0.4008
     27 O           3.5204    4.1795    7.1799 O.3     1  LIG1       -0.4018
     28 O           0.9195    5.0639    7.5373 O.3     1  LIG1       -0.4068
     29 BR          5.1818    5.2399   -1.2590 Br      1  LIG1       -0.1057
     30 H          -0.3788   -0.1352   -1.9213 H       1  LIG1        0.1178
     31 H           1.8884    0.3222   -2.8190 H       1  LIG1        0.1171
     32 H          -1.3340    1.3286   -0.1600 H       1  LIG1        0.1193
     33 H          -0.1282    7.3999   -1.9298 H       1  LIG1        0.1258
     34 H           1.8260    8.5173   -2.9707 H       1  LIG1        0.1262
     35 H           3.2003    2.2349   -1.9614 H       1  LIG1        0.1136
     36 H          -0.0303    3.2435    0.7041 H       1  LIG1        0.1268
     37 H           0.1832    5.3464   -0.5911 H       1  LIG1        0.1253
     38 H           4.0895    7.5878   -2.6774 H       1  LIG1        0.1349
     39 H           0.2913    4.5623    3.0712 H       1  LIG1        0.1405
     40 H           4.1499    3.5875    4.7119 H       1  LIG1        0.1210
     41 H          -2.5789    5.6951    4.4482 H       1  LIG1        0.0920
     42 H          -1.6516    4.3447    3.7240 H       1  LIG1        0.1258
     43 H          -1.1224    6.0294    3.4758 H       1  LIG1        0.0930
     44 H           4.9351    5.1126    8.3621 H       1  LIG1        0.1258
     45 H           3.6456    6.1722    7.7121 H       1  LIG1        0.0900
     46 H           4.9378    5.5724    6.6393 H       1  LIG1        0.0916
     47 H           0.0168    4.4282    9.2834 H       1  LIG1        0.0830
     48 H           1.0506    3.2197    8.4594 H       1  LIG1        0.0827
     49 H          -0.5467    3.6398    7.7867 H       1  LIG1        0.1186
     50 H           3.5341    3.7653   -0.0183 H       1  LIG1        0.1639
     51 H           1.3527    4.9377    1.5014 H       1  LIG1        0.3032
@<TRIPOS>BOND
     1     1     2   ar
     2     1     3   ar
     3     2     6   ar
     4     3     7   ar
     5     4     5   ar
     6     4     8   ar
     7     5     9   ar
     8     6    13   ar
     9     7    13   ar
    10     8    14   ar
    11     9    18   ar
    12    10    12   ar
    13    10    15   ar
    14    11    12   ar
    15    11    16   ar
    16    12    19    1
    17    13    23    1
    18    14    18   ar
    19    14    23    1
    20    15    17   ar
    21    15    26    1
    22    16    17   ar
    23    16    27    1
    24    17    28    1
    25    18    29    1
    26    19    24   am
    27    19    25    2
    28    20    26    1
    29    21    27    1
    30    22    28    1
    31    23    24    1
    32     1    30    1
    33     2    31    1
    34     3    32    1
    35     4    33    1
    36     5    34    1
    37     6    35    1
    38     7    36    1
    39     8    37    1
    40     9    38    1
    41    10    39    1
    42    11    40    1
    43    20    41    1
    44    20    42    1
    45    20    43    1
    46    21    44    1
    47    21    45    1
    48    21    46    1
    49    22    47    1
    50    22    48    1
    51    22    49    1
    52    23    50    1
    53    24    51    1
