@<TRIPOS>MOLECULE
AP-518/40989011
 49 50 0 0 0
SMALL
USER_CHARGES

@<TRIPOS>ATOM
      1 C           1.7724    4.2285    2.5950 C.1     1  LIG1       -0.2021
      2 C           2.0699    4.0995    1.4378 C.1     1  LIG1       -0.1204
      3 C           1.9837    7.5665   -2.2956 C.ar    1  LIG1       -0.1028
      4 C           0.1907    0.7202   -1.8008 C.ar    1  LIG1       -0.1026
      5 C           0.8797    7.0003   -1.6581 C.ar    1  LIG1       -0.0976
      6 C           3.2362    6.9617   -2.1895 C.ar    1  LIG1       -0.1020
      7 C          -0.3656    1.4603   -0.7576 C.ar    1  LIG1       -0.1033
      8 C           1.4741    1.0171   -2.2595 C.ar    1  LIG1       -0.0998
      9 C           1.0282    5.8296   -0.9146 C.ar    1  LIG1       -0.0801
     10 C           3.3848    5.7910   -1.4460 C.ar    1  LIG1       -0.0880
     11 C           0.3613    2.4974   -0.1731 C.ar    1  LIG1       -0.0941
     12 C           2.2011    2.0542   -1.6751 C.ar    1  LIG1       -0.0886
     13 C           2.2807    5.2249   -0.8085 C.ar    1  LIG1       -0.0403
     14 C           1.6447    2.7944   -0.6318 C.ar    1  LIG1       -0.0499
     15 C           1.2779    6.0105    6.3925 C.3     1  LIG1       -0.0669
     16 C          -0.6508    4.4133    6.0703 C.3     1  LIG1       -0.0667
     17 C          -0.8415    5.2086    3.3190 C.3     1  LIG1       -0.0801
     18 C           1.0279    6.8174    3.6248 C.3     1  LIG1       -0.0804
     19 C           1.4043    4.3894    3.9984 C.3     1  LIG1       -0.0386
     20 C           0.0206    5.6933    5.5990 C.3     1  LIG1       -0.1132
     21 C           2.4451    3.9355    0.0106 C.3     1  LIG1        0.0825
     22 N           0.4028    5.5272    4.1353 N.4     1  LIG1        0.3866
     23 O           3.8377    3.5799    0.0361 O.3     1  LIG1       -0.4314
     24 H           1.8677    8.4773   -2.8757 H       1  LIG1        0.1227
     25 H          -0.3749   -0.0882   -2.2549 H       1  LIG1        0.1229
     26 H          -0.0958    7.4704   -1.7415 H       1  LIG1        0.1224
     27 H           4.0959    7.4016   -2.6865 H       1  LIG1        0.1196
     28 H          -1.3645    1.2285   -0.3996 H       1  LIG1        0.1194
     29 H           1.9080    0.4404   -3.0710 H       1  LIG1        0.1235
     30 H           0.1624    5.3957   -0.4212 H       1  LIG1        0.1358
     31 H           4.3645    5.3270   -1.3686 H       1  LIG1        0.1160
     32 H          -0.0803    3.0688    0.6390 H       1  LIG1        0.1146
     33 H           3.2003    2.2785   -2.0391 H       1  LIG1        0.1295
     34 H           1.9809    5.1719    6.3512 H       1  LIG1        0.0668
     35 H           1.7882    6.8975    6.0007 H       1  LIG1        0.0484
     36 H           1.0407    6.1962    7.4456 H       1  LIG1        0.0497
     37 H           0.0504    3.5732    6.0287 H       1  LIG1        0.0497
     38 H          -1.5168    4.1605    5.4488 H       1  LIG1        0.0496
     39 H          -0.9954    4.5095    7.1055 H       1  LIG1        0.0669
     40 H          -1.2667    4.2811    3.7066 H       1  LIG1        0.0844
     41 H          -1.5396    6.0396    3.4358 H       1  LIG1        0.0795
     42 H          -0.5373    5.0951    2.2766 H       1  LIG1        0.0820
     43 H           1.9153    7.0197    4.2273 H       1  LIG1        0.0830
     44 H           1.2910    6.6691    2.5757 H       1  LIG1        0.0778
     45 H           0.2888    7.6133    3.7353 H       1  LIG1        0.0837
     46 H           2.2648    4.6503    4.6204 H       1  LIG1        0.1445
     47 H           0.9217    3.4947    4.4007 H       1  LIG1        0.1432
     48 H          -0.6813    6.5326    5.6410 H       1  LIG1        0.0958
     49 H           3.8910    2.7583    0.5421 H       1  LIG1        0.3479
@<TRIPOS>BOND
     1     1     2    3
     2     1    19    1
     3     2    21    1
     4     3     5   ar
     5     3     6   ar
     6     4     7   ar
     7     4     8   ar
     8     5     9   ar
     9     6    10   ar
    10     7    11   ar
    11     8    12   ar
    12     9    13   ar
    13    10    13   ar
    14    11    14   ar
    15    12    14   ar
    16    13    21    1
    17    14    21    1
    18    15    20    1
    19    16    20    1
    20    17    22    1
    21    18    22    1
    22    19    22    1
    23    20    22    1
    24    21    23    1
    25     3    24    1
    26     4    25    1
    27     5    26    1
    28     6    27    1
    29     7    28    1
    30     8    29    1
    31     9    30    1
    32    10    31    1
    33    11    32    1
    34    12    33    1
    35    15    34    1
    36    15    35    1
    37    15    36    1
    38    16    37    1
    39    16    38    1
    40    16    39    1
    41    17    40    1
    42    17    41    1
    43    17    42    1
    44    18    43    1
    45    18    44    1
    46    18    45    1
    47    19    46    1
    48    19    47    1
    49    20    48    1
    50    23    49    1
