@<TRIPOS>MOLECULE
AN-652/43265058
 34 36 0 0 0
SMALL
USER_CHARGES

@<TRIPOS>ATOM
      1 C           0.1500    0.6770   -1.7633 C.ar    1  LIG1       -0.1028
      2 C           1.9702    7.5429   -1.4544 C.ar    1  LIG1       -0.0926
      3 C          -0.4028    1.8737   -1.3076 C.ar    1  LIG1       -0.0984
      4 C           1.5278    0.4719   -1.6882 C.ar    1  LIG1       -0.0950
      5 C           2.2992    6.5467   -2.3735 C.ar    1  LIG1       -0.1010
      6 C           2.1059    3.9348    6.0938 C.ar    1  LIG1       -0.1088
      7 C           1.8578    7.2321   -0.0992 C.ar    1  LIG1       -0.0536
      8 C           0.4220    2.8656   -0.7771 C.ar    1  LIG1       -0.0637
      9 C           2.3526    1.4638   -1.1577 C.ar    1  LIG1       -0.0593
     10 C           2.5158    5.2395   -1.9375 C.ar    1  LIG1       -0.0601
     11 C           2.7287    3.7067    4.8328 C.ar    1  LIG1       -0.0770
     12 C           1.1778    4.9512    6.0362 C.ar    1  LIG1       -0.0390
     13 C           2.0744    5.9249    0.3368 C.ar    1  LIG1       -0.0011
     14 C           1.7999    2.6607   -0.7021 C.ar    1  LIG1        0.0077
     15 C           2.4033    4.9286   -0.5824 C.ar    1  LIG1        0.0391
     16 C           2.2528    4.5575    3.8593 C.ar    1  LIG1        0.0811
     17 C           2.6351    4.6421    2.4393 C.2     1  LIG1        0.1300
     18 N           1.9575    5.6289    1.6969 N.am    1  LIG1       -0.2903
     19 O           3.4632    3.8705    1.9599 O.2     1  LIG1       -0.4589
     20 O           2.6188    3.6450   -0.1773 O.3     1  LIG1       -0.3658
     21 S           1.0603    5.6257    4.4667 S.2     1  LIG1       -0.0843
     22 H          -0.4919   -0.0957   -2.1758 H       1  LIG1        0.1201
     23 H           1.8021    8.5607   -1.7941 H       1  LIG1        0.1212
     24 H          -1.4755    2.0337   -1.3661 H       1  LIG1        0.1240
     25 H           1.9575   -0.4604   -2.0431 H       1  LIG1        0.1262
     26 H           2.3874    6.7889   -3.4285 H       1  LIG1        0.1236
     27 H           2.3281    3.3823    6.9973 H       1  LIG1        0.1109
     28 H           1.6009    8.0172    0.6076 H       1  LIG1        0.1536
     29 H          -0.0147    3.7963   -0.4252 H       1  LIG1        0.1255
     30 H           3.4254    1.2993   -1.1034 H       1  LIG1        0.1319
     31 H           2.7720    4.4683   -2.6590 H       1  LIG1        0.1208
     32 H           3.4871    2.9547    4.6543 H       1  LIG1        0.1463
     33 H           0.5641    5.3303    6.8411 H       1  LIG1        0.1609
     34 H           1.2918    6.2051    2.2234 H       1  LIG1        0.3293
@<TRIPOS>BOND
     1     1     3   ar
     2     1     4   ar
     3     2     5   ar
     4     2     7   ar
     5     3     8   ar
     6     4     9   ar
     7     5    10   ar
     8     6    11   ar
     9     6    12   ar
    10     7    13   ar
    11     8    14   ar
    12     9    14   ar
    13    10    15   ar
    14    11    16   ar
    15    12    21   ar
    16    13    15   ar
    17    13    18    1
    18    14    20    1
    19    15    20    1
    20    16    17    1
    21    16    21   ar
    22    17    18   am
    23    17    19    2
    24     1    22    1
    25     2    23    1
    26     3    24    1
    27     4    25    1
    28     5    26    1
    29     6    27    1
    30     7    28    1
    31     8    29    1
    32     9    30    1
    33    10    31    1
    34    11    32    1
    35    12    33    1
    36    18    34    1
