@<TRIPOS>MOLECULE
AG-690/33394033
 40 42 0 0 0
SMALL
USER_CHARGES

@<TRIPOS>ATOM
      1 C           0.6004    0.3165   -1.9409 C.ar    1  LIG1       -0.1032
      2 C           2.5343    7.6933   -2.2739 C.ar    1  LIG1       -0.1077
      3 C           1.8554    0.8981   -2.1195 C.ar    1  LIG1       -0.0932
      4 C          -0.3881    0.9957   -1.2286 C.ar    1  LIG1       -0.0964
      5 C           1.1843    7.4028   -2.0782 C.ar    1  LIG1       -0.0994
      6 C           3.5112    6.8040   -1.8259 C.ar    1  LIG1       -0.1014
      7 C           2.3444    4.6451    5.6629 C.ar    1  LIG1       -0.0660
      8 C           2.7030    4.4633    4.3273 C.ar    1  LIG1       -0.0493
      9 C           2.1222    2.1589   -1.5858 C.ar    1  LIG1       -0.0566
     10 C          -0.1214    2.2565   -0.6950 C.ar    1  LIG1       -0.0611
     11 C           0.8109    6.2232   -1.4343 C.ar    1  LIG1       -0.0615
     12 C           3.1378    5.6242   -1.1821 C.ar    1  LIG1       -0.0648
     13 C           1.0087    4.5314    6.0481 C.ar    1  LIG1       -0.0365
     14 C           0.3901    4.0543    3.7618 C.ar    1  LIG1       -0.0038
     15 C           1.7259    4.1680    3.3768 C.ar    1  LIG1        0.0556
     16 C           1.1338    2.8381   -0.8736 C.ar    1  LIG1       -0.0232
     17 C           1.7876    5.3338   -0.9862 C.ar    1  LIG1       -0.0283
     18 C           0.0314    4.2361    5.0975 C.ar    1  LIG1        0.0802
     19 C           2.1005    3.9787    1.9842 C.2     1  LIG1        0.1494
     20 N           1.1196    4.2633    1.0283 N.am    1  LIG1       -0.2671
     21 N           1.4061    4.1271   -0.3279 N.pl3   1  LIG1       -0.3205
     22 N          -1.3283    4.1206    5.4901 N.pl3   1  LIG1       -0.0445
     23 O          -1.6290    4.2879    6.6968 O.2     1  LIG1       -0.1517
     24 O           3.2463    3.6001    1.6831 O.2     1  LIG1       -0.4489
     25 O          -2.1919    3.8545    4.6197 O.2     1  LIG1       -0.2432
     26 H           0.3927   -0.6655   -2.3564 H       1  LIG1        0.1175
     27 H           2.8250    8.6121   -2.7751 H       1  LIG1        0.1079
     28 H           2.6249    0.3691   -2.6739 H       1  LIG1        0.1254
     29 H          -1.3656    0.5426   -1.0897 H       1  LIG1        0.1223
     30 H           0.4240    8.0953   -2.4269 H       1  LIG1        0.1265
     31 H           4.5626    7.0303   -1.9785 H       1  LIG1        0.1234
     32 H           3.1054    4.8752    6.4029 H       1  LIG1        0.1505
     33 H           3.7470    4.5547    4.0383 H       1  LIG1        0.1557
     34 H           3.1036    2.6033   -1.7305 H       1  LIG1        0.1324
     35 H          -0.8996    2.7766   -0.1419 H       1  LIG1        0.1233
     36 H          -0.2439    6.0062   -1.2866 H       1  LIG1        0.1227
     37 H           3.9078    4.9385   -0.8375 H       1  LIG1        0.1124
     38 H           0.7430    4.6753    7.0925 H       1  LIG1        0.1741
     39 H          -0.3704    3.8238    3.0184 H       1  LIG1        0.1887
     40 H           0.1985    4.5694    1.3233 H       1  LIG1        0.3602
@<TRIPOS>BOND
     1     1     3   ar
     2     1     4   ar
     3     2     5   ar
     4     2     6   ar
     5     3     9   ar
     6     4    10   ar
     7     5    11   ar
     8     6    12   ar
     9     7     8   ar
    10     7    13   ar
    11     8    15   ar
    12     9    16   ar
    13    10    16   ar
    14    11    17   ar
    15    12    17   ar
    16    13    18   ar
    17    14    15   ar
    18    14    18   ar
    19    15    19    1
    20    16    21    1
    21    17    21    1
    22    18    22    1
    23    19    20   am
    24    19    24    2
    25    20    21    1
    26    22    23    1
    27    22    25    2
    28     1    26    1
    29     2    27    1
    30     3    28    1
    31     4    29    1
    32     5    30    1
    33     6    31    1
    34     7    32    1
    35     8    33    1
    36     9    34    1
    37    10    35    1
    38    11    36    1
    39    12    37    1
    40    13    38    1
    41    14    39    1
    42    20    40    1
