@<TRIPOS>MOLECULE
AK-968/15359073
 49 51 0 0 0
SMALL
USER_CHARGES

@<TRIPOS>ATOM
      1 C           1.8798    7.6973   -2.4906 C.ar    1  LIG1       -0.1073
      2 C           0.2390    0.8925   -1.2268 C.ar    1  LIG1       -0.0893
      3 C           0.8422    6.9752   -1.9012 C.ar    1  LIG1       -0.0981
      4 C           3.1920    7.2323   -2.4008 C.ar    1  LIG1       -0.1057
      5 C           0.9677    1.4837   -2.2588 C.ar    1  LIG1       -0.0920
      6 C           3.2069    4.0732    4.5491 C.ar    1  LIG1       -0.0640
      7 C           0.8301    4.2268    4.1437 C.ar    1  LIG1       -0.0726
      8 C           3.0013    4.4177    5.8849 C.ar    1  LIG1       -0.0861
      9 C           0.6246    4.5712    5.4796 C.ar    1  LIG1       -0.0910
     10 C           0.3353    1.3943    0.0712 C.ar    1  LIG1       -0.0540
     11 C           1.1165    5.7883   -1.2218 C.ar    1  LIG1       -0.0604
     12 C           3.4662    6.0453   -1.7214 C.ar    1  LIG1       -0.0705
     13 C           1.7928    2.5765   -1.9930 C.ar    1  LIG1       -0.0516
     14 C           2.1213    3.9778    3.6784 C.ar    1  LIG1        0.0234
     15 C           1.7102    4.6668    6.3502 C.ar    1  LIG1       -0.1060
     16 C           1.1604    2.4871    0.3370 C.ar    1  LIG1       -0.0064
     17 C           2.4285    5.3233   -1.1320 C.ar    1  LIG1        0.0029
     18 C           1.8892    3.0782   -0.6950 C.ar    1  LIG1        0.0425
     19 C           2.3344    3.6182    2.2853 C.2     1  LIG1        0.1173
     20 C           2.2520    6.3445    8.1494 C.3     1  LIG1       -0.0611
     21 C           1.9959    3.9101    8.7361 C.3     1  LIG1       -0.0613
     22 C           0.0014    5.2885    8.1857 C.3     1  LIG1       -0.0611
     23 C           1.4840    5.0453    7.8233 C.3     1  LIG1       -0.0599
     24 N           1.2482    2.9851    1.6616 N.am    1  LIG1       -0.2961
     25 O           3.4140    3.8303    1.7159 O.2     1  LIG1       -0.4682
     26 O           2.7014    4.1466   -0.4567 O.3     1  LIG1       -0.3670
     27 H           1.6666    8.6212   -3.0201 H       1  LIG1        0.1106
     28 H          -0.4037    0.0421   -1.4342 H       1  LIG1        0.1297
     29 H          -0.1796    7.3373   -1.9708 H       1  LIG1        0.1280
     30 H           3.9994    7.7951   -2.8602 H       1  LIG1        0.1216
     31 H           0.8922    1.0935   -3.2695 H       1  LIG1        0.1244
     32 H           4.2169    3.8812    4.1965 H       1  LIG1        0.1439
     33 H          -0.0233    4.1555    3.4743 H       1  LIG1        0.1264
     34 H           3.8528    4.4895    6.5563 H       1  LIG1        0.1255
     35 H          -0.3850    4.7631    5.8337 H       1  LIG1        0.1264
     36 H          -0.2376    0.9252    0.8672 H       1  LIG1        0.1479
     37 H           0.3038    5.2314   -0.7636 H       1  LIG1        0.1270
     38 H           4.4904    5.6888   -1.6531 H       1  LIG1        0.1112
     39 H           2.3576    3.0322   -2.8018 H       1  LIG1        0.1376
     40 H           2.1073    6.6372    9.1960 H       1  LIG1        0.0384
     41 H           3.3312    6.2386    7.9932 H       1  LIG1        0.0416
     42 H           1.9085    7.1743    7.5203 H       1  LIG1        0.0391
     43 H           1.8548    4.1369    9.7985 H       1  LIG1        0.0388
     44 H           1.4651    2.9719    8.5358 H       1  LIG1        0.0399
     45 H           3.0655    3.7285    8.5777 H       1  LIG1        0.0388
     46 H          -0.1082    5.5550    9.2439 H       1  LIG1        0.0391
     47 H          -0.4275    6.1109    7.6011 H       1  LIG1        0.0416
     48 H          -0.6081    4.3935    8.0145 H       1  LIG1        0.0384
     49 H           0.4159    2.8683    2.2341 H       1  LIG1        0.3276
@<TRIPOS>BOND
     1     1     3   ar
     2     1     4   ar
     3     2     5   ar
     4     2    10   ar
     5     3    11   ar
     6     4    12   ar
     7     5    13   ar
     8     6     8   ar
     9     6    14   ar
    10     7     9   ar
    11     7    14   ar
    12     8    15   ar
    13     9    15   ar
    14    10    16   ar
    15    11    17   ar
    16    12    17   ar
    17    13    18   ar
    18    14    19    1
    19    15    23    1
    20    16    18   ar
    21    16    24    1
    22    17    26    1
    23    18    26    1
    24    19    24   am
    25    19    25    2
    26    20    23    1
    27    21    23    1
    28    22    23    1
    29     1    27    1
    30     2    28    1
    31     3    29    1
    32     4    30    1
    33     5    31    1
    34     6    32    1
    35     7    33    1
    36     8    34    1
    37     9    35    1
    38    10    36    1
    39    11    37    1
    40    12    38    1
    41    13    39    1
    42    20    40    1
    43    20    41    1
    44    20    42    1
    45    21    43    1
    46    21    44    1
    47    21    45    1
    48    22    46    1
    49    22    47    1
    50    22    48    1
    51    24    49    1
