@<TRIPOS>MOLECULE
AE-848/36048001
 38 41 0 0 0
SMALL
USER_CHARGES

@<TRIPOS>ATOM
      1 C           1.3132    0.6673   -1.7598 C.ar    1  LIG1       -0.1060
      2 C           2.6103    7.1707   -2.9480 C.ar    1  LIG1       -0.1096
      3 C           2.2899    1.5084   -1.2267 C.ar    1  LIG1       -0.1048
      4 C          -0.0376    0.9643   -1.5784 C.ar    1  LIG1       -0.1032
      5 C           1.5776    6.2403   -3.0641 C.ar    1  LIG1       -0.1011
      6 C           3.1827    7.4256   -1.7018 C.ar    1  LIG1       -0.0999
      7 C           1.7009    4.3930    6.1461 C.ar    1  LIG1       -0.1042
      8 C           1.9158    2.6464   -0.5122 C.ar    1  LIG1       -0.0975
      9 C          -0.4117    2.1023   -0.8639 C.ar    1  LIG1       -0.0959
     10 C           1.1172    5.5648   -1.9339 C.ar    1  LIG1       -0.0608
     11 C           2.7225    6.7500   -0.5716 C.ar    1  LIG1       -0.0580
     12 C           0.9619    4.7035    4.9681 C.ar    1  LIG1       -0.0857
     13 C           2.9225    3.8263    5.8562 C.ar    1  LIG1       -0.0434
     14 C           0.5650    2.9435   -0.3308 C.ar    1  LIG1       -0.0810
     15 C           1.6896    5.8196   -0.6876 C.ar    1  LIG1       -0.0260
     16 C           1.6471    4.3625    3.8226 C.ar    1  LIG1        0.0083
     17 C           1.2487    4.5136    2.4692 C.2     1  LIG1        0.0196
     18 C           0.0112    3.8501    1.9258 C.3     1  LIG1        0.0341
     19 C           0.1644    4.1601    0.4332 C.3     1  LIG1        0.0236
     20 N           1.8923    5.2478    1.6148 N.2     1  LIG1       -0.3136
     21 N           1.2378    5.1562    0.4226 N.pl3   1  LIG1       -0.3194
     22 S           3.1745    3.6708    4.1696 S.2     1  LIG1       -0.1140
     23 H           1.6046   -0.2181   -2.3173 H       1  LIG1        0.1169
     24 H           2.9687    7.6968   -3.8282 H       1  LIG1        0.1053
     25 H           3.3417    1.2778   -1.3688 H       1  LIG1        0.1174
     26 H          -0.7983    0.3102   -1.9943 H       1  LIG1        0.1162
     27 H           1.1321    6.0421   -4.0342 H       1  LIG1        0.1224
     28 H           3.9869    8.1501   -1.6116 H       1  LIG1        0.1222
     29 H           1.3534    4.5749    7.1547 H       1  LIG1        0.1164
     30 H           2.6837    3.2960   -0.1003 H       1  LIG1        0.1197
     31 H          -1.4664    2.3258   -0.7275 H       1  LIG1        0.1171
     32 H           0.3119    4.8418   -2.0349 H       1  LIG1        0.1175
     33 H           3.1762    6.9566    0.3944 H       1  LIG1        0.1250
     34 H          -0.0225    5.1547    4.9669 H       1  LIG1        0.1297
     35 H           3.6784    3.4955    6.5544 H       1  LIG1        0.1695
     36 H          -0.0201    2.7851    2.1728 H       1  LIG1        0.1027
     37 H          -0.8640    4.3530    2.3511 H       1  LIG1        0.1023
     38 H          -0.7657    4.5625    0.0162 H       1  LIG1        0.1377
@<TRIPOS>BOND
     1     1     3   ar
     2     1     4   ar
     3     2     5   ar
     4     2     6   ar
     5     3     8   ar
     6     4     9   ar
     7     5    10   ar
     8     6    11   ar
     9     7    12   ar
    10     7    13   ar
    11     8    14   ar
    12     9    14   ar
    13    10    15   ar
    14    11    15   ar
    15    12    16   ar
    16    13    22   ar
    17    14    19    1
    18    15    21    1
    19    16    17    1
    20    16    22   ar
    21    17    18    1
    22    17    20    2
    23    18    19    1
    24    19    21    1
    25    20    21    1
    26     1    23    1
    27     2    24    1
    28     3    25    1
    29     4    26    1
    30     5    27    1
    31     6    28    1
    32     7    29    1
    33     8    30    1
    34     9    31    1
    35    10    32    1
    36    11    33    1
    37    12    34    1
    38    13    35    1
    39    18    36    1
    40    18    37    1
    41    19    38    1
