@<TRIPOS>MOLECULE
AK-968/11492055
 46 49 0 0 0
SMALL
USER_CHARGES

@<TRIPOS>ATOM
      1 C          -0.3817    1.7830   -0.5950 C.ar    1  LIG1       -0.0976
      2 C           1.9915    4.3108    6.1329 C.ar    1  LIG1       -0.1035
      3 C           0.5591    2.5728    0.0657 C.ar    1  LIG1       -0.0850
      4 C           3.1081    5.4809   -1.8253 C.ar    1  LIG1       -0.0469
      5 C           1.3318    6.6762   -0.7057 C.ar    1  LIG1       -0.0441
      6 C          -0.0002    1.0202   -1.6988 C.ar    1  LIG1       -0.0618
      7 C           2.9675    6.3125   -2.9363 C.ar    1  LIG1       -0.0437
      8 C           1.1912    7.5078   -1.8167 C.ar    1  LIG1       -0.0427
      9 C           2.7165    4.2405    4.9083 C.ar    1  LIG1       -0.0851
     10 C           0.6341    4.4198    5.9250 C.ar    1  LIG1       -0.0429
     11 C           1.8814    2.6002   -0.3775 C.ar    1  LIG1       -0.0302
     12 C           2.2902    5.6627   -0.7100 C.ar    1  LIG1       -0.0184
     13 C           1.3221    1.0475   -2.1421 C.ar    1  LIG1        0.0294
     14 C           2.2629    1.8375   -1.4814 C.ar    1  LIG1        0.0398
     15 C           2.0091    7.3259   -2.9319 C.ar    1  LIG1        0.0576
     16 C           1.8855    4.2982    3.8110 C.ar    1  LIG1        0.0090
     17 C           2.2257    4.2572    2.4338 C.2     1  LIG1        0.0211
     18 C           2.9443    3.0816    1.8269 C.3     1  LIG1        0.0370
     19 C           2.8741    3.4520    0.3427 C.3     1  LIG1        0.0355
     20 C           0.6580   -0.4813   -3.8384 C.3     1  LIG1        0.0254
     21 C           4.4447    0.8993   -1.3569 C.3     1  LIG1        0.0179
     22 N           1.9750    5.2266    1.6089 N.2     1  LIG1       -0.3118
     23 N           2.4284    4.8459    0.3812 N.pl3   1  LIG1       -0.3159
     24 O           1.6811    0.2976   -3.2213 O.3     1  LIG1       -0.4091
     25 O           3.5546    1.8612   -1.9181 O.3     1  LIG1       -0.4160
     26 F           1.8740    8.1245   -3.9989 F       1  LIG1       -0.2801
     27 S           0.2385    4.4368    4.2590 S.2     1  LIG1       -0.1141
     28 H          -1.4113    1.7617   -0.2500 H       1  LIG1        0.1285
     29 H           2.4428    4.2841    7.1161 H       1  LIG1        0.1169
     30 H           0.2520    3.1635    0.9247 H       1  LIG1        0.1220
     31 H           3.8584    4.6945   -1.8392 H       1  LIG1        0.1326
     32 H           0.6891    6.8265    0.1578 H       1  LIG1        0.1407
     33 H          -0.7381    0.4070   -2.2090 H       1  LIG1        0.1190
     34 H           3.6041    6.1714   -3.8046 H       1  LIG1        0.1384
     35 H           0.4450    8.2968   -1.8140 H       1  LIG1        0.1378
     36 H           3.7936    4.1517    4.8415 H       1  LIG1        0.1309
     37 H          -0.1439    4.4912    6.6719 H       1  LIG1        0.1703
     38 H           3.9777    3.0844    2.1901 H       1  LIG1        0.1017
     39 H           2.4648    2.1339    2.0879 H       1  LIG1        0.1055
     40 H           3.8535    3.3525   -0.1373 H       1  LIG1        0.1492
     41 H           1.0776   -1.0301   -4.6851 H       1  LIG1        0.0900
     42 H          -0.1462    0.1758   -4.1789 H       1  LIG1        0.1230
     43 H           0.2617   -1.1904   -3.1077 H       1  LIG1        0.0889
     44 H           5.4401    1.0268   -1.7898 H       1  LIG1        0.0809
     45 H           4.0721   -0.1072   -1.5634 H       1  LIG1        0.0826
     46 H           4.4975    1.0518   -0.2765 H       1  LIG1        0.1173
@<TRIPOS>BOND
     1     1     3   ar
     2     1     6   ar
     3     2     9   ar
     4     2    10   ar
     5     3    11   ar
     6     4     7   ar
     7     4    12   ar
     8     5     8   ar
     9     5    12   ar
    10     6    13   ar
    11     7    15   ar
    12     8    15   ar
    13     9    16   ar
    14    10    27   ar
    15    11    14   ar
    16    11    19    1
    17    12    23    1
    18    13    14   ar
    19    13    24    1
    20    14    25    1
    21    15    26    1
    22    16    17    1
    23    16    27   ar
    24    17    18    1
    25    17    22    2
    26    18    19    1
    27    19    23    1
    28    20    24    1
    29    21    25    1
    30    22    23    1
    31     1    28    1
    32     2    29    1
    33     3    30    1
    34     4    31    1
    35     5    32    1
    36     6    33    1
    37     7    34    1
    38     8    35    1
    39     9    36    1
    40    10    37    1
    41    18    38    1
    42    18    39    1
    43    19    40    1
    44    20    41    1
    45    20    42    1
    46    20    43    1
    47    21    44    1
    48    21    45    1
    49    21    46    1
