@<TRIPOS>MOLECULE
AN-329/40887353
 41 43 0 0 0
SMALL
USER_CHARGES

@<TRIPOS>ATOM
      1 C           2.5967    7.4397   -2.2075 C.ar    1  LIG1       -0.1050
      2 C           0.7654    0.4957   -2.1219 C.ar    1  LIG1       -0.1060
      3 C           1.2505    7.0788   -2.2621 C.ar    1  LIG1       -0.1038
      4 C           3.4759    6.7320   -1.3878 C.ar    1  LIG1       -0.1020
      5 C           1.8733    1.3200   -2.3189 C.ar    1  LIG1       -0.1013
      6 C          -0.2140    0.8534   -1.1951 C.ar    1  LIG1       -0.1044
      7 C           0.7834    6.0101   -1.4970 C.ar    1  LIG1       -0.0965
      8 C           3.0088    5.6633   -0.6228 C.ar    1  LIG1       -0.0941
      9 C           2.0019    2.5018   -1.5892 C.ar    1  LIG1       -0.0921
     10 C          -0.0853    2.0352   -0.4654 C.ar    1  LIG1       -0.0957
     11 C           0.6737    4.3877    5.6528 C.ar    1  LIG1       -0.0601
     12 C           3.0817    4.5846    5.6676 C.ar    1  LIG1       -0.0470
     13 C           1.6625    5.3023   -0.6773 C.ar    1  LIG1       -0.0677
     14 C           1.0226    2.8593   -0.6624 C.ar    1  LIG1       -0.0655
     15 C           0.6621    4.6315    4.2794 C.ar    1  LIG1       -0.0489
     16 C           1.8604    4.8519    3.6002 C.ar    1  LIG1        0.0550
     17 C           1.8834    4.3642    6.3468 C.ar    1  LIG1       -0.0225
     18 C           3.0701    4.8284    4.2941 C.ar    1  LIG1        0.0206
     19 C           1.9247    3.9305    1.4598 C.2     1  LIG1        0.1971
     20 C          -0.6441    4.6523    3.5556 C.3     1  LIG1       -0.0261
     21 C           1.1637    4.1598    0.1413 C.3     1  LIG1        0.1056
     22 O           2.4890    2.8967    1.7956 O.2     1  LIG1       -0.4319
     23 O           1.8317    5.0950    2.2252 O.3     1  LIG1       -0.2883
     24 BR          1.8988    4.0340    8.2077 Br      1  LIG1       -0.0928
     25 BR          4.7191    5.1234    3.4061 Br      1  LIG1       -0.0785
     26 H           2.9606    8.2710   -2.8044 H       1  LIG1        0.1178
     27 H           0.6648   -0.4238   -2.6911 H       1  LIG1        0.1171
     28 H           0.5661    7.6291   -2.9011 H       1  LIG1        0.1150
     29 H           4.5243    7.0121   -1.3460 H       1  LIG1        0.1191
     30 H           2.6354    1.0423   -3.0411 H       1  LIG1        0.1168
     31 H          -1.0772    0.2125   -1.0423 H       1  LIG1        0.1168
     32 H          -0.2672    5.7362   -1.5458 H       1  LIG1        0.1173
     33 H           3.7010    5.1178    0.0131 H       1  LIG1        0.1242
     34 H           2.8686    3.1377   -1.7491 H       1  LIG1        0.1231
     35 H          -0.8532    2.3056    0.2546 H       1  LIG1        0.1214
     36 H          -0.2639    4.2166    6.1767 H       1  LIG1        0.1536
     37 H           4.0243    4.5659    6.2108 H       1  LIG1        0.1571
     38 H          -1.0599    5.6665    3.5515 H       1  LIG1        0.0647
     39 H          -0.5273    4.3181    2.5175 H       1  LIG1        0.0663
     40 H          -1.3698    3.9787    4.0282 H       1  LIG1        0.0627
     41 H           0.1438    4.4002    0.5102 H       1  LIG1        0.1590
@<TRIPOS>BOND
     1     1     3   ar
     2     1     4   ar
     3     2     5   ar
     4     2     6   ar
     5     3     7   ar
     6     4     8   ar
     7     5     9   ar
     8     6    10   ar
     9     7    13   ar
    10     8    13   ar
    11     9    14   ar
    12    10    14   ar
    13    11    15   ar
    14    11    17   ar
    15    12    17   ar
    16    12    18   ar
    17    13    21    1
    18    14    21    1
    19    15    16   ar
    20    15    20    1
    21    16    18   ar
    22    16    23    1
    23    17    24    1
    24    18    25    1
    25    19    21    1
    26    19    22    2
    27    19    23    1
    28     1    26    1
    29     2    27    1
    30     3    28    1
    31     4    29    1
    32     5    30    1
    33     6    31    1
    34     7    32    1
    35     8    33    1
    36     9    34    1
    37    10    35    1
    38    11    36    1
    39    12    37    1
    40    20    38    1
    41    20    39    1
    42    20    40    1
    43    21    41    1
