@<TRIPOS>MOLECULE
AK-968/11573005
 42 45 0 0 0
SMALL
USER_CHARGES

@<TRIPOS>ATOM
      1 C           1.0567    0.4560   -1.5457 C.ar    1  LIG1       -0.1053
      2 C           2.8732    7.4098   -2.0620 C.ar    1  LIG1       -0.1060
      3 C           2.1375    1.3373   -1.5730 C.ar    1  LIG1       -0.1034
      4 C          -0.1580    0.8589   -0.9907 C.ar    1  LIG1       -0.1025
      5 C           1.5964    7.0496   -2.4930 C.ar    1  LIG1       -0.1041
      6 C           3.4272    6.8003   -0.9362 C.ar    1  LIG1       -0.1040
      7 C           2.7857    3.4217    4.4709 C.ar    1  LIG1       -0.0542
      8 C           2.0036    2.6215   -1.0452 C.ar    1  LIG1       -0.0939
      9 C          -0.2918    2.1431   -0.4630 C.ar    1  LIG1       -0.0904
     10 C           0.8736    6.0800   -1.7980 C.ar    1  LIG1       -0.0943
     11 C           2.7043    5.8308   -0.2413 C.ar    1  LIG1       -0.0937
     12 C           2.5961    3.9437    5.7537 C.ar    1  LIG1       -0.0775
     13 C           0.8575    5.4610    4.9514 C.ar    1  LIG1       -0.0549
     14 C           2.0014    3.9378    3.4599 C.ar    1  LIG1        0.0579
     15 C           1.0621    4.9314    3.6938 C.ar    1  LIG1        0.0588
     16 C           0.7890    3.0245   -0.4903 C.ar    1  LIG1       -0.0662
     17 C           1.4274    5.4706   -0.6721 C.ar    1  LIG1       -0.0689
     18 C           1.6412    4.9534    5.9914 C.ar    1  LIG1       -0.0930
     19 C           1.9629    3.6039    2.0368 C.2     1  LIG1        0.1660
     20 C           0.4094    5.2470    2.4233 C.2     1  LIG1        0.1712
     21 C           1.4664    5.4865    7.3752 C.3     1  LIG1       -0.0341
     22 C           0.6432    4.4180    0.0829 C.3     1  LIG1        0.0541
     23 N           0.9983    4.4230    1.4880 N.am    1  LIG1       -0.2160
     24 O           2.6689    2.7626    1.5123 O.2     1  LIG1       -0.4263
     25 O          -0.4683    6.0805    2.2978 O.2     1  LIG1       -0.4159
     26 H           1.1606   -0.5434   -1.9579 H       1  LIG1        0.1173
     27 H           3.4364    8.1638   -2.6041 H       1  LIG1        0.1174
     28 H           3.0830    1.0242   -2.0060 H       1  LIG1        0.1170
     29 H          -1.0000    0.1734   -0.9703 H       1  LIG1        0.1184
     30 H           1.1654    7.5232   -3.3701 H       1  LIG1        0.1167
     31 H           4.4216    7.0798   -0.6012 H       1  LIG1        0.1191
     32 H           3.5195    2.6455    4.2884 H       1  LIG1        0.1539
     33 H           2.8512    3.3014   -1.0706 H       1  LIG1        0.1111
     34 H          -1.2419    2.4483   -0.0325 H       1  LIG1        0.1260
     35 H          -0.1207    5.8057   -2.1409 H       1  LIG1        0.1176
     36 H           3.1438    5.3613    0.6348 H       1  LIG1        0.1225
     37 H           3.1974    3.5612    6.5753 H       1  LIG1        0.1417
     38 H           0.1202    6.2368    5.1257 H       1  LIG1        0.1523
     39 H           2.1343    6.3399    7.5410 H       1  LIG1        0.0647
     40 H           0.4332    5.8128    7.5471 H       1  LIG1        0.0609
     41 H           1.6875    4.7185    8.1270 H       1  LIG1        0.0602
     42 H          -0.4163    4.7056    0.0668 H       1  LIG1        0.1792
@<TRIPOS>BOND
     1     1     3   ar
     2     1     4   ar
     3     2     5   ar
     4     2     6   ar
     5     3     8   ar
     6     4     9   ar
     7     5    10   ar
     8     6    11   ar
     9     7    12   ar
    10     7    14   ar
    11     8    16   ar
    12     9    16   ar
    13    10    17   ar
    14    11    17   ar
    15    12    18   ar
    16    13    15   ar
    17    13    18   ar
    18    14    15   ar
    19    14    19    1
    20    15    20    1
    21    16    22    1
    22    17    22    1
    23    18    21    1
    24    19    23   am
    25    19    24    2
    26    20    23   am
    27    20    25    2
    28    22    23    1
    29     1    26    1
    30     2    27    1
    31     3    28    1
    32     4    29    1
    33     5    30    1
    34     6    31    1
    35     7    32    1
    36     8    33    1
    37     9    34    1
    38    10    35    1
    39    11    36    1
    40    12    37    1
    41    13    38    1
    42    21    39    1
    43    21    40    1
    44    21    41    1
    45    22    42    1
