@<TRIPOS>MOLECULE
AN-651/14405045
 45 48 0 0 0
SMALL
USER_CHARGES

@<TRIPOS>ATOM
      1 C           1.3895    4.5019    6.5225 C.ar    1  LIG1       -0.1072
      2 C           1.8643    7.4773   -2.8950 C.ar    1  LIG1       -0.1017
      3 C           2.6869    4.8811    6.1785 C.ar    1  LIG1       -0.1044
      4 C           0.5495    3.9386    5.5617 C.ar    1  LIG1       -0.1008
      5 C           1.1978    7.5549   -1.6721 C.ar    1  LIG1       -0.0920
      6 C           2.8355    6.4971   -3.0989 C.ar    1  LIG1       -0.0955
      7 C           3.1445    4.6972    4.8737 C.ar    1  LIG1       -0.0925
      8 C           1.0072    3.7547    4.2569 C.ar    1  LIG1       -0.0877
      9 C           2.2013    1.4748   -1.5790 C.ar    1  LIG1       -0.0799
     10 C           0.6942    2.7350   -0.1728 C.ar    1  LIG1       -0.0767
     11 C           1.5026    6.6524   -0.6532 C.ar    1  LIG1       -0.0623
     12 C           3.1403    5.5946   -2.0801 C.ar    1  LIG1       -0.0665
     13 C           1.1334    0.6971   -2.0266 C.ar    1  LIG1       -0.0687
     14 C          -0.3738    1.9573   -0.6205 C.ar    1  LIG1       -0.0671
     15 C           2.3046    4.1340    3.9129 C.ar    1  LIG1       -0.0636
     16 C           1.9817    2.4937   -0.6520 C.ar    1  LIG1       -0.0382
     17 C           2.4738    5.6722   -0.8572 C.ar    1  LIG1       -0.0319
     18 C          -0.1541    0.9384   -1.5474 C.ar    1  LIG1       -0.0114
     19 C           2.7872    3.9398    2.5353 C.2     1  LIG1        0.0570
     20 C           3.3988    2.8106    2.1401 C.2     1  LIG1        0.0232
     21 C           2.6725    5.0733    1.5629 C.2     1  LIG1        0.1338
     22 C           3.1452    3.3427   -0.1650 C.3     1  LIG1        0.1063
     23 C           3.6691    1.6102    3.0011 C.3     1  LIG1        0.0102
     24 N           2.7923    4.7285    0.2084 N.am    1  LIG1       -0.2792
     25 O           2.5000    6.2030    2.0195 O.2     1  LIG1       -0.4566
     26 O           3.8590    2.6322    0.8590 O.2     1  LIG1       -0.3614
     27 CL         -1.4714   -0.0208   -2.1000 Cl      1  LIG1       -0.1365
     28 H           1.0336    4.6438    7.5387 H       1  LIG1        0.1150
     29 H           1.6266    8.1794   -3.6889 H       1  LIG1        0.1200
     30 H           3.3414    5.3186    6.9268 H       1  LIG1        0.1154
     31 H          -0.4603    3.6422    5.8297 H       1  LIG1        0.1169
     32 H           0.4409    8.3173   -1.5133 H       1  LIG1        0.1233
     33 H           3.3537    6.4364   -4.0516 H       1  LIG1        0.1230
     34 H           4.1585    4.9980    4.6207 H       1  LIG1        0.1182
     35 H           0.3405    3.3144    3.5193 H       1  LIG1        0.1248
     36 H           3.2016    1.2804   -1.9570 H       1  LIG1        0.1305
     37 H           0.5146    3.5272    0.5494 H       1  LIG1        0.1410
     38 H           0.9764    6.7224    0.2956 H       1  LIG1        0.1308
     39 H           3.8991    4.8349   -2.2504 H       1  LIG1        0.1278
     40 H           1.3196   -0.0931   -2.7493 H       1  LIG1        0.1351
     41 H          -1.3716    2.1568   -0.2382 H       1  LIG1        0.1375
     42 H           3.8561    3.3992   -1.0269 H       1  LIG1        0.2359
     43 H           2.8277    0.9248    2.9392 H       1  LIG1        0.0869
     44 H           3.8073    1.9281    4.0316 H       1  LIG1        0.0815
     45 H           4.5724    1.1137    2.6551 H       1  LIG1        0.0878
@<TRIPOS>BOND
     1     1     3   ar
     2     1     4   ar
     3     2     5   ar
     4     2     6   ar
     5     3     7   ar
     6     4     8   ar
     7     5    11   ar
     8     6    12   ar
     9     7    15   ar
    10     8    15   ar
    11     9    13   ar
    12     9    16   ar
    13    10    14   ar
    14    10    16   ar
    15    11    17   ar
    16    12    17   ar
    17    13    18   ar
    18    14    18   ar
    19    15    19    1
    20    16    22    1
    21    17    24    1
    22    18    27    1
    23    19    20    2
    24    19    21    1
    25    20    23    1
    26    20    26    1
    27    21    24   am
    28    21    25    2
    29    22    24    1
    30    22    26    1
    31     1    28    1
    32     2    29    1
    33     3    30    1
    34     4    31    1
    35     5    32    1
    36     6    33    1
    37     7    34    1
    38     8    35    1
    39     9    36    1
    40    10    37    1
    41    11    38    1
    42    12    39    1
    43    13    40    1
    44    14    41    1
    45    22    42    1
    46    23    43    1
    47    23    44    1
    48    23    45    1
