@<TRIPOS>MOLECULE
AB-321/14627010
 40 43 0 0 0
SMALL
USER_CHARGES

@<TRIPOS>ATOM
      1 C           0.2283    1.1063   -1.9449 C.ar    1  LIG1       -0.0978
      2 C           1.9671    7.4979   -2.5177 C.ar    1  LIG1       -0.1014
      3 C           1.2274    0.5715   -1.1318 C.ar    1  LIG1       -0.0936
      4 C          -0.3145    2.3574   -1.6515 C.ar    1  LIG1       -0.0960
      5 C           1.9440    4.9639    6.1932 C.ar    1  LIG1       -0.0906
      6 C           3.0619    6.7179   -2.8900 C.ar    1  LIG1       -0.0982
      7 C           1.3267    7.2653   -1.3006 C.ar    1  LIG1       -0.0966
      8 C           0.8926    4.0481    6.1668 C.ar    1  LIG1       -0.0899
      9 C           1.6837    1.2875   -0.0251 C.ar    1  LIG1       -0.0777
     10 C           0.1418    3.0733   -0.5448 C.ar    1  LIG1       -0.0806
     11 C           2.6599    5.2417    5.0292 C.ar    1  LIG1       -0.0658
     12 C           3.5162    5.7052   -2.0452 C.ar    1  LIG1       -0.0788
     13 C           1.7810    6.2527   -0.4558 C.ar    1  LIG1       -0.0757
     14 C           0.5524    3.4050    4.9756 C.ar    1  LIG1       -0.0626
     15 C           1.1410    2.5385    0.2685 C.ar    1  LIG1       -0.0355
     16 C           2.3169    4.5961    3.8378 C.ar    1  LIG1        0.0303
     17 C           2.8759    5.4727   -0.8280 C.ar    1  LIG1        0.0044
     18 C           1.2617    3.6736    3.8001 C.ar    1  LIG1       -0.0326
     19 C           1.6177    3.2878    1.4259 C.ar    1  LIG1       -0.0016
     20 C           3.0660    4.8773    2.5877 C.ar    1  LIG1        0.1105
     21 C           2.6509    4.1546    1.3386 C.ar    1  LIG1        0.1132
     22 C           3.3588    4.3962    0.0698 C.2     1  LIG1        0.1210
     23 N           0.9350    3.0398    2.5980 N.ar    1  LIG1       -0.3363
     24 O           3.9950    5.6767    2.5825 O.2     1  LIG1       -0.4669
     25 O           4.3202    3.7021   -0.2440 O.2     1  LIG1       -0.4423
     26 H          -0.1261    0.5495   -2.8073 H       1  LIG1        0.1271
     27 H           1.6133    8.2863   -3.1756 H       1  LIG1        0.1251
     28 H           1.6511   -0.4021   -1.3608 H       1  LIG1        0.1262
     29 H          -1.0916    2.7745   -2.2852 H       1  LIG1        0.1247
     30 H           2.2051    5.4624    7.1225 H       1  LIG1        0.1217
     31 H           3.5602    6.8990   -3.8379 H       1  LIG1        0.1187
     32 H           0.4744    7.8728   -1.0106 H       1  LIG1        0.1202
     33 H           0.3371    3.8347    7.0754 H       1  LIG1        0.1380
     34 H           2.4631    0.8573    0.5995 H       1  LIG1        0.1313
     35 H          -0.2913    4.0473   -0.3290 H       1  LIG1        0.1274
     36 H           3.4754    5.9583    5.0702 H       1  LIG1        0.1500
     37 H           4.3702    5.1034   -2.3452 H       1  LIG1        0.1276
     38 H           1.2743    6.0803    0.4903 H       1  LIG1        0.1371
     39 H          -0.2703    2.6941    4.9717 H       1  LIG1        0.1280
     40 H           0.1710    2.3759    2.5846 H       1  LIG1        0.3377
@<TRIPOS>BOND
     1     1     3   ar
     2     1     4   ar
     3     2     6   ar
     4     2     7   ar
     5     3     9   ar
     6     4    10   ar
     7     5     8   ar
     8     5    11   ar
     9     6    12   ar
    10     7    13   ar
    11     8    14   ar
    12     9    15   ar
    13    10    15   ar
    14    11    16   ar
    15    12    17   ar
    16    13    17   ar
    17    14    18   ar
    18    15    19    1
    19    16    18   ar
    20    16    20   ar
    21    17    22    1
    22    18    23   ar
    23    19    21   ar
    24    19    23   ar
    25    20    21   ar
    26    20    24    2
    27    21    22    1
    28    22    25    2
    29     1    26    1
    30     2    27    1
    31     3    28    1
    32     4    29    1
    33     5    30    1
    34     6    31    1
    35     7    32    1
    36     8    33    1
    37     9    34    1
    38    10    35    1
    39    11    36    1
    40    12    37    1
    41    13    38    1
    42    14    39    1
    43    23    40    1
