@<TRIPOS>MOLECULE
AE-848/33203004
 45 48 0 0 0
SMALL
USER_CHARGES

@<TRIPOS>ATOM
      1 C           0.0665    0.6820   -1.9045 C.ar    1  LIG1       -0.1095
      2 C           1.3858    0.3690   -1.5768 C.ar    1  LIG1       -0.1061
      3 C          -0.4310    1.9600   -1.6495 C.ar    1  LIG1       -0.1077
      4 C           2.2996    6.6366   -2.4891 C.ar    1  LIG1       -0.1018
      5 C           1.8679    7.6422   -1.6263 C.ar    1  LIG1       -0.0945
      6 C           3.1026    4.3540    4.3745 C.ar    1  LIG1       -0.0691
      7 C           0.7438    4.8490    4.2066 C.ar    1  LIG1       -0.0799
      8 C           2.2074    1.3337   -0.9941 C.ar    1  LIG1       -0.0984
      9 C           0.3907    2.9248   -1.0667 C.ar    1  LIG1       -0.0998
     10 C           2.5443    5.3524   -2.0003 C.ar    1  LIG1       -0.0934
     11 C           1.6860    7.3680   -0.2722 C.ar    1  LIG1       -0.0541
     12 C           2.9941    4.3087    5.7644 C.ar    1  LIG1       -0.0523
     13 C           0.6353    4.8037    5.5965 C.ar    1  LIG1       -0.0656
     14 C           1.9774    4.6243    3.5955 C.ar    1  LIG1       -0.0376
     15 C           1.7099    2.6117   -0.7391 C.ar    1  LIG1       -0.0947
     16 C           2.3538    5.0596   -0.6415 C.ar    1  LIG1       -0.0542
     17 C           1.9341    6.0837    0.2173 C.ar    1  LIG1        0.0196
     18 C           1.7605    4.5335    6.3753 C.ar    1  LIG1       -0.0117
     19 C           2.5039    3.6173    1.4008 C.2     1  LIG1       -0.0698
     20 C           2.0922    4.6722    2.1255 C.2     1  LIG1        0.0158
     21 C           2.6062    3.6653   -0.1028 C.3     1  LIG1       -0.0069
     22 C           3.1830    6.2881    8.1353 C.3     1  LIG1       -0.0346
     23 C           2.8067    4.8642    8.4853 C.3     1  LIG1        0.0141
     24 O           1.7510    5.8963    1.5682 O.3     1  LIG1       -0.3604
     25 O           1.6546    4.4893    7.7316 O.3     1  LIG1       -0.4168
     26 H          -0.5727   -0.0691   -2.3594 H       1  LIG1        0.1127
     27 H           1.7736   -0.6258   -1.7763 H       1  LIG1        0.1139
     28 H          -1.4576    2.2043   -1.9055 H       1  LIG1        0.1142
     29 H           2.4465    6.8523   -3.5433 H       1  LIG1        0.1156
     30 H           1.6764    8.6407   -2.0086 H       1  LIG1        0.1295
     31 H           4.0710    4.1766    3.9128 H       1  LIG1        0.1452
     32 H          -0.1423    5.0609    3.6129 H       1  LIG1        0.1373
     33 H           3.2339    1.0808   -0.7420 H       1  LIG1        0.1150
     34 H          -0.0056    3.9178   -0.8716 H       1  LIG1        0.1169
     35 H           2.8836    4.5810   -2.6871 H       1  LIG1        0.1274
     36 H           1.3575    8.1593    0.3962 H       1  LIG1        0.1320
     37 H           3.8742    4.0978    6.3659 H       1  LIG1        0.1312
     38 H          -0.3283    4.9797    6.0667 H       1  LIG1        0.1150
     39 H           2.7726    2.6853    1.8938 H       1  LIG1        0.1109
     40 H           3.6534    3.3968   -0.3625 H       1  LIG1        0.1078
     41 H           3.4176    6.3792    7.0710 H       1  LIG1        0.0483
     42 H           2.3648    6.9743    8.3770 H       1  LIG1        0.0574
     43 H           4.0522    6.6117    8.7174 H       1  LIG1        0.0483
     44 H           2.5733    4.7799    9.5510 H       1  LIG1        0.0953
     45 H           3.6249    4.1798    8.2424 H       1  LIG1        0.0952
@<TRIPOS>BOND
     1     1     2   ar
     2     1     3   ar
     3     2     8   ar
     4     3     9   ar
     5     4     5   ar
     6     4    10   ar
     7     5    11   ar
     8     6    12   ar
     9     6    14   ar
    10     7    13   ar
    11     7    14   ar
    12     8    15   ar
    13     9    15   ar
    14    10    16   ar
    15    11    17   ar
    16    12    18   ar
    17    13    18   ar
    18    14    20    1
    19    15    21    1
    20    16    17   ar
    21    16    21    1
    22    17    24    1
    23    18    25    1
    24    19    20    2
    25    19    21    1
    26    20    24    1
    27    22    23    1
    28    23    25    1
    29     1    26    1
    30     2    27    1
    31     3    28    1
    32     4    29    1
    33     5    30    1
    34     6    31    1
    35     7    32    1
    36     8    33    1
    37     9    34    1
    38    10    35    1
    39    11    36    1
    40    12    37    1
    41    13    38    1
    42    19    39    1
    43    21    40    1
    44    22    41    1
    45    22    42    1
    46    22    43    1
    47    23    44    1
    48    23    45    1
