@<TRIPOS>MOLECULE
AB-131/42302838
 51 54 0 0 0
SMALL
USER_CHARGES

@<TRIPOS>ATOM
      1 C           4.8442    2.8571    7.0820 C.ar    1  LIG1       -0.1114
      2 C           1.9879    7.5749   -2.3147 C.ar    1  LIG1       -0.1112
      3 C           0.2264    0.7147   -1.7984 C.ar    1  LIG1       -0.1170
      4 C           3.6097    3.4882    7.2344 C.ar    1  LIG1       -0.1090
      5 C           5.2273    2.3663    5.8337 C.ar    1  LIG1       -0.1090
      6 C           1.0818    7.2936   -1.2923 C.ar    1  LIG1       -0.1076
      7 C           3.0365    6.6939   -2.5793 C.ar    1  LIG1       -0.1086
      8 C          -0.4434    1.8671   -1.3874 C.ar    1  LIG1       -0.1136
      9 C           1.6054    0.6076   -1.6178 C.ar    1  LIG1       -0.1127
     10 C           2.7581    3.6283    6.1386 C.ar    1  LIG1       -0.0998
     11 C           4.3757    2.5065    4.7379 C.ar    1  LIG1       -0.1035
     12 C           1.2241    6.1312   -0.5344 C.ar    1  LIG1       -0.0934
     13 C           3.1789    5.5315   -1.8214 C.ar    1  LIG1       -0.0963
     14 C           0.2657    2.9125   -0.7959 C.ar    1  LIG1       -0.0897
     15 C           2.3146    1.6530   -1.0263 C.ar    1  LIG1       -0.1018
     16 C           3.1411    3.1375    4.8903 C.ar    1  LIG1       -0.1283
     17 C           2.2727    5.2501   -0.7990 C.ar    1  LIG1       -0.0720
     18 C           1.6448    2.8054   -0.6153 C.ar    1  LIG1       -0.0759
     19 C           2.6026    5.5808    2.0677 C.3     1  LIG1       -0.0829
     20 C           3.7654    4.7664    2.6562 C.3     1  LIG1       -0.1754
     21 C           2.1080    4.2462    1.4885 C.3     1  LIG1       -0.1311
     22 C           1.2640    2.1060    3.5471 C.3     1  LIG1       -0.0733
     23 C           2.2309    3.2869    3.7182 C.3     1  LIG1       -0.1664
     24 C           2.4311    3.9633    0.0398 C.3     1  LIG1       -0.0077
     25 N           2.9631    3.5032    2.4818 N.3     1  LIG1        0.3554
     26 O           3.8218    3.5602    0.0314 O.3     1  LIG1       -0.4719
     27 H           5.5078    2.7492    7.9350 H       1  LIG1        0.1112
     28 H           1.8761    8.4793   -2.9056 H       1  LIG1        0.1113
     29 H          -0.3261   -0.0997   -2.2578 H       1  LIG1        0.1086
     30 H           3.3117    3.8713    8.2060 H       1  LIG1        0.1120
     31 H           6.1888    1.8760    5.7145 H       1  LIG1        0.1124
     32 H           0.2646    7.9789   -1.0868 H       1  LIG1        0.1121
     33 H           3.7416    6.9121   -3.3759 H       1  LIG1        0.1122
     34 H          -1.5173    1.9503   -1.5270 H       1  LIG1        0.1059
     35 H           2.1271   -0.2899   -1.9366 H       1  LIG1        0.1069
     36 H           1.7980    4.1213    6.2667 H       1  LIG1        0.1321
     37 H           4.6825    2.1209    3.7692 H       1  LIG1        0.1129
     38 H           0.5135    5.9202    0.2603 H       1  LIG1        0.1270
     39 H           3.9991    4.8510   -2.0346 H       1  LIG1        0.1182
     40 H          -0.2645    3.8067   -0.4789 H       1  LIG1        0.1785
     41 H           3.3888    1.5608   -0.8896 H       1  LIG1        0.1119
     42 H           1.9433    6.0625    2.7943 H       1  LIG1        0.0593
     43 H           2.9129    6.3206    1.3206 H       1  LIG1        0.0845
     44 H           4.7129    4.8211    2.1094 H       1  LIG1        0.0319
     45 H           3.9677    4.9906    3.7109 H       1  LIG1        0.0430
     46 H           1.0384    4.0820    1.6787 H       1  LIG1        0.0922
     47 H           1.8166    1.1675    3.4289 H       1  LIG1        0.0336
     48 H           0.6036    2.0039    4.4156 H       1  LIG1        0.0266
     49 H           0.6221    2.2332    2.6680 H       1  LIG1        0.0749
     50 H           1.6090    4.1925    3.8310 H       1  LIG1        0.0485
     51 H           4.3024    4.2996    0.4194 H       1  LIG1        0.3467
@<TRIPOS>BOND
     1     1     4   ar
     2     1     5   ar
     3     2     6   ar
     4     2     7   ar
     5     3     8   ar
     6     3     9   ar
     7     4    10   ar
     8     5    11   ar
     9     6    12   ar
    10     7    13   ar
    11     8    14   ar
    12     9    15   ar
    13    10    16   ar
    14    11    16   ar
    15    12    17   ar
    16    13    17   ar
    17    14    18   ar
    18    15    18   ar
    19    16    23    1
    20    17    24    1
    21    18    24    1
    22    19    20    1
    23    19    21    1
    24    20    25    1
    25    21    24    1
    26    21    25    1
    27    22    23    1
    28    23    25    1
    29    24    26    1
    30     1    27    1
    31     2    28    1
    32     3    29    1
    33     4    30    1
    34     5    31    1
    35     6    32    1
    36     7    33    1
    37     8    34    1
    38     9    35    1
    39    10    36    1
    40    11    37    1
    41    12    38    1
    42    13    39    1
    43    14    40    1
    44    15    41    1
    45    19    42    1
    46    19    43    1
    47    20    44    1
    48    20    45    1
    49    21    46    1
    50    22    47    1
    51    22    48    1
    52    22    49    1
    53    23    50    1
    54    26    51    1
