@<TRIPOS>MOLECULE
AG-536/31403018
 45 47 0 0 0
SMALL
USER_CHARGES

@<TRIPOS>ATOM
      1 C           1.2328    4.3691    6.2633 C.ar    1  LIG1       -0.0949
      2 C           1.4798    7.3039   -2.0940 C.ar    1  LIG1       -0.0929
      3 C          -0.3317    1.2580   -1.6863 C.ar    1  LIG1       -0.1001
      4 C           0.6357    5.1697    5.2896 C.ar    1  LIG1       -0.0971
      5 C           2.4641    3.7647    6.0103 C.ar    1  LIG1       -0.0970
      6 C           2.8595    7.1285   -2.1992 C.ar    1  LIG1       -0.1004
      7 C           0.7316    6.4682   -1.2648 C.ar    1  LIG1       -0.0911
      8 C           0.2254    0.9357   -0.4489 C.ar    1  LIG1       -0.1003
      9 C           0.3617    2.0862   -2.5690 C.ar    1  LIG1       -0.1007
     10 C           1.2699    5.3656    4.0628 C.ar    1  LIG1       -0.1073
     11 C           3.0984    3.9606    4.7835 C.ar    1  LIG1       -0.1070
     12 C           3.4912    6.1173   -1.4752 C.ar    1  LIG1       -0.1123
     13 C           1.3632    5.4570   -0.5408 C.ar    1  LIG1       -0.0985
     14 C           1.4759    1.4417   -0.0939 C.ar    1  LIG1       -0.1005
     15 C           1.6121    2.5923   -2.2140 C.ar    1  LIG1       -0.1003
     16 C           2.5012    4.7611    3.8097 C.ar    1  LIG1       -0.1330
     17 C           2.7430    5.2815   -0.6460 C.ar    1  LIG1       -0.1266
     18 C           2.1692    2.2700   -0.9764 C.ar    1  LIG1       -0.0885
     19 C           3.1798    4.9699    2.4981 C.3     1  LIG1       -0.0870
     20 C           3.4289    4.1819    0.1410 C.3     1  LIG1       -0.0699
     21 C           3.5296    2.8211   -0.5909 C.3     1  LIG1       -0.0075
     22 N           2.8067    3.9576    1.4719 N.4     1  LIG1        0.4336
     23 O           4.2516    1.8575    0.1742 O.3     1  LIG1       -0.4731
     24 H           0.7394    4.2178    7.2190 H       1  LIG1        0.1341
     25 H           0.9883    8.0922   -2.6567 H       1  LIG1        0.1341
     26 H          -1.3048    0.8629   -1.9631 H       1  LIG1        0.1258
     27 H          -0.3226    5.6413    5.4866 H       1  LIG1        0.1279
     28 H           2.9299    3.1422    6.7687 H       1  LIG1        0.1283
     29 H           3.4424    7.7797   -2.8439 H       1  LIG1        0.1308
     30 H          -0.3425    6.6053   -1.1818 H       1  LIG1        0.1325
     31 H          -0.3138    0.2900    0.2381 H       1  LIG1        0.1218
     32 H          -0.0712    2.3365   -3.5330 H       1  LIG1        0.1232
     33 H           0.7971    5.9907    3.3098 H       1  LIG1        0.1249
     34 H           4.0575    3.4855    4.5953 H       1  LIG1        0.1260
     35 H           4.5666    5.9877   -1.5635 H       1  LIG1        0.1117
     36 H           0.7722    4.8106    0.1026 H       1  LIG1        0.1326
     37 H           1.9021    1.1854    0.8725 H       1  LIG1        0.1165
     38 H           2.1450    3.2369   -2.9079 H       1  LIG1        0.1216
     39 H           2.9346    5.9502    2.0670 H       1  LIG1        0.1070
     40 H           4.2730    4.9209    2.5960 H       1  LIG1        0.1080
     41 H           4.4430    4.5189    0.3921 H       1  LIG1        0.1268
     42 H           4.1014    2.9504   -1.5198 H       1  LIG1        0.1616
     43 H           3.0662    3.0228    1.8135 H       1  LIG1        0.1593
     44 H           1.7833    3.9458    1.3696 H       1  LIG1        0.1620
     45 H           4.3474    1.0747   -0.3896 H       1  LIG1        0.3358
@<TRIPOS>BOND
     1     1     4   ar
     2     1     5   ar
     3     2     6   ar
     4     2     7   ar
     5     3     8   ar
     6     3     9   ar
     7     4    10   ar
     8     5    11   ar
     9     6    12   ar
    10     7    13   ar
    11     8    14   ar
    12     9    15   ar
    13    10    16   ar
    14    11    16   ar
    15    12    17   ar
    16    13    17   ar
    17    14    18   ar
    18    15    18   ar
    19    16    19    1
    20    17    20    1
    21    18    21    1
    22    19    22    1
    23    20    21    1
    24    20    22    1
    25    21    23    1
    26     1    24    1
    27     2    25    1
    28     3    26    1
    29     4    27    1
    30     5    28    1
    31     6    29    1
    32     7    30    1
    33     8    31    1
    34     9    32    1
    35    10    33    1
    36    11    34    1
    37    12    35    1
    38    13    36    1
    39    14    37    1
    40    15    38    1
    41    19    39    1
    42    19    40    1
    43    20    41    1
    44    21    42    1
    45    22    43    1
    46    22    44    1
    47    23    45    1
