@<TRIPOS>MOLECULE
AK-968/15611102
 43 45 0 0 0
SMALL
USER_CHARGES

@<TRIPOS>ATOM
      1 C           1.0353    0.8125   -2.3755 C.ar    1  LIG1       -0.1075
      2 C           2.3049    7.1864   -2.3859 C.ar    1  LIG1       -0.1131
      3 C          -0.2314    1.1669   -1.9115 C.ar    1  LIG1       -0.1059
      4 C           2.1734    1.3618   -1.7848 C.ar    1  LIG1       -0.1059
      5 C           3.4012    6.7763   -1.6274 C.ar    1  LIG1       -0.1070
      6 C           1.0253    6.7341   -2.0636 C.ar    1  LIG1       -0.1056
      7 C          -0.3602    2.0709   -0.8570 C.ar    1  LIG1       -0.0998
      8 C           2.0446    2.2657   -0.7304 C.ar    1  LIG1       -0.0998
      9 C           3.2181    5.9136   -0.5468 C.ar    1  LIG1       -0.0764
     10 C           0.8422    5.8714   -0.9829 C.ar    1  LIG1       -0.0666
     11 C           2.4869    5.0249    5.9783 C.ar    1  LIG1       -0.0038
     12 C           0.7822    5.0568    4.5899 C.ar    1  LIG1       -0.0306
     13 C           1.9627    4.3980    4.8320 C.ar    1  LIG1       -0.0292
     14 C           0.7778    2.6203   -0.2664 C.ar    1  LIG1       -0.0868
     15 C           1.9385    5.4611   -0.2245 C.ar    1  LIG1       -0.0452
     16 C           2.5223    3.2864    4.0436 C.2     1  LIG1       -0.0619
     17 C           2.8397    3.3597    2.7427 C.2     1  LIG1        0.0116
     18 C           2.6281    4.6388    1.9993 C.2     1  LIG1        0.1163
     19 C          -0.4046    6.9446    5.7338 C.3     1  LIG1        0.0104
     20 C           0.6400    3.5935    0.8685 C.3     1  LIG1        0.0171
     21 N           1.7036    6.0067    6.4328 N.ar    1  LIG1       -0.3440
     22 N           0.6753    6.0018    5.5676 N.ar    1  LIG1       -0.3364
     23 N           1.7481    4.5629    0.9009 N.am    1  LIG1       -0.3091
     24 O           3.2093    5.6532    2.3849 O.2     1  LIG1       -0.4650
     25 H           1.1355    0.1076   -3.1957 H       1  LIG1        0.1156
     26 H           2.4470    7.8589   -3.2269 H       1  LIG1        0.1047
     27 H          -1.1176    0.7385   -2.3706 H       1  LIG1        0.1156
     28 H           3.1598    1.0851   -2.1450 H       1  LIG1        0.1153
     29 H           4.3975    7.1290   -1.8774 H       1  LIG1        0.1166
     30 H           0.1716    7.0545   -2.6539 H       1  LIG1        0.1158
     31 H          -1.3512    2.3415   -0.5023 H       1  LIG1        0.1205
     32 H           2.9368    2.6888   -0.2764 H       1  LIG1        0.1201
     33 H           4.0800    5.6007    0.0374 H       1  LIG1        0.1160
     34 H          -0.1597    5.5253   -0.7411 H       1  LIG1        0.1602
     35 H           3.4063    4.8113    6.5055 H       1  LIG1        0.2241
     36 H           0.0250    4.9388    3.8259 H       1  LIG1        0.2099
     37 H           2.6843    2.3623    4.5939 H       1  LIG1        0.1623
     38 H           3.2033    2.5034    2.1862 H       1  LIG1        0.1270
     39 H          -1.1591    6.4834    6.3765 H       1  LIG1        0.1118
     40 H          -0.0210    7.8608    6.1914 H       1  LIG1        0.1202
     41 H          -0.8293    7.1839    4.7548 H       1  LIG1        0.1222
     42 H          -0.2969    4.1550    0.7839 H       1  LIG1        0.1318
     43 H           0.6217    3.0735    1.8321 H       1  LIG1        0.1348
@<TRIPOS>BOND
     1     1     3   ar
     2     1     4   ar
     3     2     5   ar
     4     2     6   ar
     5     3     7   ar
     6     4     8   ar
     7     5     9   ar
     8     6    10   ar
     9     7    14   ar
    10     8    14   ar
    11     9    15   ar
    12    10    15   ar
    13    11    13   ar
    14    11    21   ar
    15    12    13   ar
    16    12    22   ar
    17    13    16    1
    18    14    20    1
    19    15    23    1
    20    16    17    2
    21    17    18    1
    22    18    23   am
    23    18    24    2
    24    19    22    1
    25    20    23    1
    26    21    22   ar
    27     1    25    1
    28     2    26    1
    29     3    27    1
    30     4    28    1
    31     5    29    1
    32     6    30    1
    33     7    31    1
    34     8    32    1
    35     9    33    1
    36    10    34    1
    37    11    35    1
    38    12    36    1
    39    16    37    1
    40    17    38    1
    41    19    39    1
    42    19    40    1
    43    19    41    1
    44    20    42    1
    45    20    43    1
