@<TRIPOS>MOLECULE
AG-205/33133029
 41 44 0 0 0
SMALL
USER_CHARGES

@<TRIPOS>ATOM
      1 C           0.2803    0.8260   -2.4767 C.ar    1  LIG1       -0.1088
      2 C           1.0230    7.0782   -0.8853 C.ar    1  LIG1       -0.0950
      3 C           1.6504    0.7259   -2.2352 C.ar    1  LIG1       -0.0992
      4 C          -0.4961    1.7144   -1.7327 C.ar    1  LIG1       -0.1007
      5 C           1.6381    7.4320   -2.0861 C.ar    1  LIG1       -0.0939
      6 C           3.0764    4.0302    4.7584 C.ar    1  LIG1       -0.0656
      7 C           0.9092    4.9555    4.2253 C.ar    1  LIG1       -0.0634
      8 C           1.5156    6.0085   -0.1378 C.ar    1  LIG1       -0.0844
      9 C           2.2442    1.5142   -1.2494 C.ar    1  LIG1       -0.0581
     10 C           0.0977    2.5027   -0.7470 C.ar    1  LIG1       -0.0618
     11 C           2.7458    6.7157   -2.5397 C.ar    1  LIG1       -0.0728
     12 C           2.8757    4.3354    6.1045 C.ar    1  LIG1       -0.0659
     13 C           0.7084    5.2606    5.5715 C.ar    1  LIG1       -0.0647
     14 C           2.0932    4.3403    3.8187 C.ar    1  LIG1       -0.0294
     15 C           2.6233    5.2923   -0.5913 C.ar    1  LIG1       -0.0518
     16 C           1.4679    2.4027   -0.5053 C.ar    1  LIG1       -0.0274
     17 C           1.6916    4.9506    6.5111 C.ar    1  LIG1       -0.0132
     18 C           3.2384    5.6459   -1.7923 C.ar    1  LIG1       -0.0082
     19 C           2.3021    4.0219    2.4152 C.2     1  LIG1        0.0122
     20 C           3.4603    4.6105    1.6576 C.3     1  LIG1        0.0316
     21 C           3.1187    4.1521    0.2374 C.3     1  LIG1        0.0276
     22 N           1.5536    3.2153    1.7313 N.2     1  LIG1       -0.3209
     23 N           2.0507    3.1771    0.4628 N.pl3   1  LIG1       -0.3219
     24 CL          1.4435    5.3257    8.1718 Cl      1  LIG1       -0.1407
     25 CL          4.6110    4.7834   -2.3852 Cl      1  LIG1       -0.1400
     26 H          -0.1821    0.2118   -3.2442 H       1  LIG1        0.1062
     27 H           0.1609    7.6366   -0.5318 H       1  LIG1        0.1248
     28 H           2.2546    0.0341   -2.8144 H       1  LIG1        0.1230
     29 H          -1.5630    1.7922   -1.9209 H       1  LIG1        0.1229
     30 H           1.2550    8.2656   -2.6672 H       1  LIG1        0.1293
     31 H           4.0030    3.5513    4.4523 H       1  LIG1        0.1412
     32 H           0.1362    5.2014    3.5018 H       1  LIG1        0.1457
     33 H           1.0291    5.7416    0.7967 H       1  LIG1        0.1306
     34 H           3.3126    1.4286   -1.0689 H       1  LIG1        0.1259
     35 H          -0.5173    3.1917   -0.1735 H       1  LIG1        0.1157
     36 H           3.2145    7.0048   -3.4769 H       1  LIG1        0.1337
     37 H           3.6500    4.0876    6.8260 H       1  LIG1        0.1368
     38 H          -0.2191    5.7403    5.8735 H       1  LIG1        0.1364
     39 H           3.5246    5.6943    1.7880 H       1  LIG1        0.1023
     40 H           4.3815    4.1375    2.0147 H       1  LIG1        0.1001
     41 H           3.9864    3.6985   -0.2530 H       1  LIG1        0.1419
@<TRIPOS>BOND
     1     1     3   ar
     2     1     4   ar
     3     2     5   ar
     4     2     8   ar
     5     3     9   ar
     6     4    10   ar
     7     5    11   ar
     8     6    12   ar
     9     6    14   ar
    10     7    13   ar
    11     7    14   ar
    12     8    15   ar
    13     9    16   ar
    14    10    16   ar
    15    11    18   ar
    16    12    17   ar
    17    13    17   ar
    18    14    19    1
    19    15    18   ar
    20    15    21    1
    21    16    23    1
    22    17    24    1
    23    18    25    1
    24    19    20    1
    25    19    22    2
    26    20    21    1
    27    21    23    1
    28    22    23    1
    29     1    26    1
    30     2    27    1
    31     3    28    1
    32     4    29    1
    33     5    30    1
    34     6    31    1
    35     7    32    1
    36     8    33    1
    37     9    34    1
    38    10    35    1
    39    11    36    1
    40    12    37    1
    41    13    38    1
    42    20    39    1
    43    20    40    1
    44    21    41    1
