@<TRIPOS>MOLECULE
AP-836/41220187
 36 39 0 0 0
SMALL
USER_CHARGES

@<TRIPOS>ATOM
      1 C           1.5206    4.2770    4.2951 C.ar    1  LIG1       -0.1031
      2 C           0.2455    0.6273   -1.8024 C.ar    1  LIG1       -0.1058
      3 C           2.1001    3.1147    3.7865 C.ar    1  LIG1       -0.0999
      4 C           1.2007    5.3297    3.4376 C.ar    1  LIG1       -0.1021
      5 C          -0.3137    1.2708   -0.6984 C.ar    1  LIG1       -0.1013
      6 C           1.4751    1.0502   -2.3073 C.ar    1  LIG1       -0.1036
      7 C           1.0347    6.9425   -1.9883 C.ar    1  LIG1       -0.0906
      8 C           2.2666    7.5530   -2.2516 C.ar    1  LIG1       -0.0884
      9 C           2.3597    3.0050    2.4203 C.ar    1  LIG1       -0.0896
     10 C           1.4603    5.2201    2.0716 C.ar    1  LIG1       -0.0929
     11 C           0.3566    2.3374   -0.0995 C.ar    1  LIG1       -0.0863
     12 C           2.1453    2.1169   -1.7085 C.ar    1  LIG1       -0.0903
     13 C           0.9739    5.7638   -1.2407 C.ar    1  LIG1       -0.0855
     14 C           3.4478    6.9912   -1.7691 C.ar    1  LIG1       -0.0411
     15 C           2.0398    4.0577    1.5629 C.ar    1  LIG1       -0.0611
     16 C           1.5861    2.7605   -0.6045 C.ar    1  LIG1       -0.0559
     17 C           2.1542    5.2038   -0.7575 C.ar    1  LIG1       -0.0142
     18 C           3.3667    5.8220   -1.0281 C.ar    1  LIG1        0.2164
     19 C           2.3261    3.9375    0.0558 C.3     1  LIG1        0.0997
     20 O           5.6112    4.5794   -1.4757 O.2     1  LIG1       -0.1943
     21 O           3.7645    3.6595   -0.0230 O.3     1  LIG1       -0.1966
     22 S           4.7228    4.9351   -0.3212 S.O     1  LIG1        0.0861
     23 H           1.3173    4.3618    5.3586 H       1  LIG1        0.1209
     24 H          -0.2759   -0.2041   -2.2677 H       1  LIG1        0.1180
     25 H           2.3483    2.2945    4.4537 H       1  LIG1        0.1217
     26 H           0.7485    6.2344    3.8332 H       1  LIG1        0.1198
     27 H          -1.2705    0.9409   -0.3044 H       1  LIG1        0.1182
     28 H           1.9113    0.5487   -3.1661 H       1  LIG1        0.1182
     29 H           0.1199    7.3883   -2.3690 H       1  LIG1        0.1328
     30 H           2.3011    8.4689   -2.8347 H       1  LIG1        0.1294
     31 H           2.8116    2.0956    2.0329 H       1  LIG1        0.1304
     32 H           1.2077    6.0454    1.4111 H       1  LIG1        0.1233
     33 H          -0.0868    2.8331    0.7601 H       1  LIG1        0.1293
     34 H           3.1028    2.4396   -2.1088 H       1  LIG1        0.1215
     35 H           0.0136    5.2981   -1.0418 H       1  LIG1        0.1308
     36 H           4.4020    7.4653   -1.9742 H       1  LIG1        0.1420
@<TRIPOS>BOND
     1     1     3   ar
     2     1     4   ar
     3     2     5   ar
     4     2     6   ar
     5     3     9   ar
     6     4    10   ar
     7     5    11   ar
     8     6    12   ar
     9     7     8   ar
    10     7    13   ar
    11     8    14   ar
    12     9    15   ar
    13    10    15   ar
    14    11    16   ar
    15    12    16   ar
    16    13    17   ar
    17    14    18   ar
    18    15    19    1
    19    16    19    1
    20    17    18   ar
    21    17    19    1
    22    18    22    1
    23    19    21    1
    24    20    22    2
    25    21    22    1
    26     1    23    1
    27     2    24    1
    28     3    25    1
    29     4    26    1
    30     5    27    1
    31     6    28    1
    32     7    29    1
    33     8    30    1
    34     9    31    1
    35    10    32    1
    36    11    33    1
    37    12    34    1
    38    13    35    1
    39    14    36    1
