@<TRIPOS>MOLECULE
AQ-405/42300172
 40 43 0 0 0
SMALL
USER_CHARGES

@<TRIPOS>ATOM
      1 C           1.5313    4.4164    6.2311 C.ar    1  LIG1       -0.0985
      2 C           4.5019    6.5526   -3.7815 C.ar    1  LIG1       -0.0945
      3 C           4.7998    5.3270   -3.1904 C.ar    1  LIG1       -0.0956
      4 C           2.8786    4.1769    5.9610 C.ar    1  LIG1       -0.0934
      5 C           0.6356    4.6228    5.1819 C.ar    1  LIG1       -0.0922
      6 C           1.1234    0.5930   -1.7230 C.ar    1  LIG1       -0.1128
      7 C           3.3933    7.2856   -3.3547 C.ar    1  LIG1       -0.0845
      8 C           3.9903    4.8289   -2.1698 C.ar    1  LIG1       -0.0818
      9 C           3.3302    4.1439    4.6417 C.ar    1  LIG1       -0.0652
     10 C           1.0872    4.5897    3.8626 C.ar    1  LIG1       -0.0643
     11 C           2.1142    1.4667   -1.1890 C.ar    1  LIG1       -0.1032
     12 C           1.4487    7.5100   -1.8783 C.ar    1  LIG1       -0.0590
     13 C           0.6828    6.9624   -0.8604 C.ar    1  LIG1       -0.0346
     14 C          -0.1460    1.1138   -1.6005 C.ar    1  LIG1       -0.0498
     15 C           2.5672    6.7991   -2.3283 C.ar    1  LIG1       -0.0679
     16 C           2.8721    5.5579   -1.7324 C.ar    1  LIG1       -0.0301
     17 C           2.4345    4.3503    3.5925 C.ar    1  LIG1        0.0394
     18 C           2.0284    5.1068   -0.7154 C.ar    1  LIG1        0.0266
     19 C           1.5642    2.6222   -0.6787 C.ar    1  LIG1       -0.0067
     20 C           2.9152    4.3151    2.1881 C.2     1  LIG1        0.1899
     21 C           2.2738    3.8020   -0.0257 C.3     1  LIG1        0.1260
     22 N           0.9440    5.7783   -0.2667 N.ar    1  LIG1       -0.3748
     23 O           4.0462    4.6377    1.8591 O.2     1  LIG1       -0.4468
     24 O           1.9286    3.8812    1.3668 O.3     1  LIG1       -0.2997
     25 S          -0.1399    2.6502   -0.8442 S.2     1  LIG1       -0.1294
     26 H           1.1797    4.4421    7.2584 H       1  LIG1        0.1290
     27 H           5.1336    6.9394   -4.5761 H       1  LIG1        0.1274
     28 H           5.6636    4.7594   -3.5241 H       1  LIG1        0.1255
     29 H           3.5759    4.0165    6.7780 H       1  LIG1        0.1226
     30 H          -0.4135    4.8089    5.3924 H       1  LIG1        0.1239
     31 H           1.3304   -0.3681   -2.1749 H       1  LIG1        0.1115
     32 H           3.1787    8.2396   -3.8314 H       1  LIG1        0.1318
     33 H           4.2503    3.8692   -1.7303 H       1  LIG1        0.1294
     34 H           4.3822    3.9564    4.4425 H       1  LIG1        0.1444
     35 H           0.3802    4.7519    3.0531 H       1  LIG1        0.1441
     36 H           3.1758    1.2545   -1.1831 H       1  LIG1        0.1175
     37 H           1.1759    8.4700   -2.3058 H       1  LIG1        0.1367
     38 H          -0.1915    7.4834   -0.4841 H       1  LIG1        0.1963
     39 H          -1.0766    0.6654   -1.9184 H       1  LIG1        0.1641
     40 H           3.3564    3.5870   -0.0187 H       1  LIG1        0.1987
@<TRIPOS>BOND
     1     1     4   ar
     2     1     5   ar
     3     2     3   ar
     4     2     7   ar
     5     3     8   ar
     6     4     9   ar
     7     5    10   ar
     8     6    11   ar
     9     6    14   ar
    10     7    15   ar
    11     8    16   ar
    12     9    17   ar
    13    10    17   ar
    14    11    19   ar
    15    12    13   ar
    16    12    15   ar
    17    13    22   ar
    18    14    25   ar
    19    15    16   ar
    20    16    18   ar
    21    17    20    1
    22    18    21    1
    23    18    22   ar
    24    19    21    1
    25    19    25   ar
    26    20    23    2
    27    20    24    1
    28    21    24    1
    29     1    26    1
    30     2    27    1
    31     3    28    1
    32     4    29    1
    33     5    30    1
    34     6    31    1
    35     7    32    1
    36     8    33    1
    37     9    34    1
    38    10    35    1
    39    11    36    1
    40    12    37    1
    41    13    38    1
    42    14    39    1
    43    21    40    1
