@<TRIPOS>MOLECULE
AK-968/11164976
 41 43 0 0 0
SMALL
USER_CHARGES

@<TRIPOS>ATOM
      1 C           1.2674    4.1652    6.2669 C.ar    1  LIG1       -0.1092
      2 C           2.6370    7.1936   -2.7160 C.ar    1  LIG1       -0.1060
      3 C           0.8747    5.2816    5.5288 C.ar    1  LIG1       -0.1081
      4 C           2.2154    3.2838    5.7474 C.ar    1  LIG1       -0.1060
      5 C           1.2943    6.8223   -2.6457 C.ar    1  LIG1       -0.1041
      6 C           3.5033    6.8792   -1.6689 C.ar    1  LIG1       -0.1052
      7 C           1.2987    1.8002   -2.4070 C.ar    1  LIG1       -0.0599
      8 C           2.0762    2.3984   -1.4216 C.ar    1  LIG1       -0.0546
      9 C           1.4298    5.5165    4.2708 C.ar    1  LIG1       -0.1009
     10 C           2.7706    3.5186    4.4895 C.ar    1  LIG1       -0.0974
     11 C           0.8179    6.1367   -1.5284 C.ar    1  LIG1       -0.0993
     12 C           3.0269    6.1937   -0.5515 C.ar    1  LIG1       -0.1001
     13 C           0.1520    1.1308   -2.0109 C.ar    1  LIG1       -0.0376
     14 C           0.5245    1.6184    0.2031 C.ar    1  LIG1       -0.0111
     15 C           1.6888    2.3103   -0.0892 C.ar    1  LIG1        0.0555
     16 C           2.3778    4.6350    3.7512 C.ar    1  LIG1       -0.0858
     17 C           1.6842    5.8224   -0.4812 C.ar    1  LIG1       -0.0900
     18 C           2.4918    2.9332    0.9750 C.2     1  LIG1        0.1241
     19 C           2.9756    4.8870    2.3972 C.3     1  LIG1        0.0081
     20 C           1.1719    5.0846    0.7220 C.3     1  LIG1        0.0048
     21 N          -0.2565    1.0242   -0.7267 N.ar    1  LIG1       -0.3979
     22 N           2.2060    4.2541    1.3354 N.am    1  LIG1       -0.3350
     23 O           3.3609    2.2272    1.4851 O.2     1  LIG1       -0.4691
     24 H           0.8361    3.9833    7.2470 H       1  LIG1        0.1140
     25 H           3.0081    7.7262   -3.5867 H       1  LIG1        0.1175
     26 H           0.1374    5.9687    5.9336 H       1  LIG1        0.1132
     27 H           2.5222    2.4151    6.3224 H       1  LIG1        0.1141
     28 H           0.6199    7.0660   -3.4615 H       1  LIG1        0.1178
     29 H           4.5489    7.1672   -1.7237 H       1  LIG1        0.1169
     30 H           1.5808    1.8564   -3.4520 H       1  LIG1        0.1329
     31 H           2.9817    2.9297   -1.7027 H       1  LIG1        0.1533
     32 H           1.1177    6.3888    3.7026 H       1  LIG1        0.1155
     33 H           3.5084    2.8262    4.0926 H       1  LIG1        0.1231
     34 H          -0.2298    5.8515   -1.4822 H       1  LIG1        0.1175
     35 H           3.7091    5.9531    0.2596 H       1  LIG1        0.1184
     36 H          -0.4883    0.6470   -2.7410 H       1  LIG1        0.2076
     37 H           0.1707    1.5164    1.2246 H       1  LIG1        0.2123
     38 H           3.0187    5.9614    2.1881 H       1  LIG1        0.1300
     39 H           3.9999    4.5037    2.3423 H       1  LIG1        0.1320
     40 H           0.8098    5.7872    1.4804 H       1  LIG1        0.1123
     41 H           0.3333    4.4328    0.4556 H       1  LIG1        0.1360
@<TRIPOS>BOND
     1     1     3   ar
     2     1     4   ar
     3     2     5   ar
     4     2     6   ar
     5     3     9   ar
     6     4    10   ar
     7     5    11   ar
     8     6    12   ar
     9     7     8   ar
    10     7    13   ar
    11     8    15   ar
    12     9    16   ar
    13    10    16   ar
    14    11    17   ar
    15    12    17   ar
    16    13    21   ar
    17    14    15   ar
    18    14    21   ar
    19    15    18    1
    20    16    19    1
    21    17    20    1
    22    18    22   am
    23    18    23    2
    24    19    22    1
    25    20    22    1
    26     1    24    1
    27     2    25    1
    28     3    26    1
    29     4    27    1
    30     5    28    1
    31     6    29    1
    32     7    30    1
    33     8    31    1
    34     9    32    1
    35    10    33    1
    36    11    34    1
    37    12    35    1
    38    13    36    1
    39    14    37    1
    40    19    38    1
    41    19    39    1
    42    20    40    1
    43    20    41    1
