@<TRIPOS>MOLECULE
AK-968/11573183
 39 42 0 0 0
SMALL
USER_CHARGES

@<TRIPOS>ATOM
      1 C           1.0567    0.4560   -1.5457 C.ar    1  LIG1       -0.1049
      2 C           2.8732    7.4098   -2.0621 C.ar    1  LIG1       -0.1055
      3 C           2.1375    1.3373   -1.5730 C.ar    1  LIG1       -0.1021
      4 C          -0.1580    0.8589   -0.9907 C.ar    1  LIG1       -0.1031
      5 C           1.5964    7.0495   -2.4929 C.ar    1  LIG1       -0.1038
      6 C           3.4271    6.8003   -0.9362 C.ar    1  LIG1       -0.1035
      7 C           2.7857    3.4217    4.4710 C.ar    1  LIG1       -0.0425
      8 C           2.0036    2.6215   -1.0452 C.ar    1  LIG1       -0.0904
      9 C          -0.2918    2.1432   -0.4630 C.ar    1  LIG1       -0.0941
     10 C           0.8735    6.0799   -1.7980 C.ar    1  LIG1       -0.0944
     11 C           2.7043    5.8308   -0.2413 C.ar    1  LIG1       -0.0934
     12 C           2.5961    3.9438    5.7536 C.ar    1  LIG1       -0.0537
     13 C           0.8575    5.4610    4.9514 C.ar    1  LIG1       -0.0315
     14 C           2.0015    3.9378    3.4599 C.ar    1  LIG1        0.0671
     15 C           1.0621    4.9313    3.6938 C.ar    1  LIG1        0.0696
     16 C           0.7890    3.0245   -0.4903 C.ar    1  LIG1       -0.0662
     17 C           1.4275    5.4705   -0.6722 C.ar    1  LIG1       -0.0687
     18 C           1.6412    4.9533    5.9915 C.ar    1  LIG1       -0.0120
     19 C           1.9629    3.6038    2.0368 C.2     1  LIG1        0.1760
     20 C           0.4095    5.2470    2.4234 C.2     1  LIG1        0.1730
     21 C           0.6431    4.4180    0.0829 C.3     1  LIG1        0.0547
     22 N           0.9983    4.4230    1.4880 N.am    1  LIG1       -0.2137
     23 O           2.6675    2.7615    1.5125 O.2     1  LIG1       -0.4112
     24 O          -0.4688    6.0799    2.2984 O.2     1  LIG1       -0.4202
     25 BR          1.4179    5.6281    7.7451 Br      1  LIG1       -0.0840
     26 H           1.1607   -0.5435   -1.9578 H       1  LIG1        0.1177
     27 H           3.4365    8.1638   -2.6042 H       1  LIG1        0.1179
     28 H           3.0830    1.0241   -2.0061 H       1  LIG1        0.1190
     29 H          -1.0000    0.1734   -0.9703 H       1  LIG1        0.1175
     30 H           1.1654    7.5232   -3.3702 H       1  LIG1        0.1171
     31 H           4.4216    7.0797   -0.6012 H       1  LIG1        0.1196
     32 H           3.5194    2.6453    4.2885 H       1  LIG1        0.1643
     33 H           2.8512    3.3014   -1.0706 H       1  LIG1        0.1260
     34 H          -1.2419    2.4483   -0.0325 H       1  LIG1        0.1103
     35 H          -0.1207    5.8057   -2.1409 H       1  LIG1        0.1168
     36 H           3.1438    5.3614    0.6348 H       1  LIG1        0.1229
     37 H           3.2004    3.5555    6.5705 H       1  LIG1        0.1597
     38 H           0.1185    6.2368    5.1189 H       1  LIG1        0.1692
     39 H          -0.4162    4.7056    0.0669 H       1  LIG1        0.1804
@<TRIPOS>BOND
     1     1     3   ar
     2     1     4   ar
     3     2     5   ar
     4     2     6   ar
     5     3     8   ar
     6     4     9   ar
     7     5    10   ar
     8     6    11   ar
     9     7    12   ar
    10     7    14   ar
    11     8    16   ar
    12     9    16   ar
    13    10    17   ar
    14    11    17   ar
    15    12    18   ar
    16    13    15   ar
    17    13    18   ar
    18    14    15   ar
    19    14    19    1
    20    15    20    1
    21    16    21    1
    22    17    21    1
    23    18    25    1
    24    19    22   am
    25    19    23    2
    26    20    22   am
    27    20    24    2
    28    21    22    1
    29     1    26    1
    30     2    27    1
    31     3    28    1
    32     4    29    1
    33     5    30    1
    34     6    31    1
    35     7    32    1
    36     8    33    1
    37     9    34    1
    38    10    35    1
    39    11    36    1
    40    12    37    1
    41    13    38    1
    42    21    39    1
