@<TRIPOS>MOLECULE
AG-690/10493011
 46 49 0 0 0
SMALL
USER_CHARGES

@<TRIPOS>ATOM
      1 C          -0.3817    1.7834   -0.5951 C.ar    1  LIG1       -0.0974
      2 C           1.9914    4.3108    6.1329 C.ar    1  LIG1       -0.1032
      3 C           0.5592    2.5731    0.0656 C.ar    1  LIG1       -0.0850
      4 C           3.1086    5.4811   -1.8252 C.ar    1  LIG1       -0.0471
      5 C           1.3319    6.6758   -0.7056 C.ar    1  LIG1       -0.0445
      6 C          -0.0002    1.0205   -1.6989 C.ar    1  LIG1       -0.0616
      7 C           2.9673    6.3124   -2.9363 C.ar    1  LIG1       -0.0750
      8 C           1.1907    7.5071   -1.8168 C.ar    1  LIG1       -0.0742
      9 C           2.7165    4.2404    4.9084 C.ar    1  LIG1       -0.0849
     10 C           0.6341    4.4199    5.9250 C.ar    1  LIG1       -0.0426
     11 C           1.8816    2.6003   -0.3775 C.ar    1  LIG1       -0.0302
     12 C           2.2907    5.6627   -0.7099 C.ar    1  LIG1       -0.0164
     13 C           1.3221    1.0477   -2.1421 C.ar    1  LIG1        0.0295
     14 C           2.2630    1.8376   -1.4814 C.ar    1  LIG1        0.0399
     15 C           2.0084    7.3254   -2.9322 C.ar    1  LIG1       -0.0447
     16 C           1.8855    4.2982    3.8111 C.ar    1  LIG1        0.0095
     17 C           2.2259    4.2572    2.4339 C.2     1  LIG1        0.0215
     18 C           2.9443    3.0815    1.8270 C.3     1  LIG1        0.0375
     19 C           2.8742    3.4520    0.3428 C.3     1  LIG1        0.0364
     20 C           0.6580   -0.4810   -3.8385 C.3     1  LIG1        0.0255
     21 C           4.4447    0.8991   -1.3568 C.3     1  LIG1        0.0179
     22 N           1.9753    5.2267    1.6090 N.2     1  LIG1       -0.3110
     23 N           2.4287    4.8460    0.3813 N.pl3   1  LIG1       -0.3137
     24 O           1.6811    0.2978   -3.2214 O.3     1  LIG1       -0.4090
     25 O           3.5547    1.8611   -1.9180 O.3     1  LIG1       -0.4160
     26 S           0.2386    4.4371    4.2590 S.2     1  LIG1       -0.1137
     27 BR          1.8186    8.4528   -4.4368 Br      1  LIG1       -0.1256
     28 H          -1.4113    1.7622   -0.2501 H       1  LIG1        0.1287
     29 H           2.4427    4.2840    7.1161 H       1  LIG1        0.1171
     30 H           0.2521    3.1638    0.9247 H       1  LIG1        0.1215
     31 H           3.8583    4.6943   -1.8389 H       1  LIG1        0.1290
     32 H           0.6891    6.8251    0.1584 H       1  LIG1        0.1368
     33 H          -0.7382    0.4075   -2.2091 H       1  LIG1        0.1193
     34 H           3.6113    6.1563   -3.7980 H       1  LIG1        0.1418
     35 H           0.4377    8.2907   -1.7983 H       1  LIG1        0.1411
     36 H           3.7937    4.1515    4.8417 H       1  LIG1        0.1313
     37 H          -0.1439    4.4914    6.6719 H       1  LIG1        0.1708
     38 H           3.9777    3.0842    2.1903 H       1  LIG1        0.1022
     39 H           2.4647    2.1339    2.0879 H       1  LIG1        0.1060
     40 H           3.8537    3.3524   -0.1372 H       1  LIG1        0.1496
     41 H           1.0775   -1.0298   -4.6852 H       1  LIG1        0.1231
     42 H          -0.1461    0.1763   -4.1790 H       1  LIG1        0.0890
     43 H           0.2616   -1.1901   -3.1079 H       1  LIG1        0.0900
     44 H           5.4401    1.0265   -1.7896 H       1  LIG1        0.0808
     45 H           4.0720   -0.1073   -1.5633 H       1  LIG1        0.0827
     46 H           4.4974    1.0516   -0.2763 H       1  LIG1        0.1174
@<TRIPOS>BOND
     1     1     3   ar
     2     1     6   ar
     3     2     9   ar
     4     2    10   ar
     5     3    11   ar
     6     4     7   ar
     7     4    12   ar
     8     5     8   ar
     9     5    12   ar
    10     6    13   ar
    11     7    15   ar
    12     8    15   ar
    13     9    16   ar
    14    10    26   ar
    15    11    14   ar
    16    11    19    1
    17    12    23    1
    18    13    14   ar
    19    13    24    1
    20    14    25    1
    21    15    27    1
    22    16    17    1
    23    16    26   ar
    24    17    18    1
    25    17    22    2
    26    18    19    1
    27    19    23    1
    28    20    24    1
    29    21    25    1
    30    22    23    1
    31     1    28    1
    32     2    29    1
    33     3    30    1
    34     4    31    1
    35     5    32    1
    36     6    33    1
    37     7    34    1
    38     8    35    1
    39     9    36    1
    40    10    37    1
    41    18    38    1
    42    18    39    1
    43    19    40    1
    44    20    41    1
    45    20    42    1
    46    20    43    1
    47    21    44    1
    48    21    45    1
    49    21    46    1
