@<TRIPOS>MOLECULE
AL-182/11876024
 51 55 0 0 0
SMALL
USER_CHARGES

@<TRIPOS>ATOM
      1 C           3.0175    7.0572   -2.1715 C.ar    1  LIG1       -0.1063
      2 C           0.9502    0.6663   -2.4983 C.ar    1  LIG1       -0.1103
      3 C           1.6967    7.4882   -2.0483 C.ar    1  LIG1       -0.1051
      4 C           3.4499    5.9268   -1.4782 C.ar    1  LIG1       -0.1033
      5 C          -0.2725    1.2624   -2.1898 C.ar    1  LIG1       -0.1018
      6 C           2.0998    1.0289   -1.7962 C.ar    1  LIG1       -0.1004
      7 C           2.8379    4.4301    4.1701 C.ar    1  LIG1       -0.0772
      8 C           0.8082    6.7888   -1.2315 C.ar    1  LIG1       -0.0975
      9 C           2.5615    5.2274   -0.6615 C.ar    1  LIG1       -0.0957
     10 C           3.2446    4.5659    5.4970 C.ar    1  LIG1       -0.0943
     11 C          -0.3458    2.2211   -1.1793 C.ar    1  LIG1       -0.0615
     12 C           2.0265    1.9877   -0.7858 C.ar    1  LIG1       -0.0584
     13 C           0.5399    4.7107    4.8493 C.ar    1  LIG1       -0.0710
     14 C           1.4860    4.5001    3.8467 C.ar    1  LIG1       -0.0357
     15 C           1.2405    5.6584   -0.5381 C.ar    1  LIG1       -0.0811
     16 C           2.3019    4.7679    6.5165 C.ar    1  LIG1       -0.1071
     17 C           0.9368    4.8594    6.1868 C.ar    1  LIG1       -0.1008
     18 C           0.8037    2.5837   -0.4773 C.ar    1  LIG1       -0.0273
     19 C           1.0598    4.3521    2.4644 C.2     1  LIG1        0.0086
     20 C           2.7837    4.9437    7.9350 C.3     1  LIG1       -0.0438
     21 C          -0.1189    5.0526    7.2468 C.3     1  LIG1       -0.0439
     22 C           0.3110    5.4550    1.7674 C.3     1  LIG1        0.0297
     23 C           1.6762    4.7760    8.9735 C.3     1  LIG1       -0.0630
     24 C           0.4421    5.5722    8.5691 C.3     1  LIG1       -0.0631
     25 C           0.2894    4.9088    0.3373 C.3     1  LIG1        0.0210
     26 N           1.2574    3.2887    1.7506 N.2     1  LIG1       -0.3236
     27 N           0.7320    3.5252    0.5152 N.pl3   1  LIG1       -0.3235
     28 H           3.7088    7.6011   -2.8087 H       1  LIG1        0.1165
     29 H           1.0073   -0.0801   -3.2854 H       1  LIG1        0.1043
     30 H           1.3595    8.3678   -2.5890 H       1  LIG1        0.1171
     31 H           4.4779    5.5902   -1.5748 H       1  LIG1        0.1158
     32 H          -1.1672    0.9801   -2.7365 H       1  LIG1        0.1217
     33 H           3.0519    0.5647   -2.0366 H       1  LIG1        0.1217
     34 H           3.5859    4.2708    3.3976 H       1  LIG1        0.1281
     35 H          -0.2191    7.1320   -1.1413 H       1  LIG1        0.1190
     36 H           2.9072    4.3478   -0.1249 H       1  LIG1        0.1169
     37 H           4.3043    4.5138    5.7348 H       1  LIG1        0.1202
     38 H          -1.3034    2.6797   -0.9467 H       1  LIG1        0.1164
     39 H           2.9288    2.2622   -0.2453 H       1  LIG1        0.1244
     40 H          -0.5168    4.7604    4.5936 H       1  LIG1        0.1345
     41 H           3.5807    4.2219    8.1508 H       1  LIG1        0.0668
     42 H           3.2141    5.9492    8.0250 H       1  LIG1        0.0654
     43 H          -0.8829    5.7535    6.8892 H       1  LIG1        0.0648
     44 H          -0.6099    4.0861    7.4172 H       1  LIG1        0.0658
     45 H          -0.6998    5.5033    2.1868 H       1  LIG1        0.0994
     46 H           0.8083    6.4218    1.8833 H       1  LIG1        0.0987
     47 H           1.4128    3.7149    9.0709 H       1  LIG1        0.0469
     48 H           2.0370    5.1082    9.9533 H       1  LIG1        0.0450
     49 H           0.7054    6.6333    8.4719 H       1  LIG1        0.0450
     50 H          -0.3259    5.5019    9.3475 H       1  LIG1        0.0471
     51 H          -0.7162    4.9616   -0.0928 H       1  LIG1        0.1347
@<TRIPOS>BOND
     1     1     3   ar
     2     1     4   ar
     3     2     5   ar
     4     2     6   ar
     5     3     8   ar
     6     4     9   ar
     7     5    11   ar
     8     6    12   ar
     9     7    10   ar
    10     7    14   ar
    11     8    15   ar
    12     9    15   ar
    13    10    16   ar
    14    11    18   ar
    15    12    18   ar
    16    13    14   ar
    17    13    17   ar
    18    14    19    1
    19    15    25    1
    20    16    17   ar
    21    16    20    1
    22    17    21    1
    23    18    27    1
    24    19    22    1
    25    19    26    2
    26    20    23    1
    27    21    24    1
    28    22    25    1
    29    23    24    1
    30    25    27    1
    31    26    27    1
    32     1    28    1
    33     2    29    1
    34     3    30    1
    35     4    31    1
    36     5    32    1
    37     6    33    1
    38     7    34    1
    39     8    35    1
    40     9    36    1
    41    10    37    1
    42    11    38    1
    43    12    39    1
    44    13    40    1
    45    20    41    1
    46    20    42    1
    47    21    43    1
    48    21    44    1
    49    22    45    1
    50    22    46    1
    51    23    47    1
    52    23    48    1
    53    24    49    1
    54    24    50    1
    55    25    51    1
