@<TRIPOS>MOLECULE
AF-936/04150050
 43 45 0 0 0
SMALL
USER_CHARGES

@<TRIPOS>ATOM
      1 C           0.3751    0.5970   -1.9135 C.ar    1  LIG1       -0.1084
      2 C           2.2041    7.5759   -2.3360 C.ar    1  LIG1       -0.1062
      3 C           1.7061    0.9496   -2.1361 C.ar    1  LIG1       -0.1024
      4 C          -0.4095    1.3504   -1.0402 C.ar    1  LIG1       -0.1068
      5 C           3.1738    6.5859   -2.4946 C.ar    1  LIG1       -0.1044
      6 C           1.1857    7.4107   -1.3972 C.ar    1  LIG1       -0.1046
      7 C           0.5740    4.8242    5.6967 C.ar    1  LIG1       -0.0973
      8 C           1.6107    4.6731    6.6175 C.ar    1  LIG1       -0.1063
      9 C           2.2527    2.0556   -1.4852 C.ar    1  LIG1       -0.0915
     10 C           0.1372    2.4564   -0.3894 C.ar    1  LIG1       -0.0974
     11 C           3.1251    5.4306   -1.7145 C.ar    1  LIG1       -0.0984
     12 C           1.1371    6.2554   -0.6171 C.ar    1  LIG1       -0.0983
     13 C           0.8189    4.6457    4.3350 C.ar    1  LIG1       -0.0576
     14 C           2.8924    4.3436    6.1767 C.ar    1  LIG1       -0.0688
     15 C           1.4683    2.8091   -0.6119 C.ar    1  LIG1       -0.0681
     16 C           2.1067    5.2653   -0.7757 C.ar    1  LIG1       -0.0743
     17 C           2.1006    4.3162    3.8943 C.ar    1  LIG1       -0.0105
     18 C           3.1374    4.1651    4.8151 C.ar    1  LIG1        0.0140
     19 C           1.4141    4.2646    1.4694 C.2     1  LIG1        0.1109
     20 C           5.3925    3.7102    5.4177 C.3     1  LIG1        0.0221
     21 C           2.0522    3.9916    0.0846 C.3     1  LIG1        0.0877
     22 N           2.3335    4.1391    2.5097 N.am    1  LIG1       -0.3005
     23 O           0.2237    4.5477    1.5717 O.2     1  LIG1       -0.4693
     24 O           4.3972    3.8437    4.4056 O.3     1  LIG1       -0.4153
     25 H          -0.0508   -0.2634   -2.4214 H       1  LIG1        0.1141
     26 H           2.2430    8.4760   -2.9426 H       1  LIG1        0.1164
     27 H           2.3167    0.3638   -2.8168 H       1  LIG1        0.1144
     28 H          -1.4461    1.0768   -0.8676 H       1  LIG1        0.1139
     29 H           3.9674    6.7148   -3.2248 H       1  LIG1        0.1169
     30 H           0.4312    8.1818   -1.2726 H       1  LIG1        0.1176
     31 H          -0.4241    5.0803    6.0401 H       1  LIG1        0.1168
     32 H           1.4198    4.8113    7.6777 H       1  LIG1        0.1193
     33 H           3.2909    2.3228   -1.6645 H       1  LIG1        0.1246
     34 H          -0.4816    3.0375    0.2893 H       1  LIG1        0.1179
     35 H           3.8848    4.6644   -1.8451 H       1  LIG1        0.1181
     36 H           0.3399    6.1353    0.1117 H       1  LIG1        0.1207
     37 H           0.0028    4.7660    3.6270 H       1  LIG1        0.1530
     38 H           3.6954    4.2273    6.8996 H       1  LIG1        0.1151
     39 H           6.3494    3.4525    4.9570 H       1  LIG1        0.0892
     40 H           5.0940    2.9306    6.1231 H       1  LIG1        0.1214
     41 H           5.4902    4.6606    5.9478 H       1  LIG1        0.0890
     42 H           3.1146    3.7690    0.3231 H       1  LIG1        0.1443
     43 H           3.2908    3.9000    2.2600 H       1  LIG1        0.3289
@<TRIPOS>BOND
     1     1     3   ar
     2     1     4   ar
     3     2     5   ar
     4     2     6   ar
     5     3     9   ar
     6     4    10   ar
     7     5    11   ar
     8     6    12   ar
     9     7     8   ar
    10     7    13   ar
    11     8    14   ar
    12     9    15   ar
    13    10    15   ar
    14    11    16   ar
    15    12    16   ar
    16    13    17   ar
    17    14    18   ar
    18    15    21    1
    19    16    21    1
    20    17    18   ar
    21    17    22    1
    22    18    24    1
    23    19    21    1
    24    19    22   am
    25    19    23    2
    26    20    24    1
    27     1    25    1
    28     2    26    1
    29     3    27    1
    30     4    28    1
    31     5    29    1
    32     6    30    1
    33     7    31    1
    34     8    32    1
    35     9    33    1
    36    10    34    1
    37    11    35    1
    38    12    36    1
    39    13    37    1
    40    14    38    1
    41    20    39    1
    42    20    40    1
    43    20    41    1
    44    21    42    1
    45    22    43    1
