@<TRIPOS>MOLECULE
AG-690/09285010
 46 49 0 0 0
SMALL
USER_CHARGES

@<TRIPOS>ATOM
      1 C           0.6239    0.7863   -2.4602 C.ar    1  LIG1       -0.1077
      2 C           2.3158    7.2542   -2.8592 C.ar    1  LIG1       -0.1044
      3 C           1.9256    0.9228   -1.9781 C.ar    1  LIG1       -0.1010
      4 C          -0.4094    1.5385   -1.9012 C.ar    1  LIG1       -0.1017
      5 C           1.0604    7.1581   -2.2591 C.ar    1  LIG1       -0.0973
      6 C           3.3952    6.5420   -2.3362 C.ar    1  LIG1       -0.1020
      7 C           2.1942    1.8115   -0.9372 C.ar    1  LIG1       -0.0777
      8 C          -0.1408    2.4272   -0.8602 C.ar    1  LIG1       -0.0793
      9 C           0.8843    6.3499   -1.1359 C.ar    1  LIG1       -0.0790
     10 C           3.2191    5.7339   -1.2131 C.ar    1  LIG1       -0.0855
     11 C           2.9914    4.1241    4.7589 C.ar    1  LIG1       -0.0633
     12 C           0.6565    4.7400    4.8362 C.ar    1  LIG1       -0.0642
     13 C           3.0736    4.2618    6.1445 C.ar    1  LIG1       -0.0593
     14 C           0.7387    4.8776    6.2218 C.ar    1  LIG1       -0.0526
     15 C           1.1611    2.5637   -0.3782 C.ar    1  LIG1       -0.0413
     16 C           1.9636    5.6378   -0.6129 C.ar    1  LIG1       -0.0537
     17 C           1.7829    4.3633    4.1047 C.ar    1  LIG1       -0.0143
     18 C           1.9473    4.6385    6.8759 C.ar    1  LIG1       -0.0102
     19 C           1.4373    3.4786    0.6938 C.ar    1  LIG1       -0.0019
     20 C           1.7812    4.8017    0.5474 C.ar    1  LIG1       -0.0194
     21 C           1.6979    4.2209    2.6715 C.ar    1  LIG1        0.0122
     22 C           3.0544    5.9662   10.0323 C.3     1  LIG1       -0.0345
     23 C           3.2878    5.1675    8.7677 C.3     1  LIG1        0.0144
     24 N           1.3868    3.1233    2.0185 N.ar    1  LIG1       -0.3634
     25 N           1.9445    5.2640    1.8228 N.ar    1  LIG1       -0.3271
     26 O           2.0274    4.7729    8.2280 O.3     1  LIG1       -0.4165
     27 H           0.4146    0.0951   -3.2714 H       1  LIG1        0.1139
     28 H           2.4528    7.8830   -3.7341 H       1  LIG1        0.1182
     29 H           2.7303    0.3382   -2.4141 H       1  LIG1        0.1157
     30 H          -1.4226    1.4329   -2.2775 H       1  LIG1        0.1155
     31 H           0.2200    7.7129   -2.6663 H       1  LIG1        0.1208
     32 H           4.3726    6.6161   -2.8041 H       1  LIG1        0.1180
     33 H           3.2143    1.9067   -0.5723 H       1  LIG1        0.1277
     34 H          -0.9573    3.0064   -0.4351 H       1  LIG1        0.1229
     35 H          -0.1013    6.2834   -0.6812 H       1  LIG1        0.1300
     36 H           4.0706    5.1859   -0.8168 H       1  LIG1        0.1190
     37 H           3.8784    3.8297    4.2029 H       1  LIG1        0.1514
     38 H          -0.2927    4.9299    4.3408 H       1  LIG1        0.1325
     39 H           4.0178    4.0742    6.6486 H       1  LIG1        0.1175
     40 H          -0.1422    5.1713    6.7862 H       1  LIG1        0.1321
     41 H           2.4674    6.8649    9.8236 H       1  LIG1        0.0577
     42 H           2.5250    5.3633   10.7774 H       1  LIG1        0.0481
     43 H           4.0075    6.2635   10.4823 H       1  LIG1        0.0481
     44 H           3.8754    4.2702    8.9835 H       1  LIG1        0.0960
     45 H           3.8161    5.7717    8.0240 H       1  LIG1        0.0960
     46 H           2.2015    6.2056    2.0903 H       1  LIG1        0.3498
@<TRIPOS>BOND
     1     1     3   ar
     2     1     4   ar
     3     2     5   ar
     4     2     6   ar
     5     3     7   ar
     6     4     8   ar
     7     5     9   ar
     8     6    10   ar
     9     7    15   ar
    10     8    15   ar
    11     9    16   ar
    12    10    16   ar
    13    11    13   ar
    14    11    17   ar
    15    12    14   ar
    16    12    17   ar
    17    13    18   ar
    18    14    18   ar
    19    15    19    1
    20    16    20    1
    21    17    21    1
    22    18    26    1
    23    19    20   ar
    24    19    24   ar
    25    20    25   ar
    26    21    24   ar
    27    21    25   ar
    28    22    23    1
    29    23    26    1
    30     1    27    1
    31     2    28    1
    32     3    29    1
    33     4    30    1
    34     5    31    1
    35     6    32    1
    36     7    33    1
    37     8    34    1
    38     9    35    1
    39    10    36    1
    40    11    37    1
    41    12    38    1
    42    13    39    1
    43    14    40    1
    44    22    41    1
    45    22    42    1
    46    22    43    1
    47    23    44    1
    48    23    45    1
    49    25    46    1
