@<TRIPOS>MOLECULE
AG-690/09674043
 40 42 0 0 0
SMALL
USER_CHARGES

@<TRIPOS>ATOM
      1 C           0.8909    0.3653   -1.7872 C.ar    1  LIG1       -0.1085
      2 C           2.0378    1.1590   -1.8013 C.ar    1  LIG1       -0.1056
      3 C          -0.2627    0.8179   -1.1467 C.ar    1  LIG1       -0.1036
      4 C           1.9054    7.0112   -2.1561 C.ar    1  LIG1       -0.0890
      5 C           3.1104    3.8805    5.3236 C.ar    1  LIG1       -0.0681
      6 C           3.2512    7.1178   -1.8231 C.ar    1  LIG1       -0.0709
      7 C           2.6003    4.1099    4.0458 C.ar    1  LIG1       -0.0513
      8 C           2.0312    2.4054   -1.1749 C.ar    1  LIG1       -0.0926
      9 C          -0.2693    2.0642   -0.5204 C.ar    1  LIG1       -0.0891
     10 C           2.3427    4.1890    6.4467 C.ar    1  LIG1       -0.0392
     11 C           1.1106    6.0638   -1.5205 C.ar    1  LIG1       -0.0592
     12 C           0.5550    4.9563    5.0141 C.ar    1  LIG1       -0.0067
     13 C           3.7498    6.2603   -0.8556 C.ar    1  LIG1       -0.0400
     14 C           1.3228    4.6478    3.8910 C.ar    1  LIG1        0.0471
     15 C           0.8776    2.8580   -0.5344 C.ar    1  LIG1       -0.0616
     16 C           1.0651    4.7269    6.2918 C.ar    1  LIG1        0.0783
     17 C           1.7051    5.2534   -0.5667 C.ar    1  LIG1       -0.0147
     18 C           0.7916    4.8868    2.5584 C.2     1  LIG1        0.1173
     19 C           0.8698    4.2104    0.1457 C.3     1  LIG1        0.0458
     20 N           3.0087    5.3276   -0.2165 N.ar    1  LIG1       -0.3906
     21 N           1.2814    4.0798    1.5249 N.am    1  LIG1       -0.3141
     22 N           0.2841    5.0408    7.4356 N.pl3   1  LIG1       -0.0449
     23 O           0.7621    4.8264    8.5757 O.2     1  LIG1       -0.1510
     24 O          -0.0444    5.7871    2.3641 O.2     1  LIG1       -0.4680
     25 O          -0.8627    5.5240    7.2747 O.2     1  LIG1       -0.2435
     26 H           0.8958   -0.6044   -2.2761 H       1  LIG1        0.1142
     27 H           2.9357    0.8072   -2.3008 H       1  LIG1        0.1147
     28 H          -1.1561    0.2007   -1.1366 H       1  LIG1        0.1132
     29 H           1.4770    7.6654   -2.9095 H       1  LIG1        0.1369
     30 H           4.1052    3.4618    5.4440 H       1  LIG1        0.1477
     31 H           3.8896    7.8489   -2.3055 H       1  LIG1        0.1267
     32 H           3.2075    3.8662    3.1777 H       1  LIG1        0.1546
     33 H           2.9295    3.0170   -1.1908 H       1  LIG1        0.1195
     34 H          -1.1727    2.4086   -0.0239 H       1  LIG1        0.1237
     35 H           2.7524    4.0048    7.4368 H       1  LIG1        0.1711
     36 H           0.0594    5.9706   -1.7711 H       1  LIG1        0.1308
     37 H          -0.4415    5.3758    4.8907 H       1  LIG1        0.1870
     38 H           4.7928    6.3032   -0.5600 H       1  LIG1        0.2007
     39 H          -0.1624    4.5801    0.2014 H       1  LIG1        0.1738
     40 H           2.0093    3.4023    1.7271 H       1  LIG1        0.3091
@<TRIPOS>BOND
     1     1     2   ar
     2     1     3   ar
     3     2     8   ar
     4     3     9   ar
     5     4     6   ar
     6     4    11   ar
     7     5     7   ar
     8     5    10   ar
     9     6    13   ar
    10     7    14   ar
    11     8    15   ar
    12     9    15   ar
    13    10    16   ar
    14    11    17   ar
    15    12    14   ar
    16    12    16   ar
    17    13    20   ar
    18    14    18    1
    19    15    19    1
    20    16    22    1
    21    17    19    1
    22    17    20   ar
    23    18    21   am
    24    18    24    2
    25    19    21    1
    26    22    23    1
    27    22    25    2
    28     1    26    1
    29     2    27    1
    30     3    28    1
    31     4    29    1
    32     5    30    1
    33     6    31    1
    34     7    32    1
    35     8    33    1
    36     9    34    1
    37    10    35    1
    38    11    36    1
    39    12    37    1
    40    13    38    1
    41    19    39    1
    42    21    40    1
