@<TRIPOS>MOLECULE
AN-919/15558043
 37 40 0 0 0
SMALL
USER_CHARGES

@<TRIPOS>ATOM
      1 C           2.0238    4.7490    8.2723 C.1     1  LIG1        0.0612
      2 C           2.3108    7.2334   -2.8814 C.ar    1  LIG1       -0.1021
      3 C           1.0548    7.1379   -2.2821 C.ar    1  LIG1       -0.0952
      4 C           3.3895    6.5207   -2.3575 C.ar    1  LIG1       -0.1001
      5 C           1.4964    1.2631   -2.3518 C.ar    1  LIG1       -0.1091
      6 C           3.0657    4.2333    6.1206 C.ar    1  LIG1       -0.0443
      7 C           0.7312    4.8503    6.1992 C.ar    1  LIG1       -0.0381
      8 C           0.8775    6.3297   -1.1591 C.ar    1  LIG1       -0.0779
      9 C           3.2122    5.7127   -1.2345 C.ar    1  LIG1       -0.0842
     10 C           2.9832    4.0975    4.7348 C.ar    1  LIG1       -0.0547
     11 C           0.6486    4.7145    4.8134 C.ar    1  LIG1       -0.0442
     12 C           2.0441    2.1918   -1.4204 C.ar    1  LIG1       -0.0883
     13 C           0.1997    0.9197   -2.0386 C.ar    1  LIG1       -0.0503
     14 C           1.9397    4.6097    6.8528 C.ar    1  LIG1        0.0577
     15 C           1.9563    5.6171   -0.6352 C.ar    1  LIG1       -0.0489
     16 C           1.7746    4.3381    4.0812 C.ar    1  LIG1       -0.0047
     17 C           1.4279    3.4583    0.6694 C.ar    1  LIG1        0.0151
     18 C           1.7727    4.7814    0.5247 C.ar    1  LIG1       -0.0083
     19 C           1.1449    2.5232   -0.4306 C.ar    1  LIG1        0.0032
     20 C           1.6892    4.1978    2.6481 C.ar    1  LIG1        0.0250
     21 N           2.0922    4.8620    9.4253 N.1     1  LIG1       -0.3728
     22 N           1.3774    3.1012    1.9936 N.ar    1  LIG1       -0.3502
     23 N           1.9364    5.2420    1.8008 N.ar    1  LIG1       -0.3199
     24 S          -0.3524    1.7157   -0.6265 S.2     1  LIG1       -0.1208
     25 H           2.4486    7.8621   -3.7562 H       1  LIG1        0.1209
     26 H           0.2151    7.6929   -2.6900 H       1  LIG1        0.1227
     27 H           4.3672    6.5943   -2.8248 H       1  LIG1        0.1194
     28 H           2.0266    0.8677   -3.2085 H       1  LIG1        0.1129
     29 H           4.0147    4.0425    6.6160 H       1  LIG1        0.1488
     30 H          -0.1554    5.1444    6.7561 H       1  LIG1        0.1516
     31 H          -0.1083    6.2637   -0.7050 H       1  LIG1        0.1309
     32 H           4.0633    5.1644   -0.8376 H       1  LIG1        0.1211
     33 H           3.8697    3.8034    4.1779 H       1  LIG1        0.1312
     34 H          -0.3006    4.9056    4.3184 H       1  LIG1        0.1556
     35 H           3.0489    2.5921   -1.4808 H       1  LIG1        0.1229
     36 H          -0.4503    0.2401   -2.5714 H       1  LIG1        0.1622
     37 H           2.1941    6.1830    2.0694 H       1  LIG1        0.3515
@<TRIPOS>BOND
     1     1    14    1
     2     1    21    3
     3     2     3   ar
     4     2     4   ar
     5     3     8   ar
     6     4     9   ar
     7     5    12   ar
     8     5    13   ar
     9     6    10   ar
    10     6    14   ar
    11     7    11   ar
    12     7    14   ar
    13     8    15   ar
    14     9    15   ar
    15    10    16   ar
    16    11    16   ar
    17    12    19   ar
    18    13    24   ar
    19    15    18    1
    20    16    20    1
    21    17    18   ar
    22    17    19    1
    23    17    22   ar
    24    18    23   ar
    25    19    24   ar
    26    20    22   ar
    27    20    23   ar
    28     2    25    1
    29     3    26    1
    30     4    27    1
    31     5    28    1
    32     6    29    1
    33     7    30    1
    34     8    31    1
    35     9    32    1
    36    10    33    1
    37    11    34    1
    38    12    35    1
    39    13    36    1
    40    23    37    1
