@<TRIPOS>MOLECULE
AG-690/36921272
 38 41 0 0 0
SMALL
USER_CHARGES

@<TRIPOS>ATOM
      1 C           1.3717    4.8423    6.0871 C.ar    1  LIG1       -0.1028
      2 C           0.2899    0.3915   -1.8713 C.ar    1  LIG1       -0.0994
      3 C           0.7294    4.4799    4.9033 C.ar    1  LIG1       -0.0963
      4 C           2.7587    4.7334    6.1898 C.ar    1  LIG1       -0.0965
      5 C          -0.4985    1.5275   -1.6875 C.ar    1  LIG1       -0.0950
      6 C           1.6540    0.4354   -1.5837 C.ar    1  LIG1       -0.0890
      7 C           1.5463    6.8404   -2.8302 C.ar    1  LIG1       -0.0832
      8 C           2.2824    7.8135   -2.1445 C.ar    1  LIG1       -0.0840
      9 C           1.4740    4.0084    3.8220 C.ar    1  LIG1       -0.0666
     10 C           3.5031    4.2620    5.1086 C.ar    1  LIG1       -0.0659
     11 C           0.0774    2.7072   -1.2162 C.ar    1  LIG1       -0.0667
     12 C           2.2300    1.6151   -1.1124 C.ar    1  LIG1       -0.0584
     13 C           1.4249    5.5432   -2.3192 C.ar    1  LIG1       -0.0587
     14 C           2.8983    7.5058   -0.9335 C.ar    1  LIG1       -0.0672
     15 C           2.8608    3.8995    3.9247 C.ar    1  LIG1        0.0291
     16 C           1.4416    2.7511   -0.9286 C.ar    1  LIG1       -0.0252
     17 C           2.0566    5.2163   -1.1218 C.ar    1  LIG1       -0.0149
     18 C           2.7717    6.2157   -0.4384 C.ar    1  LIG1        0.0302
     19 C           2.7127    3.9922    0.7753 C.ar    1  LIG1        0.1377
     20 C           3.6570    3.3951    2.7682 C.2     1  LIG1        0.1334
     21 N           2.9210    3.0667    1.6510 N.am    1  LIG1       -0.2842
     22 N           2.0301    3.9559   -0.4471 N.ar    1  LIG1       -0.2843
     23 O           4.8766    3.3082    2.8843 O.2     1  LIG1       -0.4716
     24 S           3.4177    5.6007    1.0963 S.2     1  LIG1        0.0248
     25 H           0.7921    5.2094    6.9290 H       1  LIG1        0.1235
     26 H          -0.1587   -0.5270   -2.2386 H       1  LIG1        0.1225
     27 H          -0.3504    4.5646    4.8236 H       1  LIG1        0.1193
     28 H           3.2588    5.0160    7.1115 H       1  LIG1        0.1176
     29 H          -1.5604    1.4933   -1.9114 H       1  LIG1        0.1262
     30 H           2.2678   -0.4494   -1.7270 H       1  LIG1        0.1285
     31 H           1.0623    7.0955   -3.7692 H       1  LIG1        0.1386
     32 H           2.3647    8.8160   -2.5550 H       1  LIG1        0.1360
     33 H           0.9632    3.7287    2.9041 H       1  LIG1        0.1391
     34 H           4.5832    4.1812    5.1999 H       1  LIG1        0.1421
     35 H          -0.5456    3.5869   -1.0764 H       1  LIG1        0.1296
     36 H           3.2941    1.6374   -0.8914 H       1  LIG1        0.1422
     37 H           0.8461    4.8069   -2.8688 H       1  LIG1        0.1396
     38 H           3.4548    8.2663   -0.3954 H       1  LIG1        0.1496
@<TRIPOS>BOND
     1     1     3   ar
     2     1     4   ar
     3     2     5   ar
     4     2     6   ar
     5     3     9   ar
     6     4    10   ar
     7     5    11   ar
     8     6    12   ar
     9     7     8   ar
    10     7    13   ar
    11     8    14   ar
    12     9    15   ar
    13    10    15   ar
    14    11    16   ar
    15    12    16   ar
    16    13    17   ar
    17    14    18   ar
    18    15    20    1
    19    16    22    1
    20    17    18   ar
    21    17    22   ar
    22    18    24   ar
    23    19    21    2
    24    19    22   ar
    25    19    24   ar
    26    20    21    1
    27    20    23    2
    28     1    25    1
    29     2    26    1
    30     3    27    1
    31     4    28    1
    32     5    29    1
    33     6    30    1
    34     7    31    1
    35     8    32    1
    36     9    33    1
    37    10    34    1
    38    11    35    1
    39    12    36    1
    40    13    37    1
    41    14    38    1
