@<TRIPOS>MOLECULE
AE-848/11421718
 42 45 0 0 0
SMALL
USER_CHARGES

@<TRIPOS>ATOM
      1 C           2.3057    6.5552   -2.4876 C.ar    1  LIG1       -0.1007
      2 C           1.7895    7.5280   -1.6337 C.ar    1  LIG1       -0.0933
      3 C           0.9428    0.7909   -2.0100 C.ar    1  LIG1       -0.1175
      4 C           3.1117    4.4055    4.3456 C.ar    1  LIG1       -0.0690
      5 C           0.7213    4.6986    4.1524 C.ar    1  LIG1       -0.0779
      6 C           2.5951    5.2799   -2.0003 C.ar    1  LIG1       -0.0917
      7 C           1.5684    7.2292   -0.2907 C.ar    1  LIG1       -0.0526
      8 C           2.9990    4.4026    5.7360 C.ar    1  LIG1       -0.0529
      9 C           0.6086    4.6955    5.5428 C.ar    1  LIG1       -0.0650
     10 C           2.0883    1.5239   -1.5845 C.ar    1  LIG1       -0.1103
     11 C          -0.2247    1.3122   -1.4978 C.ar    1  LIG1       -0.0591
     12 C           1.9728    4.5535    3.5539 C.ar    1  LIG1       -0.0350
     13 C           2.3681    4.9645   -0.6522 C.ar    1  LIG1       -0.0476
     14 C           1.8640    5.9542    0.1961 C.ar    1  LIG1        0.0225
     15 C           1.7475    4.5476    6.3344 C.ar    1  LIG1       -0.0133
     16 C           1.7522    2.5778   -0.7634 C.ar    1  LIG1       -0.0510
     17 C           2.0903    4.5566    2.1050 C.2     1  LIG1        0.0201
     18 C           2.5920    3.5151    1.4046 C.2     1  LIG1       -0.0750
     19 C           2.6534    3.5746   -0.1176 C.3     1  LIG1        0.0046
     20 C           3.1304    2.2506    2.0274 C.3     1  LIG1       -0.0440
     21 C           2.8421    4.3893    8.4398 C.3     1  LIG1        0.0241
     22 O           1.6387    5.7363    1.5329 O.3     1  LIG1       -0.3576
     23 O           1.6375    4.5448    7.6911 O.3     1  LIG1       -0.4172
     24 S           0.0620    2.6800   -0.5083 S.2     1  LIG1       -0.1477
     25 H           2.4813    6.7888   -3.5336 H       1  LIG1        0.1162
     26 H           1.5627    8.5196   -2.0141 H       1  LIG1        0.1310
     27 H           0.9730   -0.0744   -2.6592 H       1  LIG1        0.1094
     28 H           4.0941    4.2914    3.8937 H       1  LIG1        0.1440
     29 H          -0.1756    4.8148    3.5487 H       1  LIG1        0.1382
     30 H           2.9957    4.5325   -2.6808 H       1  LIG1        0.1286
     31 H           1.1716    7.9941    0.3714 H       1  LIG1        0.1327
     32 H           3.8897    4.2869    6.3474 H       1  LIG1        0.1316
     33 H          -0.3690    4.8089    6.0034 H       1  LIG1        0.1143
     34 H           3.1052    1.2870   -1.8704 H       1  LIG1        0.1105
     35 H          -1.2324    0.9551   -1.6569 H       1  LIG1        0.1585
     36 H           3.6860    3.3346   -0.4072 H       1  LIG1        0.1285
     37 H           2.3225    1.5340    2.1287 H       1  LIG1        0.0546
     38 H           3.5444    2.4843    3.0027 H       1  LIG1        0.0562
     39 H           3.9089    1.8454    1.3894 H       1  LIG1        0.0516
     40 H           2.6124    4.4045    9.5082 H       1  LIG1        0.1223
     41 H           3.5326    5.1998    8.1932 H       1  LIG1        0.0898
     42 H           3.3001    3.4317    8.1815 H       1  LIG1        0.0898
@<TRIPOS>BOND
     1     1     2   ar
     2     1     6   ar
     3     2     7   ar
     4     3    10   ar
     5     3    11   ar
     6     4     8   ar
     7     4    12   ar
     8     5     9   ar
     9     5    12   ar
    10     6    13   ar
    11     7    14   ar
    12     8    15   ar
    13     9    15   ar
    14    10    16   ar
    15    11    24   ar
    16    12    17    1
    17    13    14   ar
    18    13    19    1
    19    14    22    1
    20    15    23    1
    21    16    19    1
    22    16    24   ar
    23    17    18    2
    24    17    22    1
    25    18    19    1
    26    18    20    1
    27    21    23    1
    28     1    25    1
    29     2    26    1
    30     3    27    1
    31     4    28    1
    32     5    29    1
    33     6    30    1
    34     7    31    1
    35     8    32    1
    36     9    33    1
    37    10    34    1
    38    11    35    1
    39    19    36    1
    40    20    37    1
    41    20    38    1
    42    20    39    1
    43    21    40    1
    44    21    41    1
    45    21    42    1
