@<TRIPOS>MOLECULE
AN-651/14405044
 45 48 0 0 0
SMALL
USER_CHARGES

@<TRIPOS>ATOM
      1 C           1.3465    4.5124    6.5513 C.ar    1  LIG1       -0.1073
      2 C          -0.1496    0.9374   -1.5204 C.ar    1  LIG1       -0.1024
      3 C           2.6455    4.8923    6.2142 C.ar    1  LIG1       -0.1044
      4 C           0.5123    3.9475    5.5864 C.ar    1  LIG1       -0.1009
      5 C           1.1406    0.6965   -1.9923 C.ar    1  LIG1       -0.1015
      6 C          -0.3751    1.9584   -0.5971 C.ar    1  LIG1       -0.0998
      7 C           3.1104    4.7074    4.9121 C.ar    1  LIG1       -0.0924
      8 C           0.9773    3.7626    4.2844 C.ar    1  LIG1       -0.0877
      9 C           2.2054    1.4764   -1.5410 C.ar    1  LIG1       -0.0922
     10 C           0.6896    2.7383   -0.1457 C.ar    1  LIG1       -0.0891
     11 C           1.4975    6.6557   -0.6260 C.ar    1  LIG1       -0.0495
     12 C           3.1438    5.5973   -2.0426 C.ar    1  LIG1       -0.0538
     13 C           1.1976    7.5567   -1.6477 C.ar    1  LIG1       -0.0591
     14 C           2.8438    6.4982   -3.0643 C.ar    1  LIG1       -0.0626
     15 C           2.2763    4.1426    3.9472 C.ar    1  LIG1       -0.0635
     16 C           1.9799    2.4974   -0.6177 C.ar    1  LIG1       -0.0457
     17 C           2.4707    5.6760   -0.8234 C.ar    1  LIG1       -0.0239
     18 C           1.8707    7.4780   -2.8668 C.ar    1  LIG1       -0.0112
     19 C           2.7666    3.9473    2.5725 C.2     1  LIG1        0.0575
     20 C           3.3813    2.8182    2.1818 C.2     1  LIG1        0.0237
     21 C           2.6564    5.0797    1.5984 C.2     1  LIG1        0.1341
     22 C           3.1400    3.3478   -0.1252 C.3     1  LIG1        0.1047
     23 C           3.6478    1.6189    3.0456 C.3     1  LIG1        0.0106
     24 N           2.7840    4.7337    0.2448 N.am    1  LIG1       -0.2775
     25 O           2.4805    6.2098    2.0528 O.2     1  LIG1       -0.4568
     26 O           3.8487    2.6389    0.9035 O.2     1  LIG1       -0.3614
     27 CL          1.5004    8.5898   -4.1276 Cl      1  LIG1       -0.1407
     28 H           0.9848    4.6551    7.5654 H       1  LIG1        0.1148
     29 H          -0.9787    0.3309   -1.8729 H       1  LIG1        0.1225
     30 H           3.2955    5.3311    6.9655 H       1  LIG1        0.1153
     31 H          -0.4988    3.6506    5.8492 H       1  LIG1        0.1168
     32 H           1.3164   -0.0977   -2.7121 H       1  LIG1        0.1186
     33 H          -1.3797    2.1470   -0.2302 H       1  LIG1        0.1210
     34 H           4.1255    5.0087    4.6644 H       1  LIG1        0.1185
     35 H           0.3151    3.3210    3.5436 H       1  LIG1        0.1247
     36 H           3.2074    1.2814   -1.9141 H       1  LIG1        0.1187
     37 H           0.5043    3.5315    0.5738 H       1  LIG1        0.1283
     38 H           0.9672    6.7262    0.3201 H       1  LIG1        0.1433
     39 H           3.9038    4.8379   -2.2071 H       1  LIG1        0.1403
     40 H           0.4370    8.3148   -1.4802 H       1  LIG1        0.1400
     41 H           3.3762    6.4255   -4.0091 H       1  LIG1        0.1397
     42 H           3.8556    3.4040   -0.9831 H       1  LIG1        0.2342
     43 H           2.8073    0.9328    2.9797 H       1  LIG1        0.0872
     44 H           3.7800    1.9380    4.0765 H       1  LIG1        0.0816
     45 H           4.5533    1.1228    2.7050 H       1  LIG1        0.0880
@<TRIPOS>BOND
     1     1     3   ar
     2     1     4   ar
     3     2     5   ar
     4     2     6   ar
     5     3     7   ar
     6     4     8   ar
     7     5     9   ar
     8     6    10   ar
     9     7    15   ar
    10     8    15   ar
    11     9    16   ar
    12    10    16   ar
    13    11    13   ar
    14    11    17   ar
    15    12    14   ar
    16    12    17   ar
    17    13    18   ar
    18    14    18   ar
    19    15    19    1
    20    16    22    1
    21    17    24    1
    22    18    27    1
    23    19    20    2
    24    19    21    1
    25    20    23    1
    26    20    26    1
    27    21    24   am
    28    21    25    2
    29    22    24    1
    30    22    26    1
    31     1    28    1
    32     2    29    1
    33     3    30    1
    34     4    31    1
    35     5    32    1
    36     6    33    1
    37     7    34    1
    38     8    35    1
    39     9    36    1
    40    10    37    1
    41    11    38    1
    42    12    39    1
    43    13    40    1
    44    14    41    1
    45    22    42    1
    46    23    43    1
    47    23    44    1
    48    23    45    1
