@<TRIPOS>MOLECULE
AG-205/13764107
 49 52 0 0 0
SMALL
USER_CHARGES

@<TRIPOS>ATOM
      1 C           2.9094    3.6004    4.7214 C.ar    1  LIG1       -0.0655
      2 C           0.9749    4.9877    4.3088 C.ar    1  LIG1       -0.0634
      3 C           2.2840    1.4339   -1.0346 C.ar    1  LIG1       -0.0929
      4 C           3.0986    5.4755   -1.8824 C.ar    1  LIG1       -0.0477
      5 C           1.3783    6.6876   -0.6958 C.ar    1  LIG1       -0.0445
      6 C           1.3242    0.6457   -1.6696 C.ar    1  LIG1       -0.0567
      7 C           2.6322    3.6203    6.0882 C.ar    1  LIG1       -0.0657
      8 C           0.6977    5.0076    5.6757 C.ar    1  LIG1       -0.0645
      9 C           2.9211    6.3066   -2.9886 C.ar    1  LIG1       -0.0759
     10 C           1.2008    7.5187   -1.8019 C.ar    1  LIG1       -0.0745
     11 C           0.5637    2.9957   -0.3729 C.ar    1  LIG1       -0.0520
     12 C           2.0807    4.2841    3.8316 C.ar    1  LIG1       -0.0291
     13 C           1.9037    2.6088   -0.3862 C.ar    1  LIG1       -0.0791
     14 C           2.3270    5.6659   -0.7361 C.ar    1  LIG1       -0.0171
     15 C          -0.0158    1.0327   -1.6564 C.ar    1  LIG1        0.0341
     16 C          -0.3961    2.2077   -1.0080 C.ar    1  LIG1        0.0349
     17 C           1.5263    4.3239    6.5655 C.ar    1  LIG1       -0.0128
     18 C           1.9724    7.3282   -2.9483 C.ar    1  LIG1       -0.0452
     19 C           2.3693    4.2632    2.4065 C.2     1  LIG1        0.0122
     20 C           3.0527    3.0806    1.7767 C.3     1  LIG1        0.0317
     21 C           2.9315    3.4519    0.2963 C.3     1  LIG1        0.0222
     22 C          -1.2073    0.5353   -3.6535 C.3     1  LIG1        0.0254
     23 C          -2.0067    3.8100   -0.3047 C.3     1  LIG1        0.0250
     24 N           2.0968    5.2350    1.5936 N.2     1  LIG1       -0.3201
     25 N           2.5005    4.8494    0.3501 N.pl3   1  LIG1       -0.3184
     26 O          -0.9435    0.2542   -2.2805 O.3     1  LIG1       -0.4078
     27 O          -1.7016    2.5963   -0.9889 O.3     1  LIG1       -0.4083
     28 CL          1.1836    4.3473    8.2515 Cl      1  LIG1       -0.1400
     29 BR          1.7335    8.4553   -4.4462 Br      1  LIG1       -0.1259
     30 H           3.7740    3.0495    4.3604 H       1  LIG1        0.1415
     31 H           0.3222    5.5238    3.6246 H       1  LIG1        0.1460
     32 H           3.3254    1.1237   -1.0487 H       1  LIG1        0.1210
     33 H           3.8401    4.6819   -1.9244 H       1  LIG1        0.1275
     34 H           0.7714    6.8439    0.1926 H       1  LIG1        0.1362
     35 H           1.6275   -0.2680   -2.1732 H       1  LIG1        0.1253
     36 H           3.2860    3.0826    6.7702 H       1  LIG1        0.1369
     37 H          -0.1675    5.5604    6.0330 H       1  LIG1        0.1365
     38 H           3.5292    6.1435   -3.8747 H       1  LIG1        0.1407
     39 H           0.4562    8.3091   -1.7551 H       1  LIG1        0.1407
     40 H           0.2645    3.9110    0.1324 H       1  LIG1        0.1280
     41 H           4.0998    3.0765    2.0982 H       1  LIG1        0.1017
     42 H           2.5745    2.1375    2.0552 H       1  LIG1        0.1016
     43 H           3.8907    3.3419   -0.2204 H       1  LIG1        0.1382
     44 H          -1.9649   -0.1570   -4.0290 H       1  LIG1        0.0890
     45 H          -0.2853    0.4314   -4.2313 H       1  LIG1        0.0888
     46 H          -1.5771    1.5595   -3.7421 H       1  LIG1        0.1230
     47 H          -3.0805    4.0033   -0.3654 H       1  LIG1        0.0884
     48 H          -1.4509    4.6345   -0.7582 H       1  LIG1        0.1227
     49 H          -1.7156    3.7098    0.7436 H       1  LIG1        0.0884
@<TRIPOS>BOND
     1     1     7   ar
     2     1    12   ar
     3     2     8   ar
     4     2    12   ar
     5     3     6   ar
     6     3    13   ar
     7     4     9   ar
     8     4    14   ar
     9     5    10   ar
    10     5    14   ar
    11     6    15   ar
    12     7    17   ar
    13     8    17   ar
    14     9    18   ar
    15    10    18   ar
    16    11    13   ar
    17    11    16   ar
    18    12    19    1
    19    13    21    1
    20    14    25    1
    21    15    16   ar
    22    15    26    1
    23    16    27    1
    24    17    28    1
    25    18    29    1
    26    19    20    1
    27    19    24    2
    28    20    21    1
    29    21    25    1
    30    22    26    1
    31    23    27    1
    32    24    25    1
    33     1    30    1
    34     2    31    1
    35     3    32    1
    36     4    33    1
    37     5    34    1
    38     6    35    1
    39     7    36    1
    40     8    37    1
    41     9    38    1
    42    10    39    1
    43    11    40    1
    44    20    41    1
    45    20    42    1
    46    21    43    1
    47    22    44    1
    48    22    45    1
    49    22    46    1
    50    23    47    1
    51    23    48    1
    52    23    49    1
