@<TRIPOS>MOLECULE
AM-814/41093808
 46 49 0 0 0
SMALL
USER_CHARGES

@<TRIPOS>ATOM
      1 C          -0.2480    1.4953   -0.9345 C.ar    1  LIG1       -0.0911
      2 C           0.5056    0.6401   -1.7383 C.ar    1  LIG1       -0.0882
      3 C           0.3528    2.6070   -0.3439 C.ar    1  LIG1       -0.0715
      4 C           2.8848    3.5542    4.7448 C.ar    1  LIG1       -0.0835
      5 C           0.9682    4.8003    3.9634 C.ar    1  LIG1       -0.0831
      6 C           3.2020    5.5742   -1.7334 C.ar    1  LIG1       -0.0831
      7 C           1.1895    6.2264   -0.5667 C.ar    1  LIG1       -0.0869
      8 C           1.8600    0.8963   -1.9514 C.ar    1  LIG1       -0.0580
      9 C           2.6932    4.0645    6.0286 C.ar    1  LIG1       -0.0716
     10 C           0.7765    5.3106    5.2474 C.ar    1  LIG1       -0.0714
     11 C           3.1177    6.7224   -2.5208 C.ar    1  LIG1       -0.0698
     12 C           1.1052    7.3747   -1.3540 C.ar    1  LIG1       -0.0722
     13 C           5.9421    2.5586   -1.3359 C.ar    1  LIG1       -0.0503
     14 C           4.7869    2.3061   -0.6343 C.ar    1  LIG1       -0.0436
     15 C           4.3992    2.4562   -2.7985 C.ar    1  LIG1        0.0047
     16 C           2.0224    3.9221    3.7121 C.ar    1  LIG1       -0.0702
     17 C           2.2378    5.3261   -0.7564 C.ar    1  LIG1       -0.0653
     18 C           1.7072    2.8634   -0.5570 C.ar    1  LIG1       -0.0214
     19 C           2.4609    2.0081   -1.3607 C.ar    1  LIG1       -0.0193
     20 C           1.6391    4.9427    6.2799 C.ar    1  LIG1       -0.0167
     21 C           2.0693    7.6227   -2.3311 C.ar    1  LIG1       -0.0147
     22 C           2.2258    3.3755    2.3394 C.3     1  LIG1        0.0303
     23 C           2.3299    4.0802    0.0999 C.3     1  LIG1        0.0547
     24 N           5.6940    2.6513   -2.6826 N.ar    1  LIG1       -0.4041
     25 N           3.8070    2.2436   -1.5847 N.ar    1  LIG1       -0.3328
     26 O           1.7656    4.3207    1.3815 O.3     1  LIG1       -0.4285
     27 CL          1.4028    5.5720    7.8639 Cl      1  LIG1       -0.1432
     28 CL          1.9656    9.0392   -3.3023 Cl      1  LIG1       -0.1406
     29 H          -1.3027    1.2960   -0.7690 H       1  LIG1        0.1280
     30 H           0.0379   -0.2258   -2.1980 H       1  LIG1        0.1306
     31 H          -0.2435    3.2668    0.2809 H       1  LIG1        0.1421
     32 H           3.7087    2.8706    4.5569 H       1  LIG1        0.1332
     33 H           0.2915    5.0917    3.1643 H       1  LIG1        0.1337
     34 H           4.0217    4.8773   -1.8876 H       1  LIG1        0.1356
     35 H           0.4343    6.0405    0.1926 H       1  LIG1        0.1315
     36 H           2.4335    0.2196   -2.5803 H       1  LIG1        0.1365
     37 H           3.3732    3.7686    6.8235 H       1  LIG1        0.1324
     38 H          -0.0491    5.9940    5.4283 H       1  LIG1        0.1326
     39 H           3.8763    6.9026   -3.2780 H       1  LIG1        0.1339
     40 H           0.2826    8.0673   -1.1949 H       1  LIG1        0.1358
     41 H           6.9396    2.6788   -0.9396 H       1  LIG1        0.1826
     42 H           4.5900    2.1713    0.4206 H       1  LIG1        0.1799
     43 H           3.8445    2.4589   -3.7278 H       1  LIG1        0.2633
     44 H           3.2866    3.1664    2.1445 H       1  LIG1        0.1104
     45 H           1.6744    2.4354    2.2009 H       1  LIG1        0.1091
     46 H           3.3887    3.8706    0.2996 H       1  LIG1        0.1407
@<TRIPOS>BOND
     1     1     2   ar
     2     1     3   ar
     3     2     8   ar
     4     3    18   ar
     5     4     9   ar
     6     4    16   ar
     7     5    10   ar
     8     5    16   ar
     9     6    11   ar
    10     6    17   ar
    11     7    12   ar
    12     7    17   ar
    13     8    19   ar
    14     9    20   ar
    15    10    20   ar
    16    11    21   ar
    17    12    21   ar
    18    13    14   ar
    19    13    24   ar
    20    14    25   ar
    21    15    24   ar
    22    15    25   ar
    23    16    22    1
    24    17    23    1
    25    18    19   ar
    26    18    23    1
    27    19    25    1
    28    20    27    1
    29    21    28    1
    30    22    26    1
    31    23    26    1
    32     1    29    1
    33     2    30    1
    34     3    31    1
    35     4    32    1
    36     5    33    1
    37     6    34    1
    38     7    35    1
    39     8    36    1
    40     9    37    1
    41    10    38    1
    42    11    39    1
    43    12    40    1
    44    13    41    1
    45    14    42    1
    46    15    43    1
    47    22    44    1
    48    22    45    1
    49    23    46    1
