@<TRIPOS>MOLECULE
AK-968/13146131
 41 44 0 0 0
SMALL
USER_CHARGES

@<TRIPOS>ATOM
      1 C           2.9094    3.6009    4.7219 C.ar    1  LIG1       -0.0640
      2 C           0.9745    4.9879    4.3099 C.ar    1  LIG1       -0.0622
      3 C           2.2731    1.4003   -0.9778 C.ar    1  LIG1       -0.0847
      4 C           0.5745    3.0286   -0.4297 C.ar    1  LIG1       -0.0824
      5 C           2.6328    3.6211    6.0888 C.ar    1  LIG1       -0.0414
      6 C           0.6980    5.0080    5.6769 C.ar    1  LIG1       -0.0405
      7 C           1.3136    0.6138   -1.6151 C.ar    1  LIG1       -0.0479
      8 C          -0.3850    2.2422   -1.0670 C.ar    1  LIG1       -0.0458
      9 C           1.9726    7.3274   -2.9480 C.ar    1  LIG1        0.0412
     10 C           2.0803    4.2844    3.8323 C.ar    1  LIG1       -0.0293
     11 C           1.9036    2.6077   -0.3849 C.ar    1  LIG1       -0.0753
     12 C           2.3263    5.6648   -0.7358 C.ar    1  LIG1        0.1142
     13 C           1.5271    4.3246    6.5664 C.ar    1  LIG1        0.0648
     14 C          -0.0155    1.0347   -1.6597 C.ar    1  LIG1        0.0624
     15 C           3.2230    6.7652   -2.6909 C.ar    1  LIG1        0.1579
     16 C           0.8991    7.0584   -2.0990 C.ar    1  LIG1        0.1586
     17 C           3.3998    5.9339   -1.5849 C.ar    1  LIG1        0.1943
     18 C           1.0759    6.2271   -0.9929 C.ar    1  LIG1        0.1960
     19 C           2.3689    4.2631    2.4071 C.2     1  LIG1        0.0118
     20 C           3.0525    3.0804    1.7777 C.3     1  LIG1        0.0313
     21 C           2.9312    3.4511    0.2972 C.3     1  LIG1        0.0192
     22 N           2.0962    5.2345    1.5940 N.2     1  LIG1       -0.3235
     23 N           2.4999    4.8486    0.3506 N.pl3   1  LIG1       -0.3125
     24 F           1.2614    4.3439    7.8791 F       1  LIG1       -0.2667
     25 F          -0.9366    0.2808   -2.2741 F       1  LIG1       -0.2679
     26 F           4.2540    7.0241   -3.5057 F       1  LIG1       -0.2390
     27 F          -0.3019    7.5979   -2.3460 F       1  LIG1       -0.2390
     28 F           4.6064    5.4002   -1.3466 F       1  LIG1       -0.2250
     29 F           0.0371    5.9744   -0.1843 F       1  LIG1       -0.2223
     30 H           3.7735    3.0495    4.3606 H       1  LIG1        0.1447
     31 H           0.3213    5.5235    3.6255 H       1  LIG1        0.1482
     32 H           3.3060    1.0636   -0.9474 H       1  LIG1        0.1353
     33 H           0.2774    3.9680    0.0293 H       1  LIG1        0.1356
     34 H           3.2781    3.0889    6.7814 H       1  LIG1        0.1350
     35 H          -0.1628    5.5562    6.0490 H       1  LIG1        0.1344
     36 H           1.6012   -0.3258   -2.0771 H       1  LIG1        0.1316
     37 H          -1.4200    2.5692   -1.1016 H       1  LIG1        0.1315
     38 H           1.8349    7.9748   -3.8088 H       1  LIG1        0.1780
     39 H           4.0995    3.0767    2.0993 H       1  LIG1        0.1021
     40 H           2.5745    2.1373    2.0567 H       1  LIG1        0.1034
     41 H           3.8905    3.3412   -0.2194 H       1  LIG1        0.1382
@<TRIPOS>BOND
     1     1     5   ar
     2     1    10   ar
     3     2     6   ar
     4     2    10   ar
     5     3     7   ar
     6     3    11   ar
     7     4     8   ar
     8     4    11   ar
     9     5    13   ar
    10     6    13   ar
    11     7    14   ar
    12     8    14   ar
    13     9    15   ar
    14     9    16   ar
    15    10    19    1
    16    11    21    1
    17    12    17   ar
    18    12    18   ar
    19    12    23    1
    20    13    24    1
    21    14    25    1
    22    15    17   ar
    23    15    26    1
    24    16    18   ar
    25    16    27    1
    26    17    28    1
    27    18    29    1
    28    19    20    1
    29    19    22    2
    30    20    21    1
    31    21    23    1
    32    22    23    1
    33     1    30    1
    34     2    31    1
    35     3    32    1
    36     4    33    1
    37     5    34    1
    38     6    35    1
    39     7    36    1
    40     8    37    1
    41     9    38    1
    42    20    39    1
    43    20    40    1
    44    21    41    1
