@<TRIPOS>MOLECULE
AE-842/31986032
 48 51 0 0 0
SMALL
USER_CHARGES

@<TRIPOS>ATOM
      1 C           0.3337    0.6900   -1.8294 C.ar    1  LIG1       -0.1104
      2 C           2.0373    7.5774   -2.6183 C.ar    1  LIG1       -0.1106
      3 C           1.6488    1.0304   -2.1458 C.ar    1  LIG1       -0.1077
      4 C          -0.3885    1.4652   -0.9221 C.ar    1  LIG1       -0.1079
      5 C           0.9354    6.7272   -2.5272 C.ar    1  LIG1       -0.1070
      6 C           3.1819    7.3194   -1.8638 C.ar    1  LIG1       -0.1092
      7 C           2.2419    2.1459   -1.5546 C.ar    1  LIG1       -0.0999
      8 C           0.2046    2.5808   -0.3310 C.ar    1  LIG1       -0.1005
      9 C           0.9779    5.6187   -1.6814 C.ar    1  LIG1       -0.0998
     10 C           3.2243    6.2110   -1.0181 C.ar    1  LIG1       -0.1032
     11 C           1.5198    2.9212   -0.6473 C.ar    1  LIG1       -0.0979
     12 C           2.1224    5.3607   -0.9269 C.ar    1  LIG1       -0.0996
     13 C           1.4891    6.8918    2.1403 C.2     1  LIG1        0.1452
     14 C           3.9843    4.2336    3.2659 C.3     1  LIG1       -0.0680
     15 C           3.3602    2.9930    2.6083 C.3     1  LIG1       -0.0698
     16 C           1.6600    4.1842    3.7484 C.3     1  LIG1       -0.0646
     17 C           2.3895    5.6992    2.0247 C.3     1  LIG1        0.0562
     18 C           2.7801    5.1789    3.4265 C.3     1  LIG1       -0.0429
     19 C           1.8777    3.3818    2.4635 C.3     1  LIG1       -0.0638
     20 C           1.6678    4.4854    1.3974 C.3     1  LIG1       -0.0227
     21 C           0.2619    8.4515    0.8577 C.3     1  LIG1        0.0322
     22 C           2.1696    4.1446    0.0016 C.3     1  LIG1       -0.0172
     23 O           1.1466    7.3912    3.2035 O.2     1  LIG1       -0.4621
     24 O           1.1275    7.3124    0.8949 O.3     1  LIG1       -0.3648
     25 H          -0.1285   -0.1779   -2.2909 H       1  LIG1        0.1110
     26 H           2.0046    8.4397   -3.2779 H       1  LIG1        0.1111
     27 H           2.2109    0.4275   -2.8530 H       1  LIG1        0.1131
     28 H          -1.4128    1.2012   -0.6765 H       1  LIG1        0.1132
     29 H           0.0446    6.9273   -3.1154 H       1  LIG1        0.1126
     30 H           4.0402    7.9806   -1.9354 H       1  LIG1        0.1128
     31 H           3.2672    2.4035   -1.8069 H       1  LIG1        0.1168
     32 H          -0.3657    3.1789    0.3749 H       1  LIG1        0.1151
     33 H           0.1146    4.9618   -1.6166 H       1  LIG1        0.1198
     34 H           4.1202    6.0178   -0.4340 H       1  LIG1        0.1144
     35 H           4.4067    3.9700    4.2421 H       1  LIG1        0.0449
     36 H           4.7830    4.6662    2.6551 H       1  LIG1        0.0475
     37 H           3.8419    2.7356    1.6620 H       1  LIG1        0.0486
     38 H           3.4648    2.1294    3.2758 H       1  LIG1        0.0416
     39 H           1.8474    3.6034    4.6581 H       1  LIG1        0.0524
     40 H           0.6691    4.6451    3.8112 H       1  LIG1        0.0458
     41 H           3.2708    6.0125    1.4535 H       1  LIG1        0.1180
     42 H           2.9312    5.9594    4.1760 H       1  LIG1        0.0819
     43 H           1.2129    2.5243    2.3370 H       1  LIG1        0.0764
     44 H           0.5897    4.6821    1.3168 H       1  LIG1        0.0874
     45 H           0.0349    8.7039   -0.1809 H       1  LIG1        0.0945
     46 H           0.7487    9.2965    1.3512 H       1  LIG1        0.1224
     47 H          -0.6655    8.2105    1.3828 H       1  LIG1        0.0942
     48 H           3.2306    3.8688    0.1377 H       1  LIG1        0.1005
@<TRIPOS>BOND
     1     1     3   ar
     2     1     4   ar
     3     2     5   ar
     4     2     6   ar
     5     3     7   ar
     6     4     8   ar
     7     5     9   ar
     8     6    10   ar
     9     7    11   ar
    10     8    11   ar
    11     9    12   ar
    12    10    12   ar
    13    11    22    1
    14    12    22    1
    15    13    17    1
    16    13    23    2
    17    13    24    1
    18    14    15    1
    19    14    18    1
    20    15    19    1
    21    16    18    1
    22    16    19    1
    23    17    18    1
    24    17    20    1
    25    19    20    1
    26    20    22    1
    27    21    24    1
    28     1    25    1
    29     2    26    1
    30     3    27    1
    31     4    28    1
    32     5    29    1
    33     6    30    1
    34     7    31    1
    35     8    32    1
    36     9    33    1
    37    10    34    1
    38    14    35    1
    39    14    36    1
    40    15    37    1
    41    15    38    1
    42    16    39    1
    43    16    40    1
    44    17    41    1
    45    18    42    1
    46    19    43    1
    47    20    44    1
    48    21    45    1
    49    21    46    1
    50    21    47    1
    51    22    48    1
