@<TRIPOS>MOLECULE
AG-690/36660058
 44 46 0 0 0
SMALL
USER_CHARGES

@<TRIPOS>ATOM
      1 C           1.8450    7.5802   -2.1486 C.ar    1  LIG1       -0.1045
      2 C           0.8061    6.9365   -1.4763 C.ar    1  LIG1       -0.1015
      3 C           3.1236    7.0227   -2.1536 C.ar    1  LIG1       -0.1025
      4 C           0.9440    4.8571    3.9647 C.ar    1  LIG1       -0.0648
      5 C           3.1907    4.3564    4.6987 C.ar    1  LIG1       -0.0569
      6 C           1.0458    5.7354   -0.8087 C.ar    1  LIG1       -0.0882
      7 C           3.3634    5.8217   -1.4860 C.ar    1  LIG1       -0.0909
      8 C           0.4912    4.7539    5.2800 C.ar    1  LIG1       -0.0662
      9 C           2.7380    4.2533    6.0140 C.ar    1  LIG1       -0.0502
     10 C           2.2937    4.6583    3.6741 C.ar    1  LIG1        0.0372
     11 C           2.3246    5.1780   -0.8136 C.ar    1  LIG1       -0.0514
     12 C           1.3882    4.4520    6.3047 C.ar    1  LIG1       -0.0125
     13 C           1.1217    2.2177    0.6308 C.2     1  LIG1       -0.0103
     14 C           2.7730    4.7676    2.2824 C.2     1  LIG1        0.1561
     15 C           1.7256    2.7327   -0.6411 C.3     1  LIG1        0.0542
     16 C           2.5866    3.8690   -0.0861 C.3     1  LIG1        0.0744
     17 C          -1.2141    1.4300    0.4630 C.3     1  LIG1       -0.0498
     18 C           1.9177    4.0398    8.5862 C.3     1  LIG1        0.0254
     19 C           0.2344    1.0182    0.6265 C.3     1  LIG1       -0.0043
     20 N           1.3967    2.8829    1.7069 N.2     1  LIG1       -0.3184
     21 N           2.2272    3.9046    1.3416 N.am    1  LIG1       -0.2357
     22 O           3.6301    5.6166    2.0439 O.2     1  LIG1       -0.4558
     23 O           3.9583    3.4838   -0.1689 O.3     1  LIG1       -0.4430
     24 O           0.9468    4.3511    7.5882 O.3     1  LIG1       -0.4147
     25 H           1.6578    8.5147   -2.6695 H       1  LIG1        0.1194
     26 H          -0.1898    7.3698   -1.4733 H       1  LIG1        0.1194
     27 H           3.9324    7.5230   -2.6778 H       1  LIG1        0.1174
     28 H           0.2359    5.0932    3.1745 H       1  LIG1        0.1720
     29 H           4.2445    4.1999    4.4827 H       1  LIG1        0.1529
     30 H           0.2304    5.2411   -0.2873 H       1  LIG1        0.1279
     31 H           4.3628    5.3948   -1.4951 H       1  LIG1        0.1169
     32 H          -0.5613    4.9098    5.5000 H       1  LIG1        0.1111
     33 H           3.4413    4.0175    6.8080 H       1  LIG1        0.1302
     34 H           2.3046    1.9436   -1.1294 H       1  LIG1        0.1189
     35 H           0.9148    3.0669   -1.2965 H       1  LIG1        0.1214
     36 H          -1.5197    2.0871    1.2831 H       1  LIG1        0.0424
     37 H          -1.8730    0.5551    0.4589 H       1  LIG1        0.0395
     38 H          -1.3675    1.9647   -0.4803 H       1  LIG1        0.0394
     39 H           1.4327    3.9893    9.5641 H       1  LIG1        0.0905
     40 H           2.6946    4.8084    8.5923 H       1  LIG1        0.0907
     41 H           2.3676    3.0715    8.3547 H       1  LIG1        0.1228
     42 H           0.5429    0.3611   -0.1919 H       1  LIG1        0.0956
     43 H           0.3770    0.4858    1.5713 H       1  LIG1        0.0958
     44 H           4.4760    4.1960    0.2414 H       1  LIG1        0.3497
@<TRIPOS>BOND
     1     1     2   ar
     2     1     3   ar
     3     2     6   ar
     4     3     7   ar
     5     4     8   ar
     6     4    10   ar
     7     5     9   ar
     8     5    10   ar
     9     6    11   ar
    10     7    11   ar
    11     8    12   ar
    12     9    12   ar
    13    10    14    1
    14    11    16    1
    15    12    24    1
    16    13    15    1
    17    13    19    1
    18    13    20    2
    19    14    21   am
    20    14    22    2
    21    15    16    1
    22    16    21    1
    23    16    23    1
    24    17    19    1
    25    18    24    1
    26    20    21    1
    27     1    25    1
    28     2    26    1
    29     3    27    1
    30     4    28    1
    31     5    29    1
    32     6    30    1
    33     7    31    1
    34     8    32    1
    35     9    33    1
    36    15    34    1
    37    15    35    1
    38    17    36    1
    39    17    37    1
    40    17    38    1
    41    18    39    1
    42    18    40    1
    43    18    41    1
    44    19    42    1
    45    19    43    1
    46    23    44    1
