@<TRIPOS>MOLECULE
AG-205/36915273
 52 55 0 0 0
SMALL
USER_CHARGES

@<TRIPOS>ATOM
      1 C           3.1337    4.2658    4.6782 C.ar    1  LIG1       -0.0734
      2 C           0.7703    4.4457    4.2103 C.ar    1  LIG1       -0.0757
      3 C           2.2875    1.4586   -1.0474 C.ar    1  LIG1       -0.0836
      4 C           0.5710    3.0650   -0.4907 C.ar    1  LIG1       -0.0837
      5 C           2.8642    4.2841    6.0466 C.ar    1  LIG1       -0.0929
      6 C           0.5008    4.4640    5.5787 C.ar    1  LIG1       -0.0941
      7 C           3.3500    6.0061   -1.6680 C.ar    1  LIG1       -0.0412
      8 C           1.0262    6.2688   -1.0611 C.ar    1  LIG1       -0.0375
      9 C           1.3345    0.6586   -1.6776 C.ar    1  LIG1       -0.0460
     10 C          -0.3821    2.2650   -1.1210 C.ar    1  LIG1       -0.0466
     11 C           3.1546    6.8331   -2.7740 C.ar    1  LIG1        0.0018
     12 C           0.8308    7.0959   -2.1672 C.ar    1  LIG1        0.0035
     13 C           2.0868    4.3466    3.7600 C.ar    1  LIG1       -0.0345
     14 C           1.9058    2.6619   -0.4538 C.ar    1  LIG1       -0.0755
     15 C           1.5478    4.3831    6.4968 C.ar    1  LIG1       -0.1116
     16 C           2.2856    5.7238   -0.8115 C.ar    1  LIG1       -0.0133
     17 C          -0.0003    1.0618   -1.7144 C.ar    1  LIG1        0.0635
     18 C           1.8952    7.3781   -3.0236 C.ar    1  LIG1        0.2846
     19 C           2.3666    4.3273    2.3329 C.2     1  LIG1        0.0100
     20 C           3.0619    3.1527    1.7010 C.3     1  LIG1        0.0325
     21 C           2.9264    3.5198    0.2207 C.3     1  LIG1        0.0242
     22 C           1.0421    3.0009    8.5268 C.3     1  LIG1       -0.0631
     23 C           1.2600    4.4016    7.9603 C.3     1  LIG1       -0.0477
     24 N           2.0761    5.2937    1.5203 N.2     1  LIG1       -0.3213
     25 N           2.4770    4.9115    0.2749 N.pl3   1  LIG1       -0.3166
     26 N           1.9986    9.9446   -3.7358 N.3     1  LIG1       -0.1597
     27 O           2.6629    8.0955   -5.4047 O.2     1  LIG1       -0.0828
     28 O           0.2400    8.3725   -4.7717 O.2     1  LIG1       -0.0828
     29 F          -0.9152    0.2949   -2.3220 F       1  LIG1       -0.2673
     30 S           1.6496    8.4130   -4.4081 S.O2    1  LIG1       -0.0704
     31 H           4.1630    4.1883    4.3377 H       1  LIG1        0.1359
     32 H          -0.0534    4.5094    3.5040 H       1  LIG1        0.1311
     33 H           3.3250    1.1357   -1.0232 H       1  LIG1        0.1312
     34 H           0.2643    4.0011   -0.0313 H       1  LIG1        0.1366
     35 H           3.6860    4.2203    6.7548 H       1  LIG1        0.1219
     36 H          -0.5281    4.5410    5.9208 H       1  LIG1        0.1222
     37 H           4.3356    5.5865   -1.4831 H       1  LIG1        0.1257
     38 H           0.1901    6.0561   -0.3996 H       1  LIG1        0.1351
     39 H           1.6316   -0.2778   -2.1402 H       1  LIG1        0.1319
     40 H          -1.4215    2.5784   -1.1495 H       1  LIG1        0.1340
     41 H           3.9909    7.0461   -3.4345 H       1  LIG1        0.1585
     42 H          -0.1548    7.5148   -2.3520 H       1  LIG1        0.1581
     43 H           4.1109    3.1633    2.0158 H       1  LIG1        0.1038
     44 H           2.5981    2.2038    1.9840 H       1  LIG1        0.1024
     45 H           3.8837    3.4219   -0.3019 H       1  LIG1        0.1402
     46 H           0.2274    2.4882    8.0041 H       1  LIG1        0.0342
     47 H           0.7860    3.0485    9.5898 H       1  LIG1        0.0343
     48 H           1.9453    2.3902    8.4224 H       1  LIG1        0.0369
     49 H           2.0840    4.8869    8.5075 H       1  LIG1        0.0616
     50 H           0.3700    5.0167    8.1689 H       1  LIG1        0.0616
     51 H           2.8723   10.4062   -4.0163 H       1  LIG1        0.3174
     52 H           1.2168   10.5933   -3.5829 H       1  LIG1        0.3204
@<TRIPOS>BOND
     1     1     5   ar
     2     1    13   ar
     3     2     6   ar
     4     2    13   ar
     5     3     9   ar
     6     3    14   ar
     7     4    10   ar
     8     4    14   ar
     9     5    15   ar
    10     6    15   ar
    11     7    11   ar
    12     7    16   ar
    13     8    12   ar
    14     8    16   ar
    15     9    17   ar
    16    10    17   ar
    17    11    18   ar
    18    12    18   ar
    19    13    19    1
    20    14    21    1
    21    15    23    1
    22    16    25    1
    23    17    29    1
    24    18    30    1
    25    19    20    1
    26    19    24    2
    27    20    21    1
    28    21    25    1
    29    22    23    1
    30    24    25    1
    31    26    30    1
    32    27    30    2
    33    28    30    2
    34     1    31    1
    35     2    32    1
    36     3    33    1
    37     4    34    1
    38     5    35    1
    39     6    36    1
    40     7    37    1
    41     8    38    1
    42     9    39    1
    43    10    40    1
    44    11    41    1
    45    12    42    1
    46    20    43    1
    47    20    44    1
    48    21    45    1
    49    22    46    1
    50    22    47    1
    51    22    48    1
    52    23    49    1
    53    23    50    1
    54    26    51    1
    55    26    52    1
