@<TRIPOS>MOLECULE
AG-690/11634796
 41 43 0 0 0
SMALL
USER_CHARGES

@<TRIPOS>ATOM
      1 C           0.9992    0.4282   -1.9978 C.ar    1  LIG1       -0.1057
      2 C           2.8388    7.3946   -1.9152 C.ar    1  LIG1       -0.1073
      3 C           0.9747    4.7541    6.0288 C.ar    1  LIG1       -0.0768
      4 C           2.0838    1.3052   -1.9773 C.ar    1  LIG1       -0.1023
      5 C          -0.1944    0.7802   -1.3677 C.ar    1  LIG1       -0.1049
      6 C           1.5467    7.0803   -2.3360 C.ar    1  LIG1       -0.1058
      7 C           3.4254    6.6799   -0.8707 C.ar    1  LIG1       -0.1031
      8 C           2.2814    4.3367    6.2818 C.ar    1  LIG1       -0.0722
      9 C           0.5672    5.0163    4.7208 C.ar    1  LIG1       -0.0489
     10 C           1.9746    2.5341   -1.3267 C.ar    1  LIG1       -0.0914
     11 C          -0.3035    2.0091   -0.7171 C.ar    1  LIG1       -0.0956
     12 C           0.8410    6.0513   -1.7122 C.ar    1  LIG1       -0.0951
     13 C           2.7197    5.6510   -0.2470 C.ar    1  LIG1       -0.0915
     14 C           3.1806    4.1818    5.2268 C.ar    1  LIG1       -0.0356
     15 C           1.4664    4.8613    3.6658 C.ar    1  LIG1        0.0727
     16 C           0.7810    2.8862   -0.6965 C.ar    1  LIG1       -0.0736
     17 C           1.4275    5.3367   -0.6677 C.ar    1  LIG1       -0.0724
     18 C           2.7731    4.4440    3.9187 C.ar    1  LIG1        0.1014
     19 C           1.0038    5.1432    2.3120 C.2     1  LIG1        0.1260
     20 C           0.6619    4.2197    0.0101 C.3     1  LIG1        0.0155
     21 N           1.0615    4.0912    1.3930 N.am    1  LIG1       -0.3242
     22 N           3.7097    4.2781    2.8604 N.pl3   1  LIG1       -0.0283
     23 O           3.7955    3.1614    2.2979 O.2     1  LIG1       -0.1130
     24 O           0.6019    6.2787    2.0099 O.2     1  LIG1       -0.4571
     25 O           4.4202    5.2538    2.5228 O.2     1  LIG1       -0.2518
     26 H           1.0839   -0.5282   -2.5056 H       1  LIG1        0.1173
     27 H           3.3887    8.1949   -2.4019 H       1  LIG1        0.1150
     28 H           0.2743    4.8741    6.8502 H       1  LIG1        0.1483
     29 H           3.0129    1.0316   -2.4687 H       1  LIG1        0.1198
     30 H          -1.0394    0.0982   -1.3845 H       1  LIG1        0.1177
     31 H           1.0902    7.6358   -3.1500 H       1  LIG1        0.1137
     32 H           4.4318    6.9237   -0.5435 H       1  LIG1        0.1175
     33 H           2.5984    4.1317    7.3002 H       1  LIG1        0.1512
     34 H          -0.4543    5.3403    4.5370 H       1  LIG1        0.1482
     35 H           2.8249    3.2110   -1.3156 H       1  LIG1        0.1233
     36 H          -1.2374    2.2750   -0.2288 H       1  LIG1        0.1134
     37 H          -0.1654    5.8135   -2.0467 H       1  LIG1        0.1127
     38 H           3.1847    5.0998    0.5661 H       1  LIG1        0.1218
     39 H           4.1961    3.8564    5.4402 H       1  LIG1        0.1594
     40 H          -0.3957    4.5105    0.0559 H       1  LIG1        0.1581
     41 H           1.4579    3.2018    1.6782 H       1  LIG1        0.3033
@<TRIPOS>BOND
     1     1     4   ar
     2     1     5   ar
     3     2     6   ar
     4     2     7   ar
     5     3     8   ar
     6     3     9   ar
     7     4    10   ar
     8     5    11   ar
     9     6    12   ar
    10     7    13   ar
    11     8    14   ar
    12     9    15   ar
    13    10    16   ar
    14    11    16   ar
    15    12    17   ar
    16    13    17   ar
    17    14    18   ar
    18    15    18   ar
    19    15    19    1
    20    16    20    1
    21    17    20    1
    22    18    22    1
    23    19    21   am
    24    19    24    2
    25    20    21    1
    26    22    23    1
    27    22    25    2
    28     1    26    1
    29     2    27    1
    30     3    28    1
    31     4    29    1
    32     5    30    1
    33     6    31    1
    34     7    32    1
    35     8    33    1
    36     9    34    1
    37    10    35    1
    38    11    36    1
    39    12    37    1
    40    13    38    1
    41    14    39    1
    42    20    40    1
    43    21    41    1
