@<TRIPOS>MOLECULE
AF-399/41980429
 38 41 0 0 0
SMALL
USER_CHARGES

@<TRIPOS>ATOM
      1 C           1.4394    5.0326    6.1135 C.ar    1  LIG1       -0.1078
      2 C           2.7268    4.5155    5.9699 C.ar    1  LIG1       -0.1037
      3 C           0.5588    5.0221    5.0317 C.ar    1  LIG1       -0.1083
      4 C           2.5527    7.3861   -2.1124 C.ar    1  LIG1       -0.0908
      5 C           1.3950    6.6999   -2.4865 C.ar    1  LIG1       -0.0950
      6 C           3.1337    3.9877    4.7445 C.ar    1  LIG1       -0.0967
      7 C           0.9658    4.4943    3.8064 C.ar    1  LIG1       -0.1038
      8 C           3.2891    6.9983   -0.9860 C.ar    1  LIG1       -0.0609
      9 C           0.9314    5.6040   -1.7513 C.ar    1  LIG1       -0.0719
     10 C           2.2532    3.9772    3.6627 C.ar    1  LIG1       -0.0853
     11 C           2.8377    5.8995   -0.2356 C.ar    1  LIG1       -0.0194
     12 C           1.6806    5.2357   -0.6334 C.ar    1  LIG1       -0.0290
     13 C           2.5569    4.3304    1.1853 C.ar    1  LIG1        0.0101
     14 C           1.6724    1.9968   -1.6041 C.3     1  LIG1       -0.0114
     15 C           0.3924    2.4504   -0.9657 C.3     1  LIG1       -0.0030
     16 C           0.7447    0.9919   -0.9867 C.3     1  LIG1        0.0700
     17 C           2.6965    3.4020    2.3260 C.3     1  LIG1        0.0429
     18 C           0.4590    3.2609    0.3174 C.3     1  LIG1        0.0017
     19 N           3.3681    5.3230    0.8956 N.ar    1  LIG1       -0.3728
     20 N           1.5250    4.2368    0.2934 N.ar    1  LIG1       -0.3448
     21 CL          1.2624    0.1874    0.4902 Cl      1  LIG1       -0.1672
     22 CL         -0.1696   -0.0602   -2.0652 Cl      1  LIG1       -0.1663
     23 H           1.1221    5.4423    7.0681 H       1  LIG1        0.1154
     24 H           3.4121    4.5227    6.8124 H       1  LIG1        0.1177
     25 H          -0.4440    5.4235    5.1435 H       1  LIG1        0.1142
     26 H           2.8887    8.2334   -2.7047 H       1  LIG1        0.1211
     27 H           0.8429    7.0234   -3.3656 H       1  LIG1        0.1252
     28 H           4.1388    3.5871    4.6418 H       1  LIG1        0.1252
     29 H           0.2729    4.4904    2.9690 H       1  LIG1        0.1100
     30 H           4.1876    7.5378   -0.7044 H       1  LIG1        0.1411
     31 H           0.0332    5.0713   -2.0428 H       1  LIG1        0.1231
     32 H           1.7519    2.0399   -2.6846 H       1  LIG1        0.0984
     33 H           2.5984    2.2372   -1.0942 H       1  LIG1        0.0964
     34 H          -0.3937    2.8109   -1.6175 H       1  LIG1        0.1062
     35 H           3.7432    3.0501    2.4307 H       1  LIG1        0.1191
     36 H           2.1335    2.4628    2.1492 H       1  LIG1        0.1298
     37 H           0.6210    2.6053    1.1804 H       1  LIG1        0.1356
     38 H          -0.4832    3.7944    0.4866 H       1  LIG1        0.1344
@<TRIPOS>BOND
     1     1     2   ar
     2     1     3   ar
     3     2     6   ar
     4     3     7   ar
     5     4     5   ar
     6     4     8   ar
     7     5     9   ar
     8     6    10   ar
     9     7    10   ar
    10     8    11   ar
    11     9    12   ar
    12    10    17    1
    13    11    12   ar
    14    11    19   ar
    15    12    20   ar
    16    13    17    1
    17    13    19   ar
    18    13    20   ar
    19    14    15    1
    20    14    16    1
    21    15    16    1
    22    15    18    1
    23    16    21    1
    24    16    22    1
    25    18    20    1
    26     1    23    1
    27     2    24    1
    28     3    25    1
    29     4    26    1
    30     5    27    1
    31     6    28    1
    32     7    29    1
    33     8    30    1
    34     9    31    1
    35    14    32    1
    36    14    33    1
    37    15    34    1
    38    17    35    1
    39    17    36    1
    40    18    37    1
    41    18    38    1
