@<TRIPOS>MOLECULE
AG-670/34263040
 41 43 0 0 0
SMALL
USER_CHARGES

@<TRIPOS>ATOM
      1 C           1.4304    4.4579    6.2460 C.ar    1  LIG1       -0.1040
      2 C           0.5298    4.7611    5.2250 C.ar    1  LIG1       -0.0972
      3 C           2.7788    4.2577    5.9501 C.ar    1  LIG1       -0.1003
      4 C           0.9775    4.8641    3.9079 C.ar    1  LIG1       -0.0684
      5 C           3.2264    4.3605    4.6329 C.ar    1  LIG1       -0.0667
      6 C           1.0604    5.7420   -0.8654 C.ar    1  LIG1       -0.0856
      7 C           3.3748    5.8260   -1.5534 C.ar    1  LIG1       -0.0784
      8 C           0.8184    6.9428   -1.5323 C.ar    1  LIG1       -0.0674
      9 C           3.1329    7.0269   -2.2204 C.ar    1  LIG1       -0.0553
     10 C           2.3258    4.6638    3.6119 C.ar    1  LIG1        0.0357
     11 C           2.3386    5.1836   -0.8758 C.ar    1  LIG1       -0.0484
     12 C           1.8546    7.5853   -2.2099 C.ar    1  LIG1       -0.0135
     13 C           1.1386    2.2245    0.5735 C.2     1  LIG1       -0.0117
     14 C           2.7995    4.7726    2.2183 C.2     1  LIG1        0.1598
     15 C           1.7378    2.7389   -0.7009 C.3     1  LIG1        0.0529
     16 C           2.6023    3.8743   -0.1494 C.3     1  LIG1        0.0725
     17 C           0.2501    1.0259    0.5728 C.3     1  LIG1        0.0038
     18 C           0.2880    9.2705   -2.8115 C.3     1  LIG1        0.0239
     19 N           1.4188    2.8894    1.6484 N.2     1  LIG1       -0.3212
     20 N           2.2489    3.9102    1.2798 N.am    1  LIG1       -0.2367
     21 O           3.6565    5.6207    1.9763 O.2     1  LIG1       -0.4521
     22 O           3.9732    3.4877   -0.2379 O.3     1  LIG1       -0.4440
     23 O           1.6181    8.7565   -2.8618 O.3     1  LIG1       -0.4174
     24 H           1.0818    4.3777    7.2715 H       1  LIG1        0.1232
     25 H          -0.5200    4.9168    5.4556 H       1  LIG1        0.1181
     26 H           3.4801    4.0218    6.7451 H       1  LIG1        0.1157
     27 H           0.2671    5.1008    3.1200 H       1  LIG1        0.1381
     28 H           4.2793    4.2024    4.4140 H       1  LIG1        0.1625
     29 H           0.2472    5.2484   -0.3400 H       1  LIG1        0.1366
     30 H           4.3740    5.3983   -1.5668 H       1  LIG1        0.1307
     31 H          -0.1796    7.3728   -1.5208 H       1  LIG1        0.1142
     32 H           3.9440    7.5223   -2.7466 H       1  LIG1        0.1292
     33 H           2.3139    1.9493   -1.1916 H       1  LIG1        0.1192
     34 H           0.9247    3.0740   -1.3529 H       1  LIG1        0.1211
     35 H           0.8453    0.1232    0.7120 H       1  LIG1        0.0894
     36 H          -0.2841    0.9605   -0.3758 H       1  LIG1        0.0856
     37 H          -0.4781    1.1038    1.3808 H       1  LIG1        0.0873
     38 H           0.2373   10.2076   -3.3711 H       1  LIG1        0.0895
     39 H           0.0009    9.4393   -1.7705 H       1  LIG1        0.0895
     40 H          -0.3915    8.5428   -3.2613 H       1  LIG1        0.1223
     41 H           4.4933    4.1992    0.1703 H       1  LIG1        0.3480
@<TRIPOS>BOND
     1     1     2   ar
     2     1     3   ar
     3     2     4   ar
     4     3     5   ar
     5     4    10   ar
     6     5    10   ar
     7     6     8   ar
     8     6    11   ar
     9     7     9   ar
    10     7    11   ar
    11     8    12   ar
    12     9    12   ar
    13    10    14    1
    14    11    16    1
    15    12    23    1
    16    13    15    1
    17    13    17    1
    18    13    19    2
    19    14    20   am
    20    14    21    2
    21    15    16    1
    22    16    20    1
    23    16    22    1
    24    18    23    1
    25    19    20    1
    26     1    24    1
    27     2    25    1
    28     3    26    1
    29     4    27    1
    30     5    28    1
    31     6    29    1
    32     7    30    1
    33     8    31    1
    34     9    32    1
    35    15    33    1
    36    15    34    1
    37    17    35    1
    38    17    36    1
    39    17    37    1
    40    18    38    1
    41    18    39    1
    42    18    40    1
    43    22    41    1
