@<TRIPOS>MOLECULE
AQ-405/42300427
 43 46 0 0 0
SMALL
USER_CHARGES

@<TRIPOS>ATOM
      1 C           1.5358    4.4152    6.2646 C.ar    1  LIG1       -0.0986
      2 C           4.5122    6.5579   -3.7998 C.ar    1  LIG1       -0.0947
      3 C           4.7974    5.3371   -3.1928 C.ar    1  LIG1       -0.0958
      4 C           2.8792    4.1605    5.9890 C.ar    1  LIG1       -0.0936
      5 C           0.6419    4.6501    5.2198 C.ar    1  LIG1       -0.0923
      6 C           1.6144    0.5196   -1.6708 C.ar    1  LIG1       -0.0916
      7 C           3.4130    7.3093   -3.3804 C.ar    1  LIG1       -0.0847
      8 C           3.9849    4.8621   -2.1637 C.ar    1  LIG1       -0.0823
      9 C           3.3288    4.1408    4.6687 C.ar    1  LIG1       -0.0655
     10 C           1.0915    4.6303    3.8996 C.ar    1  LIG1       -0.0644
     11 C           2.2724    1.6013   -1.0855 C.ar    1  LIG1       -0.0856
     12 C           0.2269    0.5411   -1.8124 C.ar    1  LIG1       -0.0733
     13 C           1.4747    7.5759   -1.9026 C.ar    1  LIG1       -0.0595
     14 C           0.1555    2.7257   -0.7832 C.ar    1  LIG1       -0.0568
     15 C           0.7053    7.0509   -0.8756 C.ar    1  LIG1       -0.0356
     16 C           2.5840    6.8462   -2.3456 C.ar    1  LIG1       -0.0685
     17 C           2.8761    5.6097   -1.7336 C.ar    1  LIG1       -0.0319
     18 C           2.4349    4.3757    3.6239 C.ar    1  LIG1        0.0389
     19 C           1.5430    2.7043   -0.6417 C.ar    1  LIG1       -0.0420
     20 C          -0.5026    1.6440   -1.3686 C.ar    1  LIG1       -0.0115
     21 C           2.0299    5.1822   -0.7086 C.ar    1  LIG1        0.0214
     22 C           2.9135    4.3547    2.2187 C.2     1  LIG1        0.1879
     23 C           2.2620    3.8841   -0.0018 C.3     1  LIG1        0.1187
     24 N           0.9542    5.8721   -0.2666 N.ar    1  LIG1       -0.3773
     25 O           4.0485    4.6660    1.8929 O.2     1  LIG1       -0.4478
     26 O           1.9194    3.9475    1.3934 O.3     1  LIG1       -0.3051
     27 CL         -2.2145    1.6694   -1.5424 Cl      1  LIG1       -0.1432
     28 H           1.1859    4.4306    7.2925 H       1  LIG1        0.1289
     29 H           5.1462    6.9267   -4.6010 H       1  LIG1        0.1273
     30 H           5.6540    4.7551   -3.5207 H       1  LIG1        0.1253
     31 H           3.5752    3.9778    6.8026 H       1  LIG1        0.1224
     32 H          -0.4042    4.8482    5.4344 H       1  LIG1        0.1238
     33 H           2.1828   -0.3391   -2.0162 H       1  LIG1        0.1301
     34 H           3.2081    8.2592   -3.8695 H       1  LIG1        0.1316
     35 H           4.2350    3.9055   -1.7116 H       1  LIG1        0.1292
     36 H           4.3777    3.9412    4.4652 H       1  LIG1        0.1441
     37 H           0.3860    4.8148    3.0935 H       1  LIG1        0.1440
     38 H           3.3538    1.5761   -0.9792 H       1  LIG1        0.1290
     39 H          -0.2727   -0.3092   -2.2702 H       1  LIG1        0.1342
     40 H           1.2119    8.5331   -2.3426 H       1  LIG1        0.1359
     41 H          -0.4086    3.5882   -0.4360 H       1  LIG1        0.1483
     42 H          -0.1622    7.5870   -0.5044 H       1  LIG1        0.1956
     43 H           3.3420    3.6533    0.0076 H       1  LIG1        0.1849
@<TRIPOS>BOND
     1     1     4   ar
     2     1     5   ar
     3     2     3   ar
     4     2     7   ar
     5     3     8   ar
     6     4     9   ar
     7     5    10   ar
     8     6    11   ar
     9     6    12   ar
    10     7    16   ar
    11     8    17   ar
    12     9    18   ar
    13    10    18   ar
    14    11    19   ar
    15    12    20   ar
    16    13    15   ar
    17    13    16   ar
    18    14    19   ar
    19    14    20   ar
    20    15    24   ar
    21    16    17   ar
    22    17    21   ar
    23    18    22    1
    24    19    23    1
    25    20    27    1
    26    21    23    1
    27    21    24   ar
    28    22    25    2
    29    22    26    1
    30    23    26    1
    31     1    28    1
    32     2    29    1
    33     3    30    1
    34     4    31    1
    35     5    32    1
    36     6    33    1
    37     7    34    1
    38     8    35    1
    39     9    36    1
    40    10    37    1
    41    11    38    1
    42    12    39    1
    43    13    40    1
    44    14    41    1
    45    15    42    1
    46    23    43    1
