@<TRIPOS>MOLECULE
AG-690/10517029
 40 43 0 0 0
SMALL
USER_CHARGES

@<TRIPOS>ATOM
      1 C           0.6239    0.7861   -2.4599 C.ar    1  LIG1       -0.1073
      2 C           2.3161    7.2542   -2.8593 C.ar    1  LIG1       -0.1039
      3 C           1.8718    1.4035   -2.3744 C.ar    1  LIG1       -0.1014
      4 C          -0.3555    1.0577   -1.5045 C.ar    1  LIG1       -0.1007
      5 C           1.0818    6.6494   -2.6223 C.ar    1  LIG1       -0.1017
      6 C           3.3741    7.0508   -1.9733 C.ar    1  LIG1       -0.0968
      7 C           3.0735    4.2618    6.1446 C.ar    1  LIG1       -0.0909
      8 C           2.1403    2.2923   -1.3335 C.ar    1  LIG1       -0.0793
      9 C          -0.0869    1.9466   -0.4636 C.ar    1  LIG1       -0.0776
     10 C           0.9054    5.8413   -1.4991 C.ar    1  LIG1       -0.0853
     11 C           3.1977    6.2427   -0.8502 C.ar    1  LIG1       -0.0787
     12 C           2.9917    4.1246    4.7590 C.ar    1  LIG1       -0.0722
     13 C           1.9469    4.6379    6.8761 C.ar    1  LIG1       -0.0662
     14 C           0.6565    4.7398    4.8360 C.ar    1  LIG1       -0.0293
     15 C           1.1610    2.5639   -0.3781 C.ar    1  LIG1       -0.0410
     16 C           1.9633    5.6380   -0.6130 C.ar    1  LIG1       -0.0527
     17 C           1.7831    4.3636    4.1046 C.ar    1  LIG1       -0.0094
     18 C           0.7384    4.8769    6.2217 C.ar    1  LIG1       -0.0290
     19 C           1.4372    3.4788    0.6938 C.ar    1  LIG1        0.0001
     20 C           1.7811    4.8020    0.5473 C.ar    1  LIG1       -0.0176
     21 C           1.6980    4.2212    2.6715 C.ar    1  LIG1        0.0178
     22 N           1.3870    3.1235    2.0185 N.ar    1  LIG1       -0.3605
     23 N           1.9445    5.2643    1.8227 N.ar    1  LIG1       -0.3252
     24 O          -0.3606    5.2439    6.9357 O.3     1  LIG1       -0.4363
     25 H           0.4143    0.0947   -3.2709 H       1  LIG1        0.1145
     26 H           2.4537    7.8829   -3.7343 H       1  LIG1        0.1189
     27 H           2.6340    1.1931   -3.1189 H       1  LIG1        0.1157
     28 H          -1.3275    0.5779   -1.5720 H       1  LIG1        0.1162
     29 H           0.2580    6.8081   -3.3122 H       1  LIG1        0.1184
     30 H           4.3357    7.5209   -2.1586 H       1  LIG1        0.1214
     31 H           4.0142    4.0758    6.6545 H       1  LIG1        0.1286
     32 H           3.1181    2.7655   -1.2806 H       1  LIG1        0.1229
     33 H          -0.8611    2.1477    0.2732 H       1  LIG1        0.1279
     34 H          -0.0621    5.3748   -1.3296 H       1  LIG1        0.1192
     35 H           4.0319    6.0949   -0.1685 H       1  LIG1        0.1304
     36 H           3.8785    3.8310    4.2024 H       1  LIG1        0.1196
     37 H           2.0171    4.7434    7.9553 H       1  LIG1        0.1296
     38 H          -0.2909    4.9291    4.3353 H       1  LIG1        0.1514
     39 H           2.2014    6.2059    2.0901 H       1  LIG1        0.3514
     40 H          -1.1187    5.3731    6.3439 H       1  LIG1        0.3588
@<TRIPOS>BOND
     1     1     3   ar
     2     1     4   ar
     3     2     5   ar
     4     2     6   ar
     5     3     8   ar
     6     4     9   ar
     7     5    10   ar
     8     6    11   ar
     9     7    12   ar
    10     7    13   ar
    11     8    15   ar
    12     9    15   ar
    13    10    16   ar
    14    11    16   ar
    15    12    17   ar
    16    13    18   ar
    17    14    17   ar
    18    14    18   ar
    19    15    19    1
    20    16    20    1
    21    17    21    1
    22    18    24    1
    23    19    20   ar
    24    19    22   ar
    25    20    23   ar
    26    21    22   ar
    27    21    23   ar
    28     1    25    1
    29     2    26    1
    30     3    27    1
    31     4    28    1
    32     5    29    1
    33     6    30    1
    34     7    31    1
    35     8    32    1
    36     9    33    1
    37    10    34    1
    38    11    35    1
    39    12    36    1
    40    13    37    1
    41    14    38    1
    42    23    39    1
    43    24    40    1
