@<TRIPOS>MOLECULE
AQ-344/43100284
 47 51 0 0 0
SMALL
USER_CHARGES

@<TRIPOS>ATOM
      1 C           0.3029    0.7447   -2.6084 C.ar    1  LIG1       -0.1001
      2 C           1.6972    7.5505   -1.8892 C.ar    1  LIG1       -0.0928
      3 C          -0.4909    1.0888   -1.5143 C.ar    1  LIG1       -0.0985
      4 C           1.6350    1.1551   -2.6601 C.ar    1  LIG1       -0.1037
      5 C           2.9482    7.0139   -2.1936 C.ar    1  LIG1       -0.0995
      6 C           0.8959    6.9458   -0.9206 C.ar    1  LIG1       -0.0916
      7 C           2.5343    5.4340    5.4965 C.ar    1  LIG1       -0.0945
      8 C           1.2629    4.9560    5.8039 C.ar    1  LIG1       -0.0819
      9 C           0.0475    1.8432   -0.4719 C.ar    1  LIG1       -0.1005
     10 C           2.1734    1.9096   -1.6178 C.ar    1  LIG1       -0.1088
     11 C           3.3978    5.8726   -1.5295 C.ar    1  LIG1       -0.1106
     12 C           1.3456    5.8046   -0.2566 C.ar    1  LIG1       -0.0978
     13 C           3.2486    4.8840    4.4311 C.ar    1  LIG1       -0.1028
     14 C           0.7097    3.9193    5.0549 C.ar    1  LIG1       -0.0466
     15 C           1.3796    2.2536   -0.5236 C.ar    1  LIG1       -0.1115
     16 C           2.5965    5.2679   -0.5610 C.ar    1  LIG1       -0.1265
     17 C           2.6981    3.8504    3.6586 C.ar    1  LIG1       -0.0923
     18 C           1.4323    3.3556    4.0000 C.ar    1  LIG1       -0.0046
     19 C           1.7195    1.4809    2.6207 C.3     1  LIG1        0.0354
     20 C           1.9649    3.0733    0.6081 C.3     1  LIG1       -0.0391
     21 C           3.0824    4.0326    0.1579 C.3     1  LIG1       -0.0875
     22 C           3.4662    3.2867    2.4907 C.3     1  LIG1       -0.0904
     23 C           2.6668    2.2438    1.7023 C.3     1  LIG1       -0.0253
     24 N           3.8345    4.3211    1.4443 N.4     1  LIG1        0.4283
     25 O           0.8138    2.3391    3.3182 O.3     1  LIG1       -0.4041
     26 H          -0.1161    0.1561   -3.4194 H       1  LIG1        0.1256
     27 H           1.3479    8.4399   -2.4053 H       1  LIG1        0.1345
     28 H          -1.5278    0.7684   -1.4733 H       1  LIG1        0.1256
     29 H           2.2536    0.8865   -3.5114 H       1  LIG1        0.1223
     30 H           3.5727    7.4850   -2.9469 H       1  LIG1        0.1306
     31 H          -0.0776    7.3640   -0.6826 H       1  LIG1        0.1334
     32 H           2.9685    6.2386    6.0829 H       1  LIG1        0.1262
     33 H           0.7047    5.3881    6.6292 H       1  LIG1        0.1489
     34 H          -0.5785    2.1068    0.3767 H       1  LIG1        0.1243
     35 H           3.2122    2.2250   -1.6668 H       1  LIG1        0.1062
     36 H           4.3739    5.4613   -1.7734 H       1  LIG1        0.1069
     37 H           0.7143    5.3402    0.4965 H       1  LIG1        0.1328
     38 H           4.2370    5.2738    4.2009 H       1  LIG1        0.1299
     39 H          -0.2806    3.5475    5.3048 H       1  LIG1        0.1422
     40 H           1.1149    0.7756    2.0405 H       1  LIG1        0.1019
     41 H           2.2809    0.8879    3.3547 H       1  LIG1        0.1524
     42 H           1.1168    3.6643    1.0482 H       1  LIG1        0.1120
     43 H           3.8173    3.5134   -0.4963 H       1  LIG1        0.1266
     44 H           4.4058    2.8527    2.8535 H       1  LIG1        0.1251
     45 H           3.3612    1.5312    1.2346 H       1  LIG1        0.1146
     46 H           4.8484    4.3033    1.2667 H       1  LIG1        0.1667
     47 H           3.6227    5.2706    1.7812 H       1  LIG1        0.1585
@<TRIPOS>BOND
     1     1     3   ar
     2     1     4   ar
     3     2     5   ar
     4     2     6   ar
     5     3     9   ar
     6     4    10   ar
     7     5    11   ar
     8     6    12   ar
     9     7     8   ar
    10     7    13   ar
    11     8    14   ar
    12     9    15   ar
    13    10    15   ar
    14    11    16   ar
    15    12    16   ar
    16    13    17   ar
    17    14    18   ar
    18    15    20    1
    19    16    21    1
    20    17    18   ar
    21    17    22    1
    22    18    25    1
    23    19    23    1
    24    19    25    1
    25    20    21    1
    26    20    23    1
    27    21    24    1
    28    22    23    1
    29    22    24    1
    30     1    26    1
    31     2    27    1
    32     3    28    1
    33     4    29    1
    34     5    30    1
    35     6    31    1
    36     7    32    1
    37     8    33    1
    38     9    34    1
    39    10    35    1
    40    11    36    1
    41    12    37    1
    42    13    38    1
    43    14    39    1
    44    19    40    1
    45    19    41    1
    46    20    42    1
    47    21    43    1
    48    22    44    1
    49    23    45    1
    50    24    46    1
    51    24    47    1
