@<TRIPOS>MOLECULE
AG-670/32485021
 40 43 0 0 0
SMALL
USER_CHARGES

@<TRIPOS>ATOM
      1 C           2.5021    6.8083   -1.4741 C.ar    1  LIG1       -0.1070
      2 C           0.8863    0.6924   -2.3671 C.ar    1  LIG1       -0.1046
      3 C           3.0560    5.5784   -1.0154 C.ar    1  LIG1       -0.1035
      4 C           1.9065    1.5514   -1.8656 C.ar    1  LIG1       -0.0942
      5 C           1.1332    6.8468   -1.3251 C.ar    1  LIG1       -0.0505
      6 C          -0.2801    0.7960   -1.6418 C.ar    1  LIG1       -0.0480
      7 C           2.0893    4.7235   -0.5331 C.ar    1  LIG1       -0.0325
      8 C           1.4807    2.2791   -0.7761 C.ar    1  LIG1       -0.0201
      9 C           2.3131    4.3625    3.7860 C.3     1  LIG1       -0.0664
     10 C           4.2871    3.8069    2.3870 C.3     1  LIG1       -0.0682
     11 C           2.3547    2.9659    4.4083 C.3     1  LIG1       -0.1025
     12 C           4.3381    2.4088    3.0037 C.3     1  LIG1       -0.1007
     13 C           2.0458    1.9281    2.1584 C.3     1  LIG1       -0.0874
     14 C           2.8372    4.3210    2.3373 C.3     1  LIG1       -0.0556
     15 C           1.9438    3.3348    1.5449 C.3     1  LIG1       -0.0302
     16 C           2.2653    3.3113    0.0510 C.3     1  LIG1        0.0270
     17 N           2.9299    2.0052    3.3883 N.4     1  LIG1        0.4046
     18 O           3.6553    2.9276   -0.0160 O.3     1  LIG1       -0.4499
     19 S           0.5212    5.4042   -0.6345 S.2     1  LIG1       -0.1466
     20 S          -0.1427    1.9254   -0.3619 S.2     1  LIG1       -0.1349
     21 H           3.0777    7.6241   -1.8914 H       1  LIG1        0.1172
     22 H           1.0012    0.0325   -3.2170 H       1  LIG1        0.1177
     23 H           4.1115    5.3381   -1.0388 H       1  LIG1        0.1251
     24 H           2.9006    1.6292   -2.2874 H       1  LIG1        0.1282
     25 H           0.4631    7.6528   -1.5890 H       1  LIG1        0.1742
     26 H          -1.2062    0.2623   -1.8018 H       1  LIG1        0.1737
     27 H           1.2866    4.7478    3.8108 H       1  LIG1        0.0908
     28 H           2.9143    5.0536    4.3891 H       1  LIG1        0.0637
     29 H           4.9069    4.4905    2.9808 H       1  LIG1        0.0724
     30 H           4.7349    3.7912    1.3873 H       1  LIG1        0.0695
     31 H           2.9965    2.9272    5.2947 H       1  LIG1        0.0857
     32 H           1.3571    2.6023    4.6759 H       1  LIG1        0.0888
     33 H           4.7145    1.6598    2.2994 H       1  LIG1        0.0889
     34 H           4.9488    2.3796    3.9120 H       1  LIG1        0.0905
     35 H           1.0691    1.5573    2.4877 H       1  LIG1        0.0985
     36 H           2.4923    1.1874    1.4866 H       1  LIG1        0.0887
     37 H           2.8011    5.3229    1.8960 H       1  LIG1        0.0889
     38 H           0.9012    3.6698    1.6346 H       1  LIG1        0.0995
     39 H           2.9689    1.0691    3.8137 H       1  LIG1        0.1712
     40 H           3.8844    2.9509   -0.9527 H       1  LIG1        0.3380
@<TRIPOS>BOND
     1     1     3   ar
     2     1     5   ar
     3     2     4   ar
     4     2     6   ar
     5     3     7   ar
     6     4     8   ar
     7     5    19   ar
     8     6    20   ar
     9     7    16    1
    10     7    19   ar
    11     8    16    1
    12     8    20   ar
    13     9    11    1
    14     9    14    1
    15    10    12    1
    16    10    14    1
    17    11    17    1
    18    12    17    1
    19    13    15    1
    20    13    17    1
    21    14    15    1
    22    15    16    1
    23    16    18    1
    24     1    21    1
    25     2    22    1
    26     3    23    1
    27     4    24    1
    28     5    25    1
    29     6    26    1
    30     9    27    1
    31     9    28    1
    32    10    29    1
    33    10    30    1
    34    11    31    1
    35    11    32    1
    36    12    33    1
    37    12    34    1
    38    13    35    1
    39    13    36    1
    40    14    37    1
    41    15    38    1
    42    17    39    1
    43    18    40    1
