@<TRIPOS>MOLECULE
AE-848/00230032
 38 41 0 0 0
SMALL
USER_CHARGES

@<TRIPOS>ATOM
      1 C           0.5967    0.6903   -2.5417 C.ar    1  LIG1       -0.1048
      2 C           2.3590    7.3834   -2.6116 C.ar    1  LIG1       -0.1013
      3 C           1.9926    4.8275    6.7554 C.ar    1  LIG1       -0.1000
      4 C           1.8446    1.3050   -2.4386 C.ar    1  LIG1       -0.0987
      5 C          -0.3878    0.9462   -1.5872 C.ar    1  LIG1       -0.0994
      6 C           3.1397    6.2309   -2.5231 C.ar    1  LIG1       -0.0948
      7 C           1.3737    7.6334   -1.6563 C.ar    1  LIG1       -0.0974
      8 C           1.8170    5.8883    5.8669 C.ar    1  LIG1       -0.0951
      9 C           2.0582    3.5194    6.2755 C.ar    1  LIG1       -0.0916
     10 C           2.1081    2.1752   -1.3809 C.ar    1  LIG1       -0.0780
     11 C          -0.1242    1.8165   -0.5295 C.ar    1  LIG1       -0.0795
     12 C           2.9352    5.3284   -1.4795 C.ar    1  LIG1       -0.0761
     13 C           1.1691    6.7308   -0.6127 C.ar    1  LIG1       -0.0792
     14 C           1.7069    5.6411    4.4986 C.ar    1  LIG1       -0.0683
     15 C           1.9481    3.2722    4.9071 C.ar    1  LIG1       -0.0629
     16 C           1.1237    2.4311   -0.4263 C.ar    1  LIG1       -0.0435
     17 C           1.9499    5.5783   -0.5242 C.ar    1  LIG1       -0.0341
     18 C           1.7725    4.3330    4.0186 C.ar    1  LIG1        0.0030
     19 C           1.3947    3.3269    0.6629 C.ar    1  LIG1        0.0116
     20 C           1.7403    4.6506    0.5493 C.ar    1  LIG1        0.0665
     21 C           1.6600    4.0786    2.6090 C.ar    1  LIG1        0.1006
     22 N           1.3451    2.9661    1.9851 N.ar    1  LIG1       -0.3496
     23 O           1.9146    5.1475    1.8056 O.2     1  LIG1       -0.3177
     24 H           0.3910    0.0135   -3.3658 H       1  LIG1        0.1181
     25 H           2.5187    8.0864   -3.4240 H       1  LIG1        0.1227
     26 H           2.0790    5.0201    7.8208 H       1  LIG1        0.1250
     27 H           2.6108    1.1069   -3.1824 H       1  LIG1        0.1187
     28 H          -1.3597    0.4685   -1.6684 H       1  LIG1        0.1188
     29 H           3.9067    6.0364   -3.2672 H       1  LIG1        0.1237
     30 H           0.7666    8.5313   -1.7246 H       1  LIG1        0.1217
     31 H           1.7658    6.9068    6.2409 H       1  LIG1        0.1232
     32 H           2.1961    2.6934    6.9672 H       1  LIG1        0.1252
     33 H           3.0859    2.6466   -1.3143 H       1  LIG1        0.1296
     34 H          -0.9024    2.0055    0.2065 H       1  LIG1        0.1251
     35 H           3.5538    4.4358   -1.4229 H       1  LIG1        0.1322
     36 H           0.3965    6.9395    0.1234 H       1  LIG1        0.1283
     37 H           1.5730    6.4790    3.8186 H       1  LIG1        0.1335
     38 H           2.0002    2.2468    4.5489 H       1  LIG1        0.1446
@<TRIPOS>BOND
     1     1     4   ar
     2     1     5   ar
     3     2     6   ar
     4     2     7   ar
     5     3     8   ar
     6     3     9   ar
     7     4    10   ar
     8     5    11   ar
     9     6    12   ar
    10     7    13   ar
    11     8    14   ar
    12     9    15   ar
    13    10    16   ar
    14    11    16   ar
    15    12    17   ar
    16    13    17   ar
    17    14    18   ar
    18    15    18   ar
    19    16    19    1
    20    17    20    1
    21    18    21    1
    22    19    20   ar
    23    19    22   ar
    24    20    23   ar
    25    21    22   ar
    26    21    23   ar
    27     1    24    1
    28     2    25    1
    29     3    26    1
    30     4    27    1
    31     5    28    1
    32     6    29    1
    33     7    30    1
    34     8    31    1
    35     9    32    1
    36    10    33    1
    37    11    34    1
    38    12    35    1
    39    13    36    1
    40    14    37    1
    41    15    38    1
