@<TRIPOS>MOLECULE
AP-518/42804654
 51 53 0 0 0
SMALL
USER_CHARGES

@<TRIPOS>ATOM
      1 C           2.0171    7.6172   -2.0718 C.ar    1  LIG1       -0.1074
      2 C           2.9752    6.6910   -2.4836 C.ar    1  LIG1       -0.1055
      3 C           1.1794    7.3227   -0.9960 C.ar    1  LIG1       -0.1038
      4 C           3.0956    5.4701   -1.8198 C.ar    1  LIG1       -0.0950
      5 C           1.2996    6.1018   -0.3323 C.ar    1  LIG1       -0.0924
      6 C           2.1865    1.9989   -1.7212 C.ar    1  LIG1       -0.0826
      7 C           0.3276    2.4144   -0.2350 C.ar    1  LIG1       -0.0783
      8 C           1.4735    0.9623   -2.3233 C.ar    1  LIG1       -0.0797
      9 C          -0.3854    1.3777   -0.8371 C.ar    1  LIG1       -0.0772
     10 C           1.0100    4.7169    3.9303 C.ar    1  LIG1       -0.0209
     11 C           3.2150    4.2820    4.8166 C.ar    1  LIG1       -0.0301
     12 C           2.3658    4.4618    3.7248 C.ar    1  LIG1        0.0277
     13 C           2.2578    5.1754   -0.7442 C.ar    1  LIG1       -0.0728
     14 C           1.6136    2.7251   -0.6771 C.ar    1  LIG1       -0.0651
     15 C           0.5033    4.7924    5.2277 C.ar    1  LIG1        0.0515
     16 C           2.7084    4.3573    6.1140 C.ar    1  LIG1        0.0464
     17 C           1.3526    4.6125    6.3197 C.ar    1  LIG1        0.0865
     18 C           0.1876    0.6516   -1.8812 C.ar    1  LIG1       -0.0401
     19 C           2.8954    4.3858    2.3725 C.2     1  LIG1        0.1141
     20 C          -1.6920    3.9143    5.4836 C.3     1  LIG1        0.0294
     21 C           3.7104    2.8484    7.6551 C.3     1  LIG1        0.0287
     22 C           0.8583    5.9675    8.2105 C.3     1  LIG1        0.0204
     23 C           2.3877    3.8505   -0.0235 C.3     1  LIG1        0.0176
     24 N           2.0075    3.9952    1.3633 N.am    1  LIG1       -0.3243
     25 O           4.0920    4.6404    2.1477 O.2     1  LIG1       -0.4690
     26 O          -0.8226    5.0428    5.4147 O.3     1  LIG1       -0.4008
     27 O           3.5487    4.1804    7.1718 O.3     1  LIG1       -0.4019
     28 O           0.8566    4.6851    7.5876 O.3     1  LIG1       -0.4069
     29 BR         -0.7776   -0.7535   -2.6970 Br      1  LIG1       -0.1102
     30 H           1.9244    8.5684   -2.5879 H       1  LIG1        0.1152
     31 H           3.6283    6.9206   -3.3205 H       1  LIG1        0.1146
     32 H           0.4340    8.0439   -0.6745 H       1  LIG1        0.1171
     33 H           3.8448    4.7543   -2.1478 H       1  LIG1        0.1142
     34 H           0.6426    5.8808    0.5047 H       1  LIG1        0.1217
     35 H           3.1879    2.2341   -2.0722 H       1  LIG1        0.1246
     36 H          -0.1265    2.9741    0.5784 H       1  LIG1        0.1349
     37 H           1.9350    0.4056   -3.1350 H       1  LIG1        0.1362
     38 H          -1.3864    1.1485   -0.4811 H       1  LIG1        0.1380
     39 H           0.3442    4.8596    3.0822 H       1  LIG1        0.1403
     40 H           4.2727    4.0821    4.6611 H       1  LIG1        0.1208
     41 H          -2.7196    4.2536    5.6345 H       1  LIG1        0.0920
     42 H          -1.3856    3.2672    6.3094 H       1  LIG1        0.1257
     43 H          -1.6283    3.3587    4.5450 H       1  LIG1        0.0929
     44 H           4.4053    2.8479    8.4985 H       1  LIG1        0.0900
     45 H           4.0938    2.2129    6.8529 H       1  LIG1        0.0913
     46 H           2.7403    2.4698    7.9852 H       1  LIG1        0.1258
     47 H           0.4377    5.8857    9.2158 H       1  LIG1        0.0830
     48 H           0.2667    6.6650    7.6121 H       1  LIG1        0.0828
     49 H           1.8872    6.3291    8.2768 H       1  LIG1        0.1187
     50 H           3.4461    3.5609    0.0111 H       1  LIG1        0.1599
     51 H           1.0575    3.7379    1.6107 H       1  LIG1        0.3021
@<TRIPOS>BOND
     1     1     2   ar
     2     1     3   ar
     3     2     4   ar
     4     3     5   ar
     5     4    13   ar
     6     5    13   ar
     7     6     8   ar
     8     6    14   ar
     9     7     9   ar
    10     7    14   ar
    11     8    18   ar
    12     9    18   ar
    13    10    12   ar
    14    10    15   ar
    15    11    12   ar
    16    11    16   ar
    17    12    19    1
    18    13    23    1
    19    14    23    1
    20    15    17   ar
    21    15    26    1
    22    16    17   ar
    23    16    27    1
    24    17    28    1
    25    18    29    1
    26    19    24   am
    27    19    25    2
    28    20    26    1
    29    21    27    1
    30    22    28    1
    31    23    24    1
    32     1    30    1
    33     2    31    1
    34     3    32    1
    35     4    33    1
    36     5    34    1
    37     6    35    1
    38     7    36    1
    39     8    37    1
    40     9    38    1
    41    10    39    1
    42    11    40    1
    43    20    41    1
    44    20    42    1
    45    20    43    1
    46    21    44    1
    47    21    45    1
    48    21    46    1
    49    22    47    1
    50    22    48    1
    51    22    49    1
    52    23    50    1
    53    24    51    1
