@<TRIPOS>MOLECULE
AK-968/37032030
 46 49 0 0 0
SMALL
USER_CHARGES

@<TRIPOS>ATOM
      1 C           1.2030    6.8213   -1.7275 C.ar    1  LIG1       -0.0981
      2 C          -0.1450    1.2519   -1.7516 C.ar    1  LIG1       -0.1041
      3 C           1.4810    5.8035   -0.8152 C.ar    1  LIG1       -0.0889
      4 C           3.1041    4.3005    4.5822 C.ar    1  LIG1       -0.0493
      5 C           0.7323    4.7147    4.3825 C.ar    1  LIG1       -0.0449
      6 C           2.2285    7.3621   -2.5031 C.ar    1  LIG1       -0.0617
      7 C           2.9999    4.3736    5.9712 C.ar    1  LIG1       -0.0762
      8 C           0.6281    4.7877    5.7715 C.ar    1  LIG1       -0.0742
      9 C          -0.0109    2.1407   -0.6461 C.ar    1  LIG1       -0.0839
     10 C           1.0654    0.9899   -2.3546 C.ar    1  LIG1       -0.0440
     11 C           2.7846    5.3264   -0.6784 C.ar    1  LIG1       -0.0368
     12 C           1.9703    4.4711    3.7878 C.ar    1  LIG1       -0.0207
     13 C           3.5321    6.8851   -2.3664 C.ar    1  LIG1        0.0302
     14 C           3.8102    5.8672   -1.4540 C.ar    1  LIG1        0.0388
     15 C           1.7619    4.6171    6.5659 C.ar    1  LIG1       -0.0450
     16 C           1.2972    2.5242   -0.4462 C.ar    1  LIG1        0.0142
     17 C           1.8299    3.3919    0.5450 C.2     1  LIG1        0.0325
     18 C           3.2858    4.7837    1.7163 C.3     1  LIG1        0.0203
     19 C           3.0626    4.2364    0.3036 C.3     1  LIG1        0.0530
     20 C           4.7728    6.8096   -4.3939 C.3     1  LIG1        0.0254
     21 C           5.9144    6.0522   -0.3612 C.3     1  LIG1        0.0192
     22 N           1.3003    3.5266    1.7228 N.2     1  LIG1       -0.3095
     23 N           2.0728    4.4001    2.4197 N.pl3   1  LIG1       -0.3223
     24 O           4.5241    7.4222   -3.1302 O.3     1  LIG1       -0.4091
     25 O           5.0862    5.4038   -1.3236 O.3     1  LIG1       -0.4145
     26 S           2.3566    1.8137   -1.5887 S.2     1  LIG1       -0.1129
     27 BR          1.6206    4.7141    8.4479 Br      1  LIG1       -0.1257
     28 H           0.1880    7.1929   -1.8341 H       1  LIG1        0.1289
     29 H          -1.0819    0.8272   -2.0879 H       1  LIG1        0.1164
     30 H           0.6751    5.3887   -0.2156 H       1  LIG1        0.1173
     31 H           4.0736    4.1110    4.1288 H       1  LIG1        0.1270
     32 H          -0.1573    4.8497    3.7722 H       1  LIG1        0.1366
     33 H           2.0051    8.1548   -3.2120 H       1  LIG1        0.1192
     34 H           3.8934    4.2402    6.5757 H       1  LIG1        0.1426
     35 H          -0.3436    4.9797    6.2193 H       1  LIG1        0.1416
     36 H          -0.8359    2.4785   -0.0315 H       1  LIG1        0.1316
     37 H           1.2529    0.3547   -3.2090 H       1  LIG1        0.1675
     38 H           4.1539    4.2888    2.1698 H       1  LIG1        0.1206
     39 H           3.4474    5.8670    1.7511 H       1  LIG1        0.1199
     40 H           3.9016    3.6287   -0.0434 H       1  LIG1        0.1307
     41 H           5.5868    7.3342   -4.9001 H       1  LIG1        0.1229
     42 H           3.8661    6.8476   -5.0029 H       1  LIG1        0.0892
     43 H           5.0583    5.7672   -4.2336 H       1  LIG1        0.0898
     44 H           6.9032    5.5872   -0.3582 H       1  LIG1        0.0848
     45 H           5.4579    5.9696    0.6283 H       1  LIG1        0.1174
     46 H           6.0112    7.1071   -0.6288 H       1  LIG1        0.0844
@<TRIPOS>BOND
     1     1     3   ar
     2     1     6   ar
     3     2     9   ar
     4     2    10   ar
     5     3    11   ar
     6     4     7   ar
     7     4    12   ar
     8     5     8   ar
     9     5    12   ar
    10     6    13   ar
    11     7    15   ar
    12     8    15   ar
    13     9    16   ar
    14    10    26   ar
    15    11    14   ar
    16    11    19    1
    17    12    23    1
    18    13    14   ar
    19    13    24    1
    20    14    25    1
    21    15    27    1
    22    16    17    1
    23    16    26   ar
    24    17    19    1
    25    17    22    2
    26    18    19    1
    27    18    23    1
    28    20    24    1
    29    21    25    1
    30    22    23    1
    31     1    28    1
    32     2    29    1
    33     3    30    1
    34     4    31    1
    35     5    32    1
    36     6    33    1
    37     7    34    1
    38     8    35    1
    39     9    36    1
    40    10    37    1
    41    18    38    1
    42    18    39    1
    43    19    40    1
    44    20    41    1
    45    20    42    1
    46    20    43    1
    47    21    44    1
    48    21    45    1
    49    21    46    1
