@<TRIPOS>MOLECULE
AK-968/13024033
 45 48 0 0 0
SMALL
USER_CHARGES

@<TRIPOS>ATOM
      1 C           3.0783    4.1890    4.8321 C.ar    1  LIG1       -0.0640
      2 C           0.7235    4.3987    4.3341 C.ar    1  LIG1       -0.0754
      3 C           2.2755    1.4028   -0.9094 C.ar    1  LIG1       -0.0848
      4 C           0.5711    3.0289   -0.3729 C.ar    1  LIG1       -0.0822
      5 C           2.7914    4.2082    6.1969 C.ar    1  LIG1       -0.0507
      6 C           0.4365    4.4180    5.6990 C.ar    1  LIG1       -0.0643
      7 C           1.3214    0.6156   -1.5541 C.ar    1  LIG1       -0.0483
      8 C          -0.3829    2.2417   -1.0176 C.ar    1  LIG1       -0.0460
      9 C           1.9828    7.3305   -2.8788 C.ar    1  LIG1        0.0406
     10 C           2.0444    4.2842    3.9006 C.ar    1  LIG1       -0.0336
     11 C           1.9003    2.6095   -0.3187 C.ar    1  LIG1       -0.0753
     12 C           2.3222    5.6672   -0.6650 C.ar    1  LIG1        0.1138
     13 C           1.4706    4.3227    6.6304 C.ar    1  LIG1       -0.0125
     14 C          -0.0077    1.0350   -1.6082 C.ar    1  LIG1        0.0620
     15 C           3.2319    6.7695   -2.6129 C.ar    1  LIG1        0.1574
     16 C           0.9034    7.0599   -2.0378 C.ar    1  LIG1        0.1581
     17 C           3.4015    5.9379   -1.5061 C.ar    1  LIG1        0.1941
     18 C           1.0730    6.2283   -0.9309 C.ar    1  LIG1        0.1959
     19 C           2.3433    4.2640    2.4776 C.2     1  LIG1        0.0079
     20 C           3.0329    3.0823    1.8526 C.3     1  LIG1        0.0305
     21 C           2.9219    3.4537    0.3714 C.3     1  LIG1        0.0187
     22 C           2.2948    4.2406    8.8596 C.3     1  LIG1        0.0241
     23 N           2.0756    5.2355    1.6629 N.2     1  LIG1       -0.3263
     24 N           2.4888    4.8507    0.4223 N.pl3   1  LIG1       -0.3141
     25 O           1.1903    4.3417    7.9621 O.3     1  LIG1       -0.4170
     26 F          -0.9235    0.2804   -2.2296 F       1  LIG1       -0.2684
     27 F           4.2685    7.0300   -3.4201 F       1  LIG1       -0.2395
     28 F          -0.2963    7.5983   -2.2933 F       1  LIG1       -0.2395
     29 F           4.6069    5.4054   -1.2593 F       1  LIG1       -0.2252
     30 F           0.0286    5.9741   -0.1300 F       1  LIG1       -0.2225
     31 H           4.1114    4.0990    4.5061 H       1  LIG1        0.1480
     32 H          -0.0893    4.4734    3.6162 H       1  LIG1        0.1385
     33 H           3.3085    1.0673   -0.8717 H       1  LIG1        0.1350
     34 H           0.2696    3.9678    0.0843 H       1  LIG1        0.1361
     35 H           3.6012    4.1337    6.9177 H       1  LIG1        0.1314
     36 H          -0.5943    4.5078    6.0306 H       1  LIG1        0.1152
     37 H           1.6134   -0.3234   -2.0145 H       1  LIG1        0.1312
     38 H          -1.4180    2.5678   -1.0595 H       1  LIG1        0.1312
     39 H           1.8507    7.9782   -3.7404 H       1  LIG1        0.1774
     40 H           4.0775    3.0795    2.1817 H       1  LIG1        0.1011
     41 H           2.5539    2.1386    2.1275 H       1  LIG1        0.1023
     42 H           3.8850    3.3452   -0.1383 H       1  LIG1        0.1371
     43 H           1.9317    4.2682    9.8900 H       1  LIG1        0.0898
     44 H           2.9858    5.0687    8.6832 H       1  LIG1        0.0899
     45 H           2.8109    3.2940    8.6829 H       1  LIG1        0.1220
@<TRIPOS>BOND
     1     1     5   ar
     2     1    10   ar
     3     2     6   ar
     4     2    10   ar
     5     3     7   ar
     6     3    11   ar
     7     4     8   ar
     8     4    11   ar
     9     5    13   ar
    10     6    13   ar
    11     7    14   ar
    12     8    14   ar
    13     9    15   ar
    14     9    16   ar
    15    10    19    1
    16    11    21    1
    17    12    17   ar
    18    12    18   ar
    19    12    24    1
    20    13    25    1
    21    14    26    1
    22    15    17   ar
    23    15    27    1
    24    16    18   ar
    25    16    28    1
    26    17    29    1
    27    18    30    1
    28    19    20    1
    29    19    23    2
    30    20    21    1
    31    21    24    1
    32    22    25    1
    33    23    24    1
    34     1    31    1
    35     2    32    1
    36     3    33    1
    37     4    34    1
    38     5    35    1
    39     6    36    1
    40     7    37    1
    41     8    38    1
    42     9    39    1
    43    20    40    1
    44    20    41    1
    45    21    42    1
    46    22    43    1
    47    22    44    1
    48    22    45    1
