@<TRIPOS>MOLECULE
AE-641/02323030
 41 44 0 0 0
SMALL
USER_CHARGES

@<TRIPOS>ATOM
      1 C           1.5270    4.3247    6.5661 C.ar    1  LIG1       -0.1040
      2 C          -0.0158    1.0341   -1.6587 C.ar    1  LIG1       -0.1064
      3 C           1.9725    7.3277   -2.9479 C.ar    1  LIG1       -0.1101
      4 C           2.8443    4.2082    6.1229 C.ar    1  LIG1       -0.0990
      5 C           0.4862    4.4209    5.6423 C.ar    1  LIG1       -0.0978
      6 C           1.3133    0.6133   -1.6141 C.ar    1  LIG1       -0.1052
      7 C          -0.3851    2.2420   -1.0667 C.ar    1  LIG1       -0.1034
      8 C           3.2230    6.7657   -2.6911 C.ar    1  LIG1       -0.1016
      9 C           0.8990    7.0585   -2.0987 C.ar    1  LIG1       -0.1003
     10 C           3.1211    4.1879    4.7559 C.ar    1  LIG1       -0.0783
     11 C           0.7629    4.4005    4.2754 C.ar    1  LIG1       -0.0761
     12 C           2.2731    1.4001   -0.9774 C.ar    1  LIG1       -0.0977
     13 C           0.5747    3.0288   -0.4301 C.ar    1  LIG1       -0.0958
     14 C           3.4000    5.9343   -1.5850 C.ar    1  LIG1       -0.0614
     15 C           1.0761    6.2272   -0.9928 C.ar    1  LIG1       -0.0584
     16 C           2.0804    4.2841    3.8321 C.ar    1  LIG1       -0.0373
     17 C           1.9038    2.6080   -0.3854 C.ar    1  LIG1       -0.0813
     18 C           2.3266    5.6650   -0.7360 C.ar    1  LIG1       -0.0273
     19 C           2.3689    4.2629    2.4069 C.2     1  LIG1        0.0085
     20 C           3.0526    3.0803    1.7774 C.3     1  LIG1        0.0296
     21 C           2.9314    3.4512    0.2969 C.3     1  LIG1        0.0210
     22 N           2.0964    5.2345    1.5938 N.2     1  LIG1       -0.3235
     23 N           2.5002    4.8488    0.3504 N.pl3   1  LIG1       -0.3234
     24 H           1.3115    4.3406    7.6304 H       1  LIG1        0.1193
     25 H          -0.7627    0.4220   -2.1557 H       1  LIG1        0.1164
     26 H           1.8346    7.9750   -3.8093 H       1  LIG1        0.1047
     27 H           3.6545    4.1335    6.8423 H       1  LIG1        0.1197
     28 H          -0.5396    4.5113    5.9874 H       1  LIG1        0.1193
     29 H           1.6012   -0.3267   -2.0759 H       1  LIG1        0.1170
     30 H          -1.4195    2.5706   -1.1023 H       1  LIG1        0.1158
     31 H           4.0584    6.9753   -3.3522 H       1  LIG1        0.1219
     32 H          -0.0747    7.4963   -2.2991 H       1  LIG1        0.1219
     33 H           4.1513    4.0967    4.4215 H       1  LIG1        0.1286
     34 H          -0.0560    4.4764    3.5646 H       1  LIG1        0.1333
     35 H           3.3062    1.0641   -0.9474 H       1  LIG1        0.1190
     36 H           0.2777    3.9684    0.0285 H       1  LIG1        0.1172
     37 H           4.3784    5.5012   -1.3937 H       1  LIG1        0.1166
     38 H           0.2324    6.0246   -0.3380 H       1  LIG1        0.1246
     39 H           4.0997    3.0765    2.0990 H       1  LIG1        0.0993
     40 H           2.5745    2.1372    2.0561 H       1  LIG1        0.0988
     41 H           3.8906    3.3413   -0.2198 H       1  LIG1        0.1356
@<TRIPOS>BOND
     1     1     4   ar
     2     1     5   ar
     3     2     6   ar
     4     2     7   ar
     5     3     8   ar
     6     3     9   ar
     7     4    10   ar
     8     5    11   ar
     9     6    12   ar
    10     7    13   ar
    11     8    14   ar
    12     9    15   ar
    13    10    16   ar
    14    11    16   ar
    15    12    17   ar
    16    13    17   ar
    17    14    18   ar
    18    15    18   ar
    19    16    19    1
    20    17    21    1
    21    18    23    1
    22    19    20    1
    23    19    22    2
    24    20    21    1
    25    21    23    1
    26    22    23    1
    27     1    24    1
    28     2    25    1
    29     3    26    1
    30     4    27    1
    31     5    28    1
    32     6    29    1
    33     7    30    1
    34     8    31    1
    35     9    32    1
    36    10    33    1
    37    11    34    1
    38    12    35    1
    39    13    36    1
    40    14    37    1
    41    15    38    1
    42    20    39    1
    43    20    40    1
    44    21    41    1
