@<TRIPOS>MOLECULE
AG-690/12244112
 43 46 0 0 0
SMALL
USER_CHARGES

@<TRIPOS>ATOM
      1 C           1.6925    4.9407    6.5212 C.ar    1  LIG1       -0.1028
      2 C           2.8788    4.3333    6.1100 C.ar    1  LIG1       -0.0967
      3 C           0.7047    5.2468    5.5851 C.ar    1  LIG1       -0.0980
      4 C           1.0227    7.0979   -0.9267 C.ar    1  LIG1       -0.0910
      5 C           3.0776    4.0321    4.7626 C.ar    1  LIG1       -0.0754
      6 C           0.9034    4.9455    4.2377 C.ar    1  LIG1       -0.0778
      7 C          -0.4967    1.7078   -1.7243 C.ar    1  LIG1       -0.0780
      8 C           1.6550    0.7341   -2.2339 C.ar    1  LIG1       -0.0743
      9 C           1.4942    6.0345   -0.1571 C.ar    1  LIG1       -0.0876
     10 C           0.0944    2.4978   -0.7383 C.ar    1  LIG1       -0.0505
     11 C           2.2459    1.5242   -1.2480 C.ar    1  LIG1       -0.0451
     12 C           1.6598    7.4298   -2.1224 C.ar    1  LIG1       -0.0802
     13 C           3.2402    5.6350   -1.7784 C.ar    1  LIG1       -0.0717
     14 C           2.0899    4.3382    3.8264 C.ar    1  LIG1       -0.0357
     15 C           0.2836    0.8258   -2.4720 C.ar    1  LIG1       -0.0173
     16 C           2.6029    5.3031   -0.5828 C.ar    1  LIG1       -0.0707
     17 C           1.4657    2.4061   -0.5002 C.ar    1  LIG1       -0.0185
     18 C           2.7686    6.6983   -2.5482 C.ar    1  LIG1       -0.0371
     19 C           2.2972    4.0242    2.4217 C.2     1  LIG1        0.0103
     20 C          -0.3326    0.0021   -3.4999 C.2     1  LIG1        0.0736
     21 C           3.4499    4.6216    1.6626 C.3     1  LIG1        0.0324
     22 C           3.1075    4.1642    0.2422 C.3     1  LIG1        0.0260
     23 N           1.5519    3.2144    1.7380 N.2     1  LIG1       -0.3208
     24 N           2.0463    3.1820    0.4681 N.pl3   1  LIG1       -0.3177
     25 O           0.3026   -0.7961   -4.1946 O.2     1  LIG1       -0.4744
     26 BR          3.6315    7.1486   -4.1683 Br      1  LIG1       -0.1087
     27 H           1.5377    5.1753    7.5702 H       1  LIG1        0.1210
     28 H           3.6479    4.0952    6.8391 H       1  LIG1        0.1203
     29 H          -0.2191    5.7195    5.9052 H       1  LIG1        0.1206
     30 H           0.1594    7.6675   -0.5951 H       1  LIG1        0.1304
     31 H           4.0059    3.5587    4.4532 H       1  LIG1        0.1345
     32 H           0.1270    5.1888    3.5169 H       1  LIG1        0.1295
     33 H          -1.5661    1.7873   -1.9015 H       1  LIG1        0.1427
     34 H           2.2724    0.0503   -2.8107 H       1  LIG1        0.1449
     35 H           0.9913    5.7832    0.7731 H       1  LIG1        0.1310
     36 H          -0.5230    3.1817   -0.1615 H       1  LIG1        0.1202
     37 H           3.3155    1.4448   -1.0706 H       1  LIG1        0.1302
     38 H           1.2797    8.2613   -2.7103 H       1  LIG1        0.1358
     39 H           4.1041    5.0600   -2.1041 H       1  LIG1        0.1350
     40 H          -1.4286    0.1102   -3.6533 H       1  LIG1        0.2449
     41 H           3.5077    5.7055    1.7951 H       1  LIG1        0.1031
     42 H           4.3748    4.1536    2.0163 H       1  LIG1        0.1014
     43 H           3.9767    3.7170   -0.2514 H       1  LIG1        0.1417
@<TRIPOS>BOND
     1     1     2   ar
     2     1     3   ar
     3     2     5   ar
     4     3     6   ar
     5     4     9   ar
     6     4    12   ar
     7     5    14   ar
     8     6    14   ar
     9     7    10   ar
    10     7    15   ar
    11     8    11   ar
    12     8    15   ar
    13     9    16   ar
    14    10    17   ar
    15    11    17   ar
    16    12    18   ar
    17    13    16   ar
    18    13    18   ar
    19    14    19    1
    20    15    20    1
    21    16    22    1
    22    17    24    1
    23    18    26    1
    24    19    21    1
    25    19    23    2
    26    20    25    2
    27    21    22    1
    28    22    24    1
    29    23    24    1
    30     1    27    1
    31     2    28    1
    32     3    29    1
    33     4    30    1
    34     5    31    1
    35     6    32    1
    36     7    33    1
    37     8    34    1
    38     9    35    1
    39    10    36    1
    40    11    37    1
    41    12    38    1
    42    13    39    1
    43    20    40    1
    44    21    41    1
    45    21    42    1
    46    22    43    1
