@<TRIPOS>MOLECULE
AK-968/12142359
 46 49 0 0 0
SMALL
USER_CHARGES

@<TRIPOS>ATOM
      1 C           1.4674    5.0131    6.0181 C.ar    1  LIG1       -0.1088
      2 C           3.1026    7.5649   -2.0756 C.ar    1  LIG1       -0.0959
      3 C           2.5693    4.1602    5.9536 C.ar    1  LIG1       -0.1053
      4 C           0.7197    5.2746    4.8699 C.ar    1  LIG1       -0.1080
      5 C           1.7643    7.5498   -2.4563 C.ar    1  LIG1       -0.0953
      6 C           3.5512    6.7015   -1.0780 C.ar    1  LIG1       -0.0623
      7 C          -0.2886    1.7559   -0.4425 C.ar    1  LIG1       -0.0885
      8 C           2.0308    2.1128   -1.0171 C.ar    1  LIG1       -0.0775
      9 C           2.9235    3.5689    4.7410 C.ar    1  LIG1       -0.0972
     10 C           1.0740    4.6834    3.6572 C.ar    1  LIG1       -0.1014
     11 C           0.8753    6.6647   -1.8443 C.ar    1  LIG1       -0.0646
     12 C          -0.3042    0.6001   -1.2231 C.ar    1  LIG1       -0.0704
     13 C           2.0151    0.9569   -1.7978 C.ar    1  LIG1       -0.0567
     14 C           2.6562    5.8133   -0.4662 C.ar    1  LIG1        0.0579
     15 C           0.8789    2.5123   -0.3394 C.ar    1  LIG1       -0.0533
     16 C           2.1759    3.8305    3.5927 C.ar    1  LIG1       -0.0861
     17 C           1.3108    5.7772   -0.8499 C.ar    1  LIG1       -0.0411
     18 C           0.8476    0.2006   -1.9008 C.ar    1  LIG1       -0.0156
     19 C           3.1296    4.9381    0.6341 C.2     1  LIG1        0.1290
     20 C           0.8963    3.7707    0.5114 C.3     1  LIG1        0.0255
     21 C          -0.3941   -1.6541   -2.7217 C.3     1  LIG1        0.0233
     22 C           2.5568    3.1946    2.2871 C.3     1  LIG1        0.0147
     23 N           0.4181    4.9004   -0.2625 N.pl3   1  LIG1       -0.3751
     24 N           2.1982    4.0315    1.1470 N.am    1  LIG1       -0.3130
     25 O           4.2785    5.0717    1.0490 O.2     1  LIG1       -0.4740
     26 O           0.8325   -0.9279   -2.6616 O.3     1  LIG1       -0.4185
     27 H           1.1909    5.4723    6.9627 H       1  LIG1        0.1143
     28 H           3.7949    8.2545   -2.5494 H       1  LIG1        0.1110
     29 H           3.1508    3.9554    6.8478 H       1  LIG1        0.1144
     30 H          -0.1388    5.9377    4.9200 H       1  LIG1        0.1135
     31 H           1.4113    8.2256   -3.2297 H       1  LIG1        0.1314
     32 H           4.5976    6.7393   -0.7875 H       1  LIG1        0.1453
     33 H          -1.1905    2.0597    0.0821 H       1  LIG1        0.1289
     34 H           2.9450    2.6960   -0.9427 H       1  LIG1        0.1362
     35 H           3.7836    2.9058    4.7001 H       1  LIG1        0.1238
     36 H           0.4858    4.8931    2.7677 H       1  LIG1        0.1153
     37 H          -0.1666    6.6670   -2.1576 H       1  LIG1        0.1204
     38 H          -1.2168    0.0149   -1.2992 H       1  LIG1        0.1111
     39 H           2.9156    0.6510   -2.3229 H       1  LIG1        0.1278
     40 H           0.1590    3.6111    1.3382 H       1  LIG1        0.2008
     41 H          -0.2683   -2.5311   -3.3614 H       1  LIG1        0.0889
     42 H          -1.1813   -1.0091   -3.1201 H       1  LIG1        0.0891
     43 H          -0.6657   -1.9770   -1.7138 H       1  LIG1        0.1219
     44 H           3.6363    3.0136    2.2463 H       1  LIG1        0.1264
     45 H           2.0598    2.2269    2.1615 H       1  LIG1        0.1374
     46 H          -0.5480    4.9075   -0.5696 H       1  LIG1        0.3000
@<TRIPOS>BOND
     1     1     3   ar
     2     1     4   ar
     3     2     5   ar
     4     2     6   ar
     5     3     9   ar
     6     4    10   ar
     7     5    11   ar
     8     6    14   ar
     9     7    12   ar
    10     7    15   ar
    11     8    13   ar
    12     8    15   ar
    13     9    16   ar
    14    10    16   ar
    15    11    17   ar
    16    12    18   ar
    17    13    18   ar
    18    14    17   ar
    19    14    19    1
    20    15    20    1
    21    16    22    1
    22    17    23    1
    23    18    26    1
    24    19    24   am
    25    19    25    2
    26    20    23    1
    27    20    24    1
    28    21    26    1
    29    22    24    1
    30     1    27    1
    31     2    28    1
    32     3    29    1
    33     4    30    1
    34     5    31    1
    35     6    32    1
    36     7    33    1
    37     8    34    1
    38     9    35    1
    39    10    36    1
    40    11    37    1
    41    12    38    1
    42    13    39    1
    43    20    40    1
    44    21    41    1
    45    21    42    1
    46    21    43    1
    47    22    44    1
    48    22    45    1
    49    23    46    1
