@<TRIPOS>MOLECULE
AN-652/13447013
 48 50 0 0 0
SMALL
USER_CHARGES

@<TRIPOS>ATOM
      1 C           0.2487    0.7263   -1.6223 C.ar    1  LIG1       -0.0990
      2 C           2.0229    7.5642   -2.4827 C.ar    1  LIG1       -0.1008
      3 C          -0.4160    1.8981   -1.2605 C.ar    1  LIG1       -0.0987
      4 C           1.6307    0.6299   -1.4604 C.ar    1  LIG1       -0.0942
      5 C           1.1287    7.3303   -1.4381 C.ar    1  LIG1       -0.0968
      6 C           3.0618    6.6657   -2.7259 C.ar    1  LIG1       -0.0970
      7 C           0.3016    2.9736   -0.7368 C.ar    1  LIG1       -0.0849
      8 C           2.3483    1.7054   -0.9367 C.ar    1  LIG1       -0.0821
      9 C           1.2734    6.1980   -0.6365 C.ar    1  LIG1       -0.0824
     10 C           3.2065    5.5334   -1.9243 C.ar    1  LIG1       -0.0819
     11 C           0.6832    4.9455    5.7812 C.ar    1  LIG1       -0.0872
     12 C           3.0300    4.3865    5.9123 C.ar    1  LIG1       -0.0946
     13 C           0.6201    4.3819    4.5069 C.ar    1  LIG1       -0.0049
     14 C           2.9668    3.8229    4.6379 C.ar    1  LIG1       -0.0136
     15 C           1.8882    4.9478    6.4840 C.ar    1  LIG1       -0.1086
     16 C           1.6837    2.8772   -0.5749 C.ar    1  LIG1       -0.0300
     17 C           2.3123    5.2995   -0.8797 C.ar    1  LIG1       -0.0276
     18 C           1.7619    3.8206    3.9352 C.ar    1  LIG1        0.3042
     19 C           3.9363    3.7361    0.3084 C.2     1  LIG1        0.2140
     20 C           1.9561    5.5510    7.8462 C.3     1  LIG1       -0.0359
     21 C           5.5600    3.7339    2.0371 C.3     1  LIG1        0.0389
     22 C           2.4718    4.0570   -0.0006 C.3     1  LIG1        0.2310
     23 O           4.7607    3.3613   -0.5171 O.2     1  LIG1       -0.4253
     24 O           2.7544    2.1317    2.2657 O.2     1  LIG1       -0.0544
     25 O           0.3003    2.7249    2.0967 O.2     1  LIG1       -0.0544
     26 O           4.2067    3.9630    1.6322 O.3     1  LIG1       -0.3507
     27 O           2.0322    4.3458    1.3178 O.3     1  LIG1       -0.1046
     28 S           1.6826    3.1132    2.3411 S.O2    1  LIG1        0.0587
     29 H          -0.3104   -0.1114   -2.0288 H       1  LIG1        0.1205
     30 H           1.9093    8.4453   -3.1076 H       1  LIG1        0.1252
     31 H          -1.4923    1.9729   -1.3854 H       1  LIG1        0.1192
     32 H           2.1483   -0.2826   -1.7410 H       1  LIG1        0.1219
     33 H           0.3190    8.0292   -1.2493 H       1  LIG1        0.1233
     34 H           3.7576    6.8469   -3.5398 H       1  LIG1        0.1225
     35 H          -0.2246    3.8827   -0.4577 H       1  LIG1        0.1355
     36 H           3.4248    1.6214   -0.8143 H       1  LIG1        0.1274
     37 H           0.5720    6.0239    0.1753 H       1  LIG1        0.1348
     38 H           4.0190    4.8389   -2.1211 H       1  LIG1        0.1371
     39 H          -0.2114    5.3807    6.2185 H       1  LIG1        0.1259
     40 H           3.9733    4.3843    6.4521 H       1  LIG1        0.1226
     41 H          -0.3237    4.3858    3.9678 H       1  LIG1        0.1514
     42 H           3.8626    3.3887    4.2017 H       1  LIG1        0.1430
     43 H           1.7335    4.7957    8.6099 H       1  LIG1        0.0643
     44 H           2.9515    5.9673    8.0485 H       1  LIG1        0.0582
     45 H           1.2394    6.3757    7.9530 H       1  LIG1        0.0592
     46 H           5.6622    3.9441    3.1046 H       1  LIG1        0.1252
     47 H           6.2277    4.3803    1.4620 H       1  LIG1        0.1041
     48 H           5.8156    2.6887    1.8478 H       1  LIG1        0.0977
@<TRIPOS>BOND
     1     1     3   ar
     2     1     4   ar
     3     2     5   ar
     4     2     6   ar
     5     3     7   ar
     6     4     8   ar
     7     5     9   ar
     8     6    10   ar
     9     7    16   ar
    10     8    16   ar
    11     9    17   ar
    12    10    17   ar
    13    11    13   ar
    14    11    15   ar
    15    12    14   ar
    16    12    15   ar
    17    13    18   ar
    18    14    18   ar
    19    15    20    1
    20    16    22    1
    21    17    22    1
    22    18    28    1
    23    19    22    1
    24    19    23    2
    25    19    26    1
    26    21    26    1
    27    22    27    1
    28    24    28    2
    29    25    28    2
    30    27    28    1
    31     1    29    1
    32     2    30    1
    33     3    31    1
    34     4    32    1
    35     5    33    1
    36     6    34    1
    37     7    35    1
    38     8    36    1
    39     9    37    1
    40    10    38    1
    41    11    39    1
    42    12    40    1
    43    13    41    1
    44    14    42    1
    45    20    43    1
    46    20    44    1
    47    20    45    1
    48    21    46    1
    49    21    47    1
    50    21    48    1
