@<TRIPOS>MOLECULE
AO-081/42495761
 40 42 0 0 0
SMALL
USER_CHARGES

@<TRIPOS>ATOM
      1 C          -0.2080    0.8153   -1.4636 C.ar    1  LIG1       -0.0996
      2 C           2.8778    3.5941    5.2459 C.ar    1  LIG1       -0.0984
      3 C           1.8118    3.7108    6.1379 C.ar    1  LIG1       -0.0993
      4 C           1.6056    7.6387   -1.4675 C.ar    1  LIG1       -0.0907
      5 C          -0.4032    2.1044   -0.9681 C.ar    1  LIG1       -0.0960
      6 C           1.0847    0.3472   -1.6999 C.ar    1  LIG1       -0.0969
      7 C           2.2194    6.9033   -2.4813 C.ar    1  LIG1       -0.1009
      8 C           2.9139    4.3819    4.0953 C.ar    1  LIG1       -0.0744
      9 C           0.7818    4.6151    5.8792 C.ar    1  LIG1       -0.0926
     10 C           1.5313    7.1183   -0.1755 C.ar    1  LIG1       -0.0568
     11 C           0.6940    2.9256   -0.7088 C.ar    1  LIG1       -0.0869
     12 C           2.1819    1.1685   -1.4407 C.ar    1  LIG1       -0.0879
     13 C           2.7590    5.6474   -2.2033 C.ar    1  LIG1       -0.0868
     14 C           1.8839    5.2861    3.8366 C.ar    1  LIG1        0.0233
     15 C           0.8178    5.4029    4.7286 C.ar    1  LIG1       -0.0812
     16 C           2.0709    5.8624    0.1027 C.ar    1  LIG1       -0.0340
     17 C           1.9867    2.4576   -0.9452 C.ar    1  LIG1       -0.0529
     18 C           2.6847    5.1270   -0.9113 C.ar    1  LIG1       -0.0234
     19 C           1.9461    6.0959    2.6274 C.2     1  LIG1        0.1200
     20 C          -0.2986    6.3626    4.4760 C.3     1  LIG1       -0.0314
     21 N           1.9752    5.3690    1.4283 N.am    1  LIG1       -0.2999
     22 O           2.0038    7.3313    2.6759 O.2     1  LIG1       -0.4639
     23 S           3.3911    3.5091   -0.6139 S.3     1  LIG1       -0.1555
     24 H          -1.0628    0.1764   -1.6653 H       1  LIG1        0.1269
     25 H           3.6803    2.8902    5.4469 H       1  LIG1        0.1196
     26 H           1.7842    3.0970    7.0335 H       1  LIG1        0.1276
     27 H           1.1852    8.6165   -1.6838 H       1  LIG1        0.1253
     28 H          -1.4096    2.4692   -0.7843 H       1  LIG1        0.1219
     29 H           1.2359   -0.6566   -2.0857 H       1  LIG1        0.1214
     30 H           2.2774    7.3087   -3.4874 H       1  LIG1        0.1189
     31 H           3.7495    4.2807    3.4075 H       1  LIG1        0.1270
     32 H          -0.0439    4.6986    6.5810 H       1  LIG1        0.1230
     33 H           1.0503    7.7017    0.6058 H       1  LIG1        0.1497
     34 H           0.5218    3.9275   -0.3231 H       1  LIG1        0.1358
     35 H           3.1817    0.7862   -1.6314 H       1  LIG1        0.1345
     36 H           3.2331    5.0919   -3.0090 H       1  LIG1        0.1212
     37 H          -0.0720    7.3356    4.9270 H       1  LIG1        0.0599
     38 H          -0.4630    6.5050    3.4009 H       1  LIG1        0.0494
     39 H          -1.2416    5.9929    4.8971 H       1  LIG1        0.0792
     40 H           1.9208    4.3578    1.5218 H       1  LIG1        0.3246
@<TRIPOS>BOND
     1     1     5   ar
     2     1     6   ar
     3     2     3   ar
     4     2     8   ar
     5     3     9   ar
     6     4     7   ar
     7     4    10   ar
     8     5    11   ar
     9     6    12   ar
    10     7    13   ar
    11     8    14   ar
    12     9    15   ar
    13    10    16   ar
    14    11    17   ar
    15    12    17   ar
    16    13    18   ar
    17    14    15   ar
    18    14    19    1
    19    15    20    1
    20    16    18   ar
    21    16    21    1
    22    17    23    1
    23    18    23    1
    24    19    21   am
    25    19    22    2
    26     1    24    1
    27     2    25    1
    28     3    26    1
    29     4    27    1
    30     5    28    1
    31     6    29    1
    32     7    30    1
    33     8    31    1
    34     9    32    1
    35    10    33    1
    36    11    34    1
    37    12    35    1
    38    13    36    1
    39    20    37    1
    40    20    38    1
    41    20    39    1
    42    21    40    1
