@<TRIPOS>MOLECULE
ZINC01019808
 42 44 0 0 0
SMALL
USER_CHARGES

@<TRIPOS>ATOM
      1 C           2.5324    0.3813    3.8099 C.ar    1  LIG1       -0.1119
      2 C           1.9842    7.5310   -2.3080 C.ar    1  LIG1       -0.1094
      3 C           0.1859    0.7449   -1.8295 C.ar    1  LIG1       -0.1088
      4 C           1.3813    0.5904    3.0505 C.ar    1  LIG1       -0.1074
      5 C           3.5267    1.3587    3.8530 C.ar    1  LIG1       -0.1100
      6 C           1.0864    7.2547   -1.2768 C.ar    1  LIG1       -0.1057
      7 C           3.0291    6.6473   -2.5783 C.ar    1  LIG1       -0.1039
      8 C          -0.4655    1.9002   -1.3977 C.ar    1  LIG1       -0.1072
      9 C           1.5635    0.6139   -1.6540 C.ar    1  LIG1       -0.1057
     10 C           1.2245    1.7768    2.3340 C.ar    1  LIG1       -0.0990
     11 C           3.3699    2.5451    3.1365 C.ar    1  LIG1       -0.1045
     12 C           1.2333    6.0949   -0.5161 C.ar    1  LIG1       -0.0894
     13 C           3.1761    5.4875   -1.8176 C.ar    1  LIG1       -0.0857
     14 C           0.2606    2.9246   -0.7904 C.ar    1  LIG1       -0.0972
     15 C           2.2897    1.6383   -1.0467 C.ar    1  LIG1       -0.0947
     16 C           2.2188    2.7543    2.3769 C.ar    1  LIG1       -0.1016
     17 C           2.2782    5.2112   -0.7864 C.ar    1  LIG1       -0.0607
     18 C           1.6383    2.7938   -0.6149 C.ar    1  LIG1       -0.0721
     19 C           2.7835    5.2056    2.3164 C.3     1  LIG1       -0.0506
     20 C           2.0518    4.0230    1.6109 C.3     1  LIG1       -0.0109
     21 C           2.4419    3.9261    0.0562 C.3     1  LIG1        0.0218
     22 O           3.8444    3.5924    0.0371 O.3     1  LIG1       -0.4615
     23 H           2.6538   -0.5421    4.3688 H       1  LIG1        0.1092
     24 H           1.8688    8.4334   -2.9011 H       1  LIG1        0.1125
     25 H          -0.3799   -0.0533   -2.3012 H       1  LIG1        0.1140
     26 H           0.6065   -0.1701    3.0176 H       1  LIG1        0.1108
     27 H           4.4225    1.1966    4.4451 H       1  LIG1        0.1104
     28 H           0.2721    7.9422   -1.0669 H       1  LIG1        0.1135
     29 H           3.7276    6.8615   -3.3817 H       1  LIG1        0.1130
     30 H          -1.5383    2.0019   -1.5333 H       1  LIG1        0.1144
     31 H           2.0708   -0.2859   -1.9891 H       1  LIG1        0.1148
     32 H           0.3243    1.9310    1.7447 H       1  LIG1        0.1257
     33 H           4.1499    3.3009    3.1758 H       1  LIG1        0.1118
     34 H           0.5291    5.8879    0.2855 H       1  LIG1        0.1182
     35 H           3.9932    4.8048   -2.0353 H       1  LIG1        0.1268
     36 H          -0.2553    3.8213   -0.4573 H       1  LIG1        0.1176
     37 H           3.3627    1.5277   -0.9143 H       1  LIG1        0.1235
     38 H           3.8679    5.0758    2.3702 H       1  LIG1        0.0370
     39 H           2.4173    5.3574    3.3368 H       1  LIG1        0.0425
     40 H           2.5938    6.1332    1.7636 H       1  LIG1        0.0411
     41 H           0.9777    4.3124    1.6422 H       1  LIG1        0.0868
     42 H           4.2970    4.3506    0.4266 H       1  LIG1        0.3324
@<TRIPOS>BOND
     1     1     4   ar
     2     1     5   ar
     3     2     6   ar
     4     2     7   ar
     5     3     8   ar
     6     3     9   ar
     7     4    10   ar
     8     5    11   ar
     9     6    12   ar
    10     7    13   ar
    11     8    14   ar
    12     9    15   ar
    13    10    16   ar
    14    11    16   ar
    15    12    17   ar
    16    13    17   ar
    17    14    18   ar
    18    15    18   ar
    19    16    20    1
    20    17    21    1
    21    18    21    1
    22    19    20    1
    23    20    21    1
    24    21    22    1
    25     1    23    1
    26     2    24    1
    27     3    25    1
    28     4    26    1
    29     5    27    1
    30     6    28    1
    31     7    29    1
    32     8    30    1
    33     9    31    1
    34    10    32    1
    35    11    33    1
    36    12    34    1
    37    13    35    1
    38    14    36    1
    39    15    37    1
    40    19    38    1
    41    19    39    1
    42    19    40    1
    43    20    41    1
    44    22    42    1
