@<TRIPOS>MOLECULE
AG-690/10687051
 43 46 0 0 0
SMALL
USER_CHARGES

@<TRIPOS>ATOM
      1 C           0.6238    0.7858   -2.4599 C.ar    1  LIG1       -0.1076
      2 C           1.9255    0.9225   -1.9779 C.ar    1  LIG1       -0.1009
      3 C          -0.4095    1.5381   -1.9010 C.ar    1  LIG1       -0.1018
      4 C           2.1941    1.8113   -0.9371 C.ar    1  LIG1       -0.0777
      5 C          -0.1409    2.4269   -0.8601 C.ar    1  LIG1       -0.0794
      6 C           2.9278    5.3081   -1.5657 C.ar    1  LIG1       -0.0734
      7 C           1.1754    6.7759   -0.7837 C.ar    1  LIG1       -0.0765
      8 C           2.9916    4.1247    4.7587 C.ar    1  LIG1       -0.0632
      9 C           0.6564    4.7398    4.8361 C.ar    1  LIG1       -0.0527
     10 C           3.1042    6.1167   -2.6884 C.ar    1  LIG1       -0.0545
     11 C           1.3518    7.5846   -1.9064 C.ar    1  LIG1       -0.0623
     12 C           3.0736    4.2620    6.1443 C.ar    1  LIG1       -0.0754
     13 C           0.7385    4.8768    6.2217 C.ar    1  LIG1       -0.0692
     14 C           1.1610    2.5636   -0.3781 C.ar    1  LIG1       -0.0412
     15 C           1.9634    5.6377   -0.6133 C.ar    1  LIG1       -0.0495
     16 C           1.7829    4.3638    4.1045 C.ar    1  LIG1       -0.0093
     17 C           2.3162    7.2550   -2.8588 C.ar    1  LIG1       -0.0124
     18 C           1.9471    4.6379    6.8758 C.ar    1  LIG1       -0.0380
     19 C           1.4372    3.4786    0.6937 C.ar    1  LIG1        0.0003
     20 C           1.7811    4.8018    0.5471 C.ar    1  LIG1       -0.0192
     21 C           1.6979    4.2212    2.6713 C.ar    1  LIG1        0.0181
     22 C           1.6490    9.1925   -4.0658 C.3     1  LIG1        0.0241
     23 N           1.3868    3.1235    2.0184 N.ar    1  LIG1       -0.3605
     24 N           1.9444    5.2642    1.8224 N.ar    1  LIG1       -0.3257
     25 O           2.4883    8.0441   -3.9544 O.3     1  LIG1       -0.4172
     26 BR          2.0570    4.8204    8.7537 Br      1  LIG1       -0.1088
     27 H           0.4145    0.0945   -3.2710 H       1  LIG1        0.1140
     28 H           2.7303    0.3378   -2.4138 H       1  LIG1        0.1160
     29 H          -1.4227    1.4324   -2.2772 H       1  LIG1        0.1152
     30 H           3.2143    1.9066   -0.5723 H       1  LIG1        0.1279
     31 H          -0.9574    3.0061   -0.4351 H       1  LIG1        0.1235
     32 H           3.5500    4.4241   -1.4472 H       1  LIG1        0.1344
     33 H           0.4194    7.0463   -0.0503 H       1  LIG1        0.1396
     34 H           3.8788    3.8310    4.2025 H       1  LIG1        0.1291
     35 H          -0.2929    4.9291    4.3407 H       1  LIG1        0.1532
     36 H           3.8571    5.8548   -3.4269 H       1  LIG1        0.1307
     37 H           0.7350    8.4701   -2.0338 H       1  LIG1        0.1169
     38 H           4.0228    4.0718    6.6389 H       1  LIG1        0.1384
     39 H          -0.1490    5.1695    6.7770 H       1  LIG1        0.1412
     40 H           1.8901    9.7332   -4.9843 H       1  LIG1        0.0896
     41 H           1.7994    9.8403   -3.1987 H       1  LIG1        0.1224
     42 H           0.6060    8.8685   -4.0995 H       1  LIG1        0.0903
     43 H           2.2013    6.2058    2.0898 H       1  LIG1        0.3514
@<TRIPOS>BOND
     1     1     2   ar
     2     1     3   ar
     3     2     4   ar
     4     3     5   ar
     5     4    14   ar
     6     5    14   ar
     7     6    10   ar
     8     6    15   ar
     9     7    11   ar
    10     7    15   ar
    11     8    12   ar
    12     8    16   ar
    13     9    13   ar
    14     9    16   ar
    15    10    17   ar
    16    11    17   ar
    17    12    18   ar
    18    13    18   ar
    19    14    19    1
    20    15    20    1
    21    16    21    1
    22    17    25    1
    23    18    26    1
    24    19    20   ar
    25    19    23   ar
    26    20    24   ar
    27    21    23   ar
    28    21    24   ar
    29    22    25    1
    30     1    27    1
    31     2    28    1
    32     3    29    1
    33     4    30    1
    34     5    31    1
    35     6    32    1
    36     7    33    1
    37     8    34    1
    38     9    35    1
    39    10    36    1
    40    11    37    1
    41    12    38    1
    42    13    39    1
    43    22    40    1
    44    22    41    1
    45    22    42    1
    46    24    43    1
