@<TRIPOS>MOLECULE
AG-690/36466037
 39 42 0 0 0
SMALL
USER_CHARGES

@<TRIPOS>ATOM
      1 C           1.5084    0.5519   -1.0070 C.ar    1  LIG1       -0.0835
      2 C           3.2316    7.3123   -2.1659 C.ar    1  LIG1       -0.0898
      3 C           0.8993    5.1735    4.9209 C.ar    1  LIG1       -0.0999
      4 C           0.1926    0.6973   -1.4242 C.ar    1  LIG1       -0.0892
      5 C           1.9756    7.6556   -2.6449 C.ar    1  LIG1       -0.0880
      6 C           1.0387    4.5645    6.1680 C.ar    1  LIG1       -0.0954
      7 C           2.2542    1.6766   -0.6470 C.ar    1  LIG1       -0.0521
      8 C           3.4001    6.1498   -1.4076 C.ar    1  LIG1       -0.0642
      9 C           1.7968    4.8761    3.8953 C.ar    1  LIG1       -0.0641
     10 C          -0.3688    1.9687   -1.4995 C.ar    1  LIG1       -0.0730
     11 C           0.8895    6.8305   -2.3733 C.ar    1  LIG1       -0.0698
     12 C           2.0756    3.6582    6.3896 C.ar    1  LIG1       -0.0649
     13 C           1.6984    2.9698   -0.6801 C.ar    1  LIG1       -0.0100
     14 C           2.3178    5.3012   -1.1080 C.ar    1  LIG1       -0.0180
     15 C           2.8337    3.9698    4.1169 C.ar    1  LIG1        0.0227
     16 C           0.3809    3.1022   -1.1472 C.ar    1  LIG1       -0.0059
     17 C           1.0549    5.6573   -1.6187 C.ar    1  LIG1       -0.0060
     18 C           2.9731    3.3609    5.3641 C.ar    1  LIG1        0.0302
     19 C           3.4434    4.0822    0.7461 C.2     1  LIG1        0.1642
     20 C           3.1558    3.1495    1.9081 C.3     1  LIG1        0.1487
     21 N           2.5033    4.1083   -0.3085 N.am    1  LIG1       -0.2749
     22 O           4.4208    4.8275    0.8622 O.2     1  LIG1       -0.4362
     23 O           3.7037    3.6957    3.0875 O.3     1  LIG1       -0.3721
     24 S          -0.3980    4.6900   -1.2806 S.3     1  LIG1       -0.1250
     25 CL          4.2460    2.2364    5.6661 Cl      1  LIG1       -0.1281
     26 H           1.9599   -0.4355   -0.9669 H       1  LIG1        0.1339
     27 H           4.0859    7.9508   -2.3768 H       1  LIG1        0.1356
     28 H           0.0919    5.8792    4.7485 H       1  LIG1        0.1315
     29 H          -0.3926   -0.1764   -1.7006 H       1  LIG1        0.1307
     30 H           1.8390    8.5709   -3.2149 H       1  LIG1        0.1328
     31 H           0.3398    4.7961    6.9664 H       1  LIG1        0.1226
     32 H           3.2831    1.4991   -0.3623 H       1  LIG1        0.1446
     33 H           4.4072    5.9504   -1.0656 H       1  LIG1        0.1324
     34 H           1.6821    5.3543    2.9263 H       1  LIG1        0.1172
     35 H          -1.3943    2.0559   -1.8420 H       1  LIG1        0.1417
     36 H          -0.0844    7.1255   -2.7493 H       1  LIG1        0.1460
     37 H           2.1708    3.1922    7.3671 H       1  LIG1        0.1449
     38 H           3.5987    2.1802    1.7093 H       1  LIG1        0.1673
     39 H           2.0818    3.0525    2.0187 H       1  LIG1        0.1628
@<TRIPOS>BOND
     1     1     4   ar
     2     1     7   ar
     3     2     5   ar
     4     2     8   ar
     5     3     6   ar
     6     3     9   ar
     7     4    10   ar
     8     5    11   ar
     9     6    12   ar
    10     7    13   ar
    11     8    14   ar
    12     9    15   ar
    13    10    16   ar
    14    11    17   ar
    15    12    18   ar
    16    13    16   ar
    17    13    21    1
    18    14    17   ar
    19    14    21    1
    20    15    18   ar
    21    15    23    1
    22    16    24    1
    23    17    24    1
    24    18    25    1
    25    19    20    1
    26    19    21   am
    27    19    22    2
    28    20    23    1
    29     1    26    1
    30     2    27    1
    31     3    28    1
    32     4    29    1
    33     5    30    1
    34     6    31    1
    35     7    32    1
    36     8    33    1
    37     9    34    1
    38    10    35    1
    39    11    36    1
    40    12    37    1
    41    20    38    1
    42    20    39    1
