@<TRIPOS>MOLECULE
AJ-292/15587035
 53 56 0 0 0
SMALL
USER_CHARGES

@<TRIPOS>ATOM
      1 C           0.3633    0.6150   -1.9096 C.ar    1  LIG1       -0.1078
      2 C           2.1768    7.5601   -2.4355 C.ar    1  LIG1       -0.1061
      3 C           1.5995    4.6267    6.5917 C.ar    1  LIG1       -0.0973
      4 C           1.6948    0.9643   -2.1350 C.ar    1  LIG1       -0.1059
      5 C          -0.4205    1.3770   -1.0432 C.ar    1  LIG1       -0.1026
      6 C           3.1661    6.5840   -2.5538 C.ar    1  LIG1       -0.1047
      7 C           1.1488    7.4021   -1.5060 C.ar    1  LIG1       -0.1040
      8 C           0.5689    4.8080    5.6694 C.ar    1  LIG1       -0.0907
      9 C           2.8788    4.2885    6.1504 C.ar    1  LIG1       -0.0662
     10 C           2.2424    2.0756   -1.4940 C.ar    1  LIG1       -0.0966
     11 C           0.1270    2.4883   -0.4022 C.ar    1  LIG1       -0.0922
     12 C           3.1274    5.4498   -1.7429 C.ar    1  LIG1       -0.0990
     13 C           1.1101    6.2678   -0.6950 C.ar    1  LIG1       -0.0975
     14 C           0.8174    4.6508    4.3059 C.ar    1  LIG1       -0.0534
     15 C           3.1275    4.1313    4.7869 C.ar    1  LIG1        0.0574
     16 C           1.4585    2.8377   -0.6276 C.ar    1  LIG1       -0.0679
     17 C           2.0994    5.2916   -0.8134 C.ar    1  LIG1       -0.0740
     18 C           2.0968    4.3125    3.8646 C.ar    1  LIG1       -0.0149
     19 C           4.4772    3.7770    4.3586 C.2     1  LIG1        0.1204
     20 C           1.4056    4.3118    1.4404 C.2     1  LIG1        0.1157
     21 C           4.5490    0.1039    3.8772 C.3     1  LIG1       -0.0416
     22 C           6.0300    0.4502    3.9602 C.3     1  LIG1       -0.0408
     23 C           3.8863    1.2927    4.5595 C.3     1  LIG1       -0.0257
     24 C           6.0386    1.9518    3.7199 C.3     1  LIG1       -0.0241
     25 C           2.0564    4.0519    0.0733 C.3     1  LIG1        0.0892
     26 N           4.7694    2.4196    4.2606 N.am    1  LIG1       -0.3572
     27 N           2.3221    4.1584    2.4939 N.am    1  LIG1       -0.2967
     28 O           5.2886    4.6607    4.0840 O.2     1  LIG1       -0.4749
     29 O           0.2212    4.6170    1.5494 O.2     1  LIG1       -0.4643
     30 H          -0.0634   -0.2494   -2.4097 H       1  LIG1        0.1146
     31 H           2.2078    8.4438   -3.0661 H       1  LIG1        0.1169
     32 H           1.4056    4.7489    7.6533 H       1  LIG1        0.1169
     33 H           2.3049    0.3717   -2.8103 H       1  LIG1        0.1148
     34 H          -1.4575    1.1060   -0.8682 H       1  LIG1        0.1149
     35 H           3.9672    6.7074   -3.2768 H       1  LIG1        0.1174
     36 H           0.3790    8.1624   -1.4127 H       1  LIG1        0.1184
     37 H          -0.4270    5.0716    6.0134 H       1  LIG1        0.1314
     38 H           3.6736    4.1503    6.8791 H       1  LIG1        0.1342
     39 H           3.2807    2.3401   -1.6755 H       1  LIG1        0.1186
     40 H          -0.4911    3.0761    0.2712 H       1  LIG1        0.1225
     41 H           3.9024    4.6943   -1.8423 H       1  LIG1        0.1169
     42 H           0.3053    6.1531    0.0263 H       1  LIG1        0.1218
     43 H           0.0058    4.7948    3.5972 H       1  LIG1        0.1500
     44 H           4.2391    0.0516    2.8265 H       1  LIG1        0.0596
     45 H           4.3038   -0.8476    4.3563 H       1  LIG1        0.0636
     46 H           6.4071    0.2276    4.9656 H       1  LIG1        0.0654
     47 H           6.6396   -0.0962    3.2355 H       1  LIG1        0.0580
     48 H           2.8724    1.4785    4.1937 H       1  LIG1        0.0955
     49 H           3.8595    1.1684    5.6476 H       1  LIG1        0.0959
     50 H           6.8777    2.4613    4.2028 H       1  LIG1        0.0965
     51 H           6.0507    2.1885    2.6502 H       1  LIG1        0.1026
     52 H           3.1056    3.8043    0.2990 H       1  LIG1        0.1454
     53 H           3.2787    3.9096    2.2210 H       1  LIG1        0.3314
@<TRIPOS>BOND
     1     1     4   ar
     2     1     5   ar
     3     2     6   ar
     4     2     7   ar
     5     3     8   ar
     6     3     9   ar
     7     4    10   ar
     8     5    11   ar
     9     6    12   ar
    10     7    13   ar
    11     8    14   ar
    12     9    15   ar
    13    10    16   ar
    14    11    16   ar
    15    12    17   ar
    16    13    17   ar
    17    14    18   ar
    18    15    18   ar
    19    15    19    1
    20    16    25    1
    21    17    25    1
    22    18    27    1
    23    19    26   am
    24    19    28    2
    25    20    25    1
    26    20    27   am
    27    20    29    2
    28    21    22    1
    29    21    23    1
    30    22    24    1
    31    23    26    1
    32    24    26    1
    33     1    30    1
    34     2    31    1
    35     3    32    1
    36     4    33    1
    37     5    34    1
    38     6    35    1
    39     7    36    1
    40     8    37    1
    41     9    38    1
    42    10    39    1
    43    11    40    1
    44    12    41    1
    45    13    42    1
    46    14    43    1
    47    21    44    1
    48    21    45    1
    49    22    46    1
    50    22    47    1
    51    23    48    1
    52    23    49    1
    53    24    50    1
    54    24    51    1
    55    25    52    1
    56    27    53    1
