@<TRIPOS>MOLECULE
AP-065/41884072
 45 48 0 0 0
SMALL
USER_CHARGES

@<TRIPOS>ATOM
      1 C           2.0821    7.5985   -2.2674 C.ar    1  LIG1       -0.1082
      2 C           0.2182    0.6382   -1.7878 C.ar    1  LIG1       -0.1067
      3 C           2.6424    6.4596   -2.8461 C.ar    1  LIG1       -0.1046
      4 C           1.6139    7.5550   -0.9542 C.ar    1  LIG1       -0.1015
      5 C          -0.2283    1.9464   -1.9743 C.ar    1  LIG1       -0.1013
      6 C           1.3574    0.3927   -1.0212 C.ar    1  LIG1       -0.1061
      7 C           2.7344    5.2774   -2.1116 C.ar    1  LIG1       -0.0867
      8 C           1.7057    6.3728   -0.2197 C.ar    1  LIG1       -0.0839
      9 C           0.4643    3.0091   -1.3944 C.ar    1  LIG1       -0.0874
     10 C           2.0501    1.4555   -0.4413 C.ar    1  LIG1       -0.0939
     11 C           3.2722    4.1207    3.5911 C.ar    1  LIG1       -0.0925
     12 C           2.0510    4.2056    4.2599 C.ar    1  LIG1       -0.0574
     13 C           2.2660    5.2339   -0.7983 C.ar    1  LIG1       -0.0472
     14 C           1.6036    2.7637   -0.6279 C.ar    1  LIG1       -0.0543
     15 C           3.2594    4.0279    2.2095 C.ar    1  LIG1       -0.0651
     16 C           2.0719    4.0334    1.4881 C.ar    1  LIG1       -0.0044
     17 C           0.8468    4.1991    3.5426 C.ar    1  LIG1        0.0351
     18 C           0.8518    4.1116    2.1485 C.ar    1  LIG1        0.0510
     19 C           4.4056    3.9280    1.2825 C.3     1  LIG1        0.0379
     20 C           2.3667    3.9330    0.0106 C.3     1  LIG1        0.0760
     21 C          -0.8494    5.5858    4.4675 C.3     1  LIG1        0.0260
     22 C          -1.2395    3.0618    1.7237 C.3     1  LIG1        0.0209
     23 O           3.8027    3.6157    0.0084 O.3     1  LIG1       -0.4130
     24 O          -0.3316    4.2801    4.2236 O.3     1  LIG1       -0.4078
     25 O          -0.3172    4.1171    1.4536 O.3     1  LIG1       -0.4083
     26 H           2.0118    8.5192   -2.8390 H       1  LIG1        0.1136
     27 H          -0.3220   -0.1893   -2.2383 H       1  LIG1        0.1170
     28 H           3.0081    6.4936   -3.8682 H       1  LIG1        0.1128
     29 H           1.1786    8.4417   -0.5030 H       1  LIG1        0.1138
     30 H          -1.1160    2.1376   -2.5703 H       1  LIG1        0.1178
     31 H           1.7047   -0.6258   -0.8747 H       1  LIG1        0.1143
     32 H           3.1722    4.3949   -2.5706 H       1  LIG1        0.1257
     33 H           1.3382    6.3482    0.8028 H       1  LIG1        0.1246
     34 H           0.1093    4.0252   -1.5453 H       1  LIG1        0.1265
     35 H           2.9368    1.2547    0.1543 H       1  LIG1        0.1154
     36 H           4.2053    4.1224    4.1444 H       1  LIG1        0.1355
     37 H           2.0390    4.2740    5.3446 H       1  LIG1        0.1236
     38 H           4.9424    4.8771    1.1958 H       1  LIG1        0.1370
     39 H           5.0930    3.1202    1.5471 H       1  LIG1        0.1205
     40 H          -1.7905    5.5085    5.0176 H       1  LIG1        0.0904
     41 H          -1.0124    6.0978    3.5158 H       1  LIG1        0.0895
     42 H          -0.1271    6.1492    5.0630 H       1  LIG1        0.1235
     43 H          -2.1293    3.1865    1.1018 H       1  LIG1        0.0823
     44 H          -1.5155    3.0796    2.7810 H       1  LIG1        0.0840
     45 H          -0.7647    2.1062    1.4891 H       1  LIG1        0.1158
@<TRIPOS>BOND
     1     1     3   ar
     2     1     4   ar
     3     2     5   ar
     4     2     6   ar
     5     3     7   ar
     6     4     8   ar
     7     5     9   ar
     8     6    10   ar
     9     7    13   ar
    10     8    13   ar
    11     9    14   ar
    12    10    14   ar
    13    11    12   ar
    14    11    15   ar
    15    12    17   ar
    16    13    20    1
    17    14    20    1
    18    15    16   ar
    19    15    19    1
    20    16    18   ar
    21    16    20    1
    22    17    18   ar
    23    17    24    1
    24    18    25    1
    25    19    23    1
    26    20    23    1
    27    21    24    1
    28    22    25    1
    29     1    26    1
    30     2    27    1
    31     3    28    1
    32     4    29    1
    33     5    30    1
    34     6    31    1
    35     7    32    1
    36     8    33    1
    37     9    34    1
    38    10    35    1
    39    11    36    1
    40    12    37    1
    41    19    38    1
    42    19    39    1
    43    21    40    1
    44    21    41    1
    45    21    42    1
    46    22    43    1
    47    22    44    1
    48    22    45    1
