@<TRIPOS>MOLECULE
AN-988/15131130
 36 39 0 0 0
SMALL
USER_CHARGES

@<TRIPOS>ATOM
      1 C           0.6242    0.6262   -0.8996 C.ar    1  LIG1       -0.0999
      2 C           2.0159    3.9454    6.2439 C.ar    1  LIG1       -0.0856
      3 C           0.8530    4.6622    5.8994 C.ar    1  LIG1       -0.0855
      4 C          -0.3384    1.6256   -0.7577 C.ar    1  LIG1       -0.0906
      5 C           1.9455    0.9666   -1.1896 C.ar    1  LIG1       -0.0936
      6 C           1.7393    6.7204   -2.1468 C.ar    1  LIG1       -0.0919
      7 C           2.9932    3.6574    5.2871 C.ar    1  LIG1       -0.0684
      8 C           0.6429    5.1068    4.5911 C.ar    1  LIG1       -0.0681
      9 C           0.0202    2.9655   -0.9059 C.ar    1  LIG1       -0.0589
     10 C           2.3041    2.3063   -1.3378 C.ar    1  LIG1       -0.0639
     11 C           2.6649    6.6328   -1.0779 C.ar    1  LIG1       -0.0860
     12 C           1.1571    5.4803   -2.2895 C.ar    1  LIG1       -0.0534
     13 C           2.7717    4.1027    3.9984 C.ar    1  LIG1        0.0200
     14 C           1.6172    4.8148    3.6565 C.ar    1  LIG1        0.0203
     15 C           1.3415    3.3059   -1.1959 C.ar    1  LIG1       -0.0301
     16 C           2.6204    5.3416   -0.6000 C.ar    1  LIG1       -0.0312
     17 C           3.6384    3.9280    2.8233 C.2     1  LIG1        0.1236
     18 C           1.6308    5.1673    2.2288 C.2     1  LIG1        0.1206
     19 C           2.9068    4.6025    1.7209 C.2     1  LIG1        0.1029
     20 C           3.3323    4.6881    0.4615 C.2     1  LIG1       -0.0107
     21 N           1.7005    4.6501   -1.3443 N.ar    1  LIG1       -0.3432
     22 O           4.7070    3.3591    2.7794 O.2     1  LIG1       -0.4308
     23 O           0.7835    5.7806    1.6177 O.2     1  LIG1       -0.4384
     24 H           0.3458   -0.4170   -0.7825 H       1  LIG1        0.1230
     25 H           2.1526    3.6121    7.2694 H       1  LIG1        0.1352
     26 H           0.1094    4.8717    6.6642 H       1  LIG1        0.1353
     27 H          -1.3669    1.3609   -0.5306 H       1  LIG1        0.1264
     28 H           2.6948    0.1877   -1.2984 H       1  LIG1        0.1260
     29 H           1.5202    7.5920   -2.7475 H       1  LIG1        0.1188
     30 H           3.8863    3.1052    5.5562 H       1  LIG1        0.1407
     31 H          -0.2530    5.6583    4.3302 H       1  LIG1        0.1428
     32 H          -0.7397    3.7347   -0.7919 H       1  LIG1        0.1394
     33 H           3.3377    2.5577   -1.5630 H       1  LIG1        0.1296
     34 H           3.2936    7.4284   -0.7013 H       1  LIG1        0.1339
     35 H           0.4054    5.1298   -2.9850 H       1  LIG1        0.1879
     36 H           4.2776    4.2038    0.2116 H       1  LIG1        0.2039
@<TRIPOS>BOND
     1     1     4   ar
     2     1     5   ar
     3     2     3   ar
     4     2     7   ar
     5     3     8   ar
     6     4     9   ar
     7     5    10   ar
     8     6    11   ar
     9     6    12   ar
    10     7    13   ar
    11     8    14   ar
    12     9    15   ar
    13    10    15   ar
    14    11    16   ar
    15    12    21   ar
    16    13    14   ar
    17    13    17    1
    18    14    18    1
    19    15    21    1
    20    16    20    1
    21    16    21   ar
    22    17    19    1
    23    17    22    2
    24    18    19    1
    25    18    23    2
    26    19    20    2
    27     1    24    1
    28     2    25    1
    29     3    26    1
    30     4    27    1
    31     5    28    1
    32     6    29    1
    33     7    30    1
    34     8    31    1
    35     9    32    1
    36    10    33    1
    37    11    34    1
    38    12    35    1
    39    20    36    1
