@<TRIPOS>MOLECULE
AK-968/12971037
 44 47 0 0 0
SMALL
USER_CHARGES

@<TRIPOS>ATOM
      1 C           2.9098    3.6009    4.7230 C.ar    1  LIG1       -0.0746
      2 C           0.9752    4.9878    4.3091 C.ar    1  LIG1       -0.0766
      3 C           2.2732    1.4004   -0.9782 C.ar    1  LIG1       -0.0861
      4 C           0.5744    3.0282   -0.4292 C.ar    1  LIG1       -0.0834
      5 C           2.6322    3.6216    6.0897 C.ar    1  LIG1       -0.0961
      6 C           0.6976    5.0085    5.6758 C.ar    1  LIG1       -0.0971
      7 C           1.3137    0.6143   -1.6161 C.ar    1  LIG1       -0.0722
      8 C          -0.3851    2.2421   -1.0670 C.ar    1  LIG1       -0.0698
      9 C           1.9724    7.3272   -2.9477 C.ar    1  LIG1        0.0408
     10 C           2.0814    4.2840    3.8326 C.ar    1  LIG1       -0.0358
     11 C           1.9036    2.6075   -0.3846 C.ar    1  LIG1       -0.0748
     12 C           1.5262    4.3253    6.5662 C.ar    1  LIG1       -0.1152
     13 C           2.3264    5.6646   -0.7357 C.ar    1  LIG1        0.1139
     14 C           3.2228    6.7648   -2.6909 C.ar    1  LIG1        0.1575
     15 C           0.8990    7.0583   -2.0984 C.ar    1  LIG1        0.1584
     16 C           3.3998    5.9335   -1.5849 C.ar    1  LIG1        0.1940
     17 C           1.0760    6.2269   -0.9924 C.ar    1  LIG1        0.1960
     18 C          -0.0154    1.0352   -1.6606 C.ar    1  LIG1       -0.0153
     19 C           2.3696    4.2628    2.4072 C.2     1  LIG1        0.0104
     20 C           3.0530    3.0800    1.7778 C.3     1  LIG1        0.0314
     21 C           2.9314    3.4508    0.2973 C.3     1  LIG1        0.0198
     22 C           1.2291    4.3462    8.0277 C.3     1  LIG1       -0.0423
     23 N           2.0969    5.2342    1.5942 N.2     1  LIG1       -0.3246
     24 N           2.5002    4.8483    0.3507 N.pl3   1  LIG1       -0.3131
     25 F           4.2537    7.0237   -3.5059 F       1  LIG1       -0.2394
     26 F          -0.3019    7.5979   -2.3452 F       1  LIG1       -0.2392
     27 F           4.6064    5.3997   -1.3470 F       1  LIG1       -0.2253
     28 F           0.0373    5.9744   -0.1836 F       1  LIG1       -0.2223
     29 CL         -1.1988    0.0652   -2.4477 Cl      1  LIG1       -0.1420
     30 H           3.7740    3.0495    4.3620 H       1  LIG1        0.1345
     31 H           0.3229    5.5238    3.6246 H       1  LIG1        0.1305
     32 H           3.3067    1.0656   -0.9476 H       1  LIG1        0.1320
     33 H           0.2783    3.9675    0.0306 H       1  LIG1        0.1330
     34 H           3.2828    3.0863    6.7762 H       1  LIG1        0.1199
     35 H          -0.1667    5.5590    6.0383 H       1  LIG1        0.1206
     36 H           1.6165   -0.3237   -2.0744 H       1  LIG1        0.1332
     37 H          -1.4170    2.5828   -1.0937 H       1  LIG1        0.1332
     38 H           1.8346    7.9747   -3.8084 H       1  LIG1        0.1777
     39 H           4.1001    3.0761    2.0990 H       1  LIG1        0.1015
     40 H           2.5749    2.1369    2.0567 H       1  LIG1        0.1027
     41 H           3.8905    3.3408   -0.2196 H       1  LIG1        0.1375
     42 H           1.7342    5.1931    8.5079 H       1  LIG1        0.0580
     43 H           0.1507    4.4331    8.2138 H       1  LIG1        0.0544
     44 H           1.5620    3.4205    8.5150 H       1  LIG1        0.0542
@<TRIPOS>BOND
     1     1     5   ar
     2     1    10   ar
     3     2     6   ar
     4     2    10   ar
     5     3     7   ar
     6     3    11   ar
     7     4     8   ar
     8     4    11   ar
     9     5    12   ar
    10     6    12   ar
    11     7    18   ar
    12     8    18   ar
    13     9    14   ar
    14     9    15   ar
    15    10    19    1
    16    11    21    1
    17    12    22    1
    18    13    16   ar
    19    13    17   ar
    20    13    24    1
    21    14    16   ar
    22    14    25    1
    23    15    17   ar
    24    15    26    1
    25    16    27    1
    26    17    28    1
    27    18    29    1
    28    19    20    1
    29    19    23    2
    30    20    21    1
    31    21    24    1
    32    23    24    1
    33     1    30    1
    34     2    31    1
    35     3    32    1
    36     4    33    1
    37     5    34    1
    38     6    35    1
    39     7    36    1
    40     8    37    1
    41     9    38    1
    42    20    39    1
    43    20    40    1
    44    21    41    1
    45    22    42    1
    46    22    43    1
    47    22    44    1
