@<TRIPOS>MOLECULE
AG-690/11086058
 42 44 0 0 0
SMALL
USER_CHARGES

@<TRIPOS>ATOM
      1 C           0.5018    0.4366   -1.5138 C.ar    1  LIG1       -0.1021
      2 C           2.3964    7.7098   -2.2082 C.ar    1  LIG1       -0.1088
      3 C           0.0995    1.6150   -2.1423 C.ar    1  LIG1       -0.0952
      4 C           1.3171    0.4923   -0.3834 C.ar    1  LIG1       -0.0966
      5 C           1.1368    7.4424   -1.6719 C.ar    1  LIG1       -0.1016
      6 C           3.4431    6.8086   -2.0133 C.ar    1  LIG1       -0.0986
      7 C           2.8584    4.1991    4.0870 C.ar    1  LIG1       -0.0688
      8 C           0.5126    2.8492   -1.6405 C.ar    1  LIG1       -0.0663
      9 C           1.7303    1.7266    0.1184 C.ar    1  LIG1       -0.0687
     10 C           0.9239    6.2739   -0.9406 C.ar    1  LIG1       -0.0626
     11 C           3.2302    5.6400   -1.2821 C.ar    1  LIG1       -0.0575
     12 C           3.1323    4.2279    5.4542 C.ar    1  LIG1       -0.0502
     13 C           0.5224    4.6105    4.5461 C.ar    1  LIG1       -0.0399
     14 C           1.5535    4.3905    3.6328 C.ar    1  LIG1       -0.0371
     15 C           1.3280    2.9050   -0.5102 C.ar    1  LIG1       -0.0312
     16 C           1.9707    5.3726   -0.7457 C.ar    1  LIG1       -0.0211
     17 C           2.1012    4.4481    6.3676 C.ar    1  LIG1        0.0090
     18 C           0.7963    4.6393    5.9135 C.ar    1  LIG1        0.0277
     19 C           1.2684    4.3624    2.2070 C.2     1  LIG1        0.0166
     20 C          -0.4941    6.2127    7.1443 C.3     1  LIG1        0.0247
     21 N           2.1923    4.1537    1.3075 N.2     1  LIG1       -0.3127
     22 N           1.7523    4.1719    0.0055 N.pl3   1  LIG1       -0.3005
     23 O           2.3816    4.4739    7.7005 O.3     1  LIG1       -0.4271
     24 O          -0.2189    4.8575    6.7952 O.3     1  LIG1       -0.4106
     25 H           0.1802   -0.5244   -1.9048 H       1  LIG1        0.1200
     26 H           2.5621    8.6200   -2.7775 H       1  LIG1        0.1073
     27 H          -0.5351    1.5714   -3.0223 H       1  LIG1        0.1254
     28 H           1.6304   -0.4255    0.1059 H       1  LIG1        0.1250
     29 H           0.3222    8.1442   -1.8236 H       1  LIG1        0.1228
     30 H           4.4239    7.0170   -2.4311 H       1  LIG1        0.1231
     31 H           3.6697    4.0269    3.3843 H       1  LIG1        0.1368
     32 H           0.1937    3.7616   -2.1377 H       1  LIG1        0.1288
     33 H           2.3655    1.7576    1.0001 H       1  LIG1        0.1237
     34 H          -0.0612    6.0750   -0.5267 H       1  LIG1        0.1186
     35 H           4.0533    4.9449   -1.1368 H       1  LIG1        0.1290
     36 H           4.1508    4.0779    5.8017 H       1  LIG1        0.1423
     37 H          -0.4958    4.7625    4.1952 H       1  LIG1        0.1290
     38 H           0.2118    4.5201    1.8901 H       1  LIG1        0.1889
     39 H          -1.3249    6.2456    7.8534 H       1  LIG1        0.0889
     40 H          -0.7472    6.7778    6.2437 H       1  LIG1        0.1227
     41 H           0.3946    6.6479    7.6075 H       1  LIG1        0.0892
     42 H           3.3290    4.3252    7.8466 H       1  LIG1        0.3579
@<TRIPOS>BOND
     1     1     3   ar
     2     1     4   ar
     3     2     5   ar
     4     2     6   ar
     5     3     8   ar
     6     4     9   ar
     7     5    10   ar
     8     6    11   ar
     9     7    12   ar
    10     7    14   ar
    11     8    15   ar
    12     9    15   ar
    13    10    16   ar
    14    11    16   ar
    15    12    17   ar
    16    13    14   ar
    17    13    18   ar
    18    14    19    1
    19    15    22    1
    20    16    22    1
    21    17    18   ar
    22    17    23    1
    23    18    24    1
    24    19    21    2
    25    20    24    1
    26    21    22    1
    27     1    25    1
    28     2    26    1
    29     3    27    1
    30     4    28    1
    31     5    29    1
    32     6    30    1
    33     7    31    1
    34     8    32    1
    35     9    33    1
    36    10    34    1
    37    11    35    1
    38    12    36    1
    39    13    37    1
    40    19    38    1
    41    20    39    1
    42    20    40    1
    43    20    41    1
    44    23    42    1
