@<TRIPOS>MOLECULE
AK-968/11492092
 42 45 0 0 0
SMALL
USER_CHARGES

@<TRIPOS>ATOM
      1 C           0.7946    6.7890   -1.7338 C.ar    1  LIG1       -0.1032
      2 C           1.7387    7.4445   -2.5239 C.ar    1  LIG1       -0.1045
      3 C           1.0892    1.3259   -2.5087 C.ar    1  LIG1       -0.1062
      4 C           1.1996    5.7931   -0.8449 C.ar    1  LIG1       -0.0899
      5 C           3.1091    4.3906    4.4845 C.ar    1  LIG1       -0.0315
      6 C           3.0879    7.1042   -2.4254 C.ar    1  LIG1       -0.0699
      7 C           3.0362    4.4314    5.8768 C.ar    1  LIG1       -0.0309
      8 C           1.8138    2.3408   -1.8197 C.ar    1  LIG1       -0.0852
      9 C           0.6293    4.5964    5.7458 C.ar    1  LIG1        0.0185
     10 C           0.1183    0.7546   -1.7160 C.ar    1  LIG1       -0.0440
     11 C           2.5487    5.4528   -0.7465 C.ar    1  LIG1       -0.0426
     12 C           1.9422    4.4527    3.7228 C.ar    1  LIG1        0.0348
     13 C           3.4929    6.1083   -1.5367 C.ar    1  LIG1       -0.0074
     14 C           1.7963    4.5343    6.5075 C.ar    1  LIG1        0.0771
     15 C           0.7023    4.5556    4.3535 C.ar    1  LIG1        0.1266
     16 C           1.3689    2.5068   -0.5264 C.ar    1  LIG1        0.0150
     17 C           1.8331    3.4113    0.4664 C.2     1  LIG1        0.0319
     18 C           3.1647    4.9313    1.6262 C.3     1  LIG1        0.0136
     19 C           2.9639    4.3842    0.2099 C.3     1  LIG1        0.0488
     20 C           5.2882    4.7614   -2.3232 C.3     1  LIG1        0.0246
     21 N           1.3224    3.4728    1.6586 N.2     1  LIG1       -0.3133
     22 N           2.0168    4.4123    2.3516 N.pl3   1  LIG1       -0.3243
     23 O           4.8144    5.7874   -1.4533 O.3     1  LIG1       -0.4146
     24 F           1.7262    4.5735    7.8446 F       1  LIG1       -0.2607
     25 F          -0.4256    4.6160    3.6313 F       1  LIG1       -0.2417
     26 S           0.0829    1.4414   -0.1478 S.2     1  LIG1       -0.1095
     27 H          -0.2562    7.0533   -1.8105 H       1  LIG1        0.1113
     28 H           1.4229    8.2192   -3.2165 H       1  LIG1        0.1248
     29 H           1.2717    1.0292   -3.5334 H       1  LIG1        0.1143
     30 H           0.4560    5.2872   -0.2348 H       1  LIG1        0.1272
     31 H           4.0806    4.3102    4.0034 H       1  LIG1        0.1550
     32 H           3.8187    7.6184   -3.0437 H       1  LIG1        0.1128
     33 H           3.9444    4.3830    6.4702 H       1  LIG1        0.1432
     34 H           2.6199    2.9176   -2.2558 H       1  LIG1        0.1276
     35 H          -0.3358    4.6765    6.2369 H       1  LIG1        0.1492
     36 H          -0.5713   -0.0340   -1.9828 H       1  LIG1        0.1653
     37 H           4.0910    4.5238    2.0504 H       1  LIG1        0.1144
     38 H           3.2129    6.0251    1.6754 H       1  LIG1        0.1147
     39 H           3.8529    3.8728   -0.1669 H       1  LIG1        0.1278
     40 H           6.3563    4.6043   -2.1547 H       1  LIG1        0.0900
     41 H           5.1111    5.0523   -3.3617 H       1  LIG1        0.0890
     42 H           4.7480    3.8362   -2.1088 H       1  LIG1        0.1222
@<TRIPOS>BOND
     1     1     2   ar
     2     1     4   ar
     3     2     6   ar
     4     3     8   ar
     5     3    10   ar
     6     4    11   ar
     7     5     7   ar
     8     5    12   ar
     9     6    13   ar
    10     7    14   ar
    11     8    16   ar
    12     9    14   ar
    13     9    15   ar
    14    10    26   ar
    15    11    13   ar
    16    11    19    1
    17    12    15   ar
    18    12    22    1
    19    13    23    1
    20    14    24    1
    21    15    25    1
    22    16    17    1
    23    16    26   ar
    24    17    19    1
    25    17    21    2
    26    18    19    1
    27    18    22    1
    28    20    23    1
    29    21    22    1
    30     1    27    1
    31     2    28    1
    32     3    29    1
    33     4    30    1
    34     5    31    1
    35     6    32    1
    36     7    33    1
    37     8    34    1
    38     9    35    1
    39    10    36    1
    40    18    37    1
    41    18    38    1
    42    19    39    1
    43    20    40    1
    44    20    41    1
    45    20    42    1
