@<TRIPOS>MOLECULE
AO-548/12136197
 38 40 0 0 0
SMALL
USER_CHARGES

@<TRIPOS>ATOM
      1 C           2.2342    7.9334   -1.7719 C.ar    1  LIG1       -0.1021
      2 C           3.3701    7.5834   -1.0420 C.ar    1  LIG1       -0.0963
      3 C           1.2864    6.9624   -2.0954 C.ar    1  LIG1       -0.0983
      4 C           1.0865    1.0939   -2.3588 C.ar    1  LIG1       -0.0876
      5 C           0.0298    0.7978   -1.4977 C.ar    1  LIG1       -0.0897
      6 C           3.5583    6.2624   -0.6356 C.ar    1  LIG1       -0.0723
      7 C           1.4747    5.6414   -1.6890 C.ar    1  LIG1       -0.0758
      8 C           1.9854    2.1105   -2.0360 C.ar    1  LIG1       -0.0627
      9 C          -0.1282    1.5186   -0.3141 C.ar    1  LIG1       -0.0652
     10 C           0.6901    4.5104    3.9674 C.ar    1  LIG1       -0.0610
     11 C           2.9041    3.5736    4.2083 C.ar    1  LIG1       -0.0537
     12 C           0.7885    5.0702    5.2412 C.ar    1  LIG1       -0.0439
     13 C           3.0024    4.1335    5.4821 C.ar    1  LIG1       -0.0397
     14 C           2.6106    5.2914   -0.9591 C.ar    1  LIG1        0.0128
     15 C           1.8273    2.8313   -0.8523 C.ar    1  LIG1        0.0420
     16 C           0.7705    2.5353    0.0086 C.ar    1  LIG1        0.0489
     17 C           1.7480    3.7621    3.4510 C.ar    1  LIG1       -0.0471
     18 C           1.9445    4.8818    5.9986 C.ar    1  LIG1        0.0614
     19 C           2.8069    3.9141   -0.5353 C.2     1  LIG1        0.1251
     20 C           0.5790    3.2700    1.2524 C.2     1  LIG1        0.1257
     21 N           1.6482    3.1928    2.1564 N.am    1  LIG1       -0.3043
     22 O           3.8149    3.5975    0.1137 O.2     1  LIG1       -0.4373
     23 O          -0.4704    3.8813    1.4894 O.2     1  LIG1       -0.4565
     24 F           2.0395    5.4202    7.2215 F       1  LIG1       -0.2728
     25 H           2.0877    8.9619   -2.0884 H       1  LIG1        0.1233
     26 H           4.1081    8.3396   -0.7904 H       1  LIG1        0.1193
     27 H           0.4019    7.2350   -2.6635 H       1  LIG1        0.1166
     28 H           1.2097    0.5325   -3.2803 H       1  LIG1        0.1368
     29 H          -0.6700    0.0062   -1.7491 H       1  LIG1        0.1309
     30 H           4.4471    6.0007   -0.0672 H       1  LIG1        0.1367
     31 H           0.7296    4.8931   -1.9468 H       1  LIG1        0.1266
     32 H           2.8049    2.3320   -2.7150 H       1  LIG1        0.1379
     33 H          -0.9557    1.2787    0.3488 H       1  LIG1        0.1342
     34 H          -0.2157    4.6637    3.3865 H       1  LIG1        0.1372
     35 H           3.7337    2.9903    3.8170 H       1  LIG1        0.1528
     36 H          -0.0351    5.6523    5.6439 H       1  LIG1        0.1360
     37 H           3.9028    3.9880    6.0715 H       1  LIG1        0.1366
     38 H           2.4558    2.6600    1.8432 H       1  LIG1        0.3252
@<TRIPOS>BOND
     1     1     2   ar
     2     1     3   ar
     3     2     6   ar
     4     3     7   ar
     5     4     5   ar
     6     4     8   ar
     7     5     9   ar
     8     6    14   ar
     9     7    14   ar
    10     8    15   ar
    11     9    16   ar
    12    10    12   ar
    13    10    17   ar
    14    11    13   ar
    15    11    17   ar
    16    12    18   ar
    17    13    18   ar
    18    14    19    1
    19    15    16   ar
    20    15    19    1
    21    16    20    1
    22    17    21    1
    23    18    24    1
    24    19    22    2
    25    20    21   am
    26    20    23    2
    27     1    25    1
    28     2    26    1
    29     3    27    1
    30     4    28    1
    31     5    29    1
    32     6    30    1
    33     7    31    1
    34     8    32    1
    35     9    33    1
    36    10    34    1
    37    11    35    1
    38    12    36    1
    39    13    37    1
    40    21    38    1
