@<TRIPOS>MOLECULE
AE-848/37390002
 40 43 0 0 0
SMALL
USER_CHARGES

@<TRIPOS>ATOM
      1 C           1.6761    4.4940    6.2705 C.ar    1  LIG1       -0.1018
      2 C           0.6567    4.8164    5.3858 C.ar    1  LIG1       -0.1018
      3 C           2.9175    4.0986    5.7791 C.ar    1  LIG1       -0.0911
      4 C           0.8767    4.7387    4.0088 C.ar    1  LIG1       -0.0898
      5 C           4.4174    3.6285    3.9268 C.ar    1  LIG1       -0.0748
      6 C           1.4917    0.5688   -1.5752 C.ar    1  LIG1       -0.0713
      7 C          -0.7139    1.5534   -1.5204 C.ar    1  LIG1       -0.0785
      8 C           2.0304    1.7466   -1.0574 C.ar    1  LIG1       -0.0620
      9 C          -0.1752    2.7312   -1.0025 C.ar    1  LIG1       -0.0702
     10 C           4.6817    3.5599    2.5627 C.ar    1  LIG1       -0.0465
     11 C           3.1558    4.0184    4.3969 C.ar    1  LIG1       -0.0748
     12 C           2.1229    4.3347    3.4762 C.ar    1  LIG1       -0.0737
     13 C           0.1195    0.4722   -1.8068 C.ar    1  LIG1       -0.0146
     14 C           2.3917    4.2335    2.0813 C.ar    1  LIG1       -0.0407
     15 C           1.1969    2.8278   -0.7710 C.ar    1  LIG1       -0.0559
     16 C           3.6840    3.8744    1.6444 C.ar    1  LIG1        0.0137
     17 C          -0.4421   -0.7558   -2.3466 C.2     1  LIG1        0.0613
     18 C           1.3308    4.5429    1.0436 C.3     1  LIG1        0.0031
     19 C           3.1095    4.3550   -0.5986 C.3     1  LIG1        0.0687
     20 C           0.4306   -1.5799   -3.2482 C.3     1  LIG1        0.0309
     21 N           1.7352    4.0048   -0.2535 N.pl3   1  LIG1       -0.3692
     22 O          -1.5821   -1.1690   -2.1241 O.2     1  LIG1       -0.4731
     23 O           4.0502    3.7792    0.3209 O.3     1  LIG1       -0.3781
     24 H           1.5057    4.5464    7.3416 H       1  LIG1        0.1156
     25 H          -0.3127    5.1284    5.7634 H       1  LIG1        0.1204
     26 H           3.7022    3.8484    6.4910 H       1  LIG1        0.1284
     27 H           0.0484    5.0015    3.3548 H       1  LIG1        0.1203
     28 H           5.2118    3.3665    4.6245 H       1  LIG1        0.1422
     29 H           2.1503   -0.2676   -1.7948 H       1  LIG1        0.1470
     30 H          -1.7845    1.4890   -1.6969 H       1  LIG1        0.1421
     31 H           3.1010    1.8111   -0.8809 H       1  LIG1        0.1302
     32 H          -0.8338    3.5678   -0.7829 H       1  LIG1        0.1221
     33 H           5.6723    3.2678    2.2232 H       1  LIG1        0.1363
     34 H           0.3941    4.0955    1.3424 H       1  LIG1        0.1005
     35 H           1.2412    5.6180    0.9607 H       1  LIG1        0.1262
     36 H           3.3585    3.9613   -1.5804 H       1  LIG1        0.1389
     37 H           3.2427    5.4346   -0.6125 H       1  LIG1        0.1920
     38 H           1.0347   -2.3334   -2.7185 H       1  LIG1        0.0658
     39 H           1.1190   -0.9735   -3.8573 H       1  LIG1        0.0802
     40 H          -0.1405   -2.1722   -3.9851 H       1  LIG1        0.0817
@<TRIPOS>BOND
     1     1     2   ar
     2     1     3   ar
     3     2     4   ar
     4     3    11   ar
     5     4    12   ar
     6     5    10   ar
     7     5    11   ar
     8     6     8   ar
     9     6    13   ar
    10     7     9   ar
    11     7    13   ar
    12     8    15   ar
    13     9    15   ar
    14    10    16   ar
    15    11    12   ar
    16    12    14   ar
    17    13    17    1
    18    14    16   ar
    19    14    18    1
    20    15    21    1
    21    16    23    1
    22    17    20    1
    23    17    22    2
    24    18    21    1
    25    19    21    1
    26    19    23    1
    27     1    24    1
    28     2    25    1
    29     3    26    1
    30     4    27    1
    31     5    28    1
    32     6    29    1
    33     7    30    1
    34     8    31    1
    35     9    32    1
    36    10    33    1
    37    18    34    1
    38    18    35    1
    39    19    36    1
    40    19    37    1
    41    20    38    1
    42    20    39    1
    43    20    40    1
