@<TRIPOS>MOLECULE
AG-401/40683266
 46 48 0 0 0
SMALL
USER_CHARGES

@<TRIPOS>ATOM
      1 C           1.7849    4.8569    6.6916 C.ar    1  LIG1       -0.1075
      2 C           0.6595    1.4295   -2.8967 C.ar    1  LIG1       -0.1015
      3 C           1.2616    5.7830    5.7893 C.ar    1  LIG1       -0.1031
      4 C           2.4173    3.7058    6.2216 C.ar    1  LIG1       -0.1042
      5 C          -0.1892    2.2734   -2.1805 C.ar    1  LIG1       -0.0998
      6 C           1.7316    0.8099   -2.2546 C.ar    1  LIG1       -0.0968
      7 C           1.3707    5.5581    4.4171 C.ar    1  LIG1       -0.0905
      8 C           2.5263    3.4809    4.8493 C.ar    1  LIG1       -0.0931
      9 C           0.0342    2.4978   -0.8220 C.ar    1  LIG1       -0.0844
     10 C           1.9551    1.0342   -0.8962 C.ar    1  LIG1       -0.0800
     11 C           2.0773    6.5385   -0.0665 C.ar    1  LIG1       -0.0672
     12 C           2.7131    5.1844   -1.9637 C.ar    1  LIG1       -0.0652
     13 C           1.5274    7.4875   -0.9281 C.ar    1  LIG1       -0.0410
     14 C           2.1632    6.1336   -2.8253 C.ar    1  LIG1       -0.0396
     15 C           2.0031    4.4071    3.9470 C.ar    1  LIG1       -0.0806
     16 C           2.6703    5.3869   -0.5843 C.ar    1  LIG1        0.0047
     17 C           1.1064    1.8782   -0.1799 C.ar    1  LIG1       -0.0108
     18 C           1.5703    7.2851   -2.3075 C.ar    1  LIG1        0.0683
     19 C           2.1190    4.1679    2.4907 C.2     1  LIG1       -0.0616
     20 C           3.2562    4.3756    0.3342 C.2     1  LIG1        0.1015
     21 C           1.3446    2.1177    1.2689 C.2     1  LIG1        0.0875
     22 C           3.1935    4.6227    1.8049 C.2     1  LIG1       -0.0155
     23 C           4.3369    5.4412    2.3338 C.3     1  LIG1       -0.0264
     24 C           0.9319    3.4588    1.8659 C.3     1  LIG1        0.0619
     25 O           3.7807    3.3547   -0.0984 O.2     1  LIG1       -0.4409
     26 O           1.8521    1.2219    1.9398 O.2     1  LIG1       -0.4494
     27 F           1.0421    8.1963   -3.1350 F       1  LIG1       -0.2607
     28 H           1.7011    5.0326    7.7600 H       1  LIG1        0.1153
     29 H           0.4855    1.2548   -3.9544 H       1  LIG1        0.1255
     30 H           0.7702    6.6800    6.1551 H       1  LIG1        0.1161
     31 H           2.8257    2.9852    6.9240 H       1  LIG1        0.1160
     32 H          -1.0237    2.7560   -2.6807 H       1  LIG1        0.1194
     33 H           2.3923    0.1525   -2.8122 H       1  LIG1        0.1204
     34 H           0.9578    6.2893    3.7260 H       1  LIG1        0.1294
     35 H           3.0220    2.5789    4.4984 H       1  LIG1        0.1218
     36 H          -0.6334    3.1573   -0.2735 H       1  LIG1        0.1293
     37 H           2.7937    0.5463   -0.4062 H       1  LIG1        0.1373
     38 H           2.0383    6.7062    1.0067 H       1  LIG1        0.1480
     39 H           3.1722    4.2903   -2.3782 H       1  LIG1        0.1518
     40 H           1.0657    8.3840   -0.5252 H       1  LIG1        0.1349
     41 H           2.1969    5.9763   -3.8996 H       1  LIG1        0.1353
     42 H           5.1394    4.7901    2.6977 H       1  LIG1        0.0622
     43 H           4.7836    6.0909    1.5761 H       1  LIG1        0.0629
     44 H           4.0029    6.0674    3.1671 H       1  LIG1        0.0549
     45 H           0.4899    4.0969    1.0940 H       1  LIG1        0.1071
     46 H           0.1410    3.2691    2.6010 H       1  LIG1        0.1079
@<TRIPOS>BOND
     1     1     3   ar
     2     1     4   ar
     3     2     5   ar
     4     2     6   ar
     5     3     7   ar
     6     4     8   ar
     7     5     9   ar
     8     6    10   ar
     9     7    15   ar
    10     8    15   ar
    11     9    17   ar
    12    10    17   ar
    13    11    13   ar
    14    11    16   ar
    15    12    14   ar
    16    12    16   ar
    17    13    18   ar
    18    14    18   ar
    19    15    19    1
    20    16    20    1
    21    17    21    1
    22    18    27    1
    23    19    22    2
    24    19    24    1
    25    20    22    1
    26    20    25    2
    27    21    24    1
    28    21    26    2
    29    22    23    1
    30     1    28    1
    31     2    29    1
    32     3    30    1
    33     4    31    1
    34     5    32    1
    35     6    33    1
    36     7    34    1
    37     8    35    1
    38     9    36    1
    39    10    37    1
    40    11    38    1
    41    12    39    1
    42    13    40    1
    43    14    41    1
    44    23    42    1
    45    23    43    1
    46    23    44    1
    47    24    45    1
    48    24    46    1
