@<TRIPOS>MOLECULE
AG-205/33143040
 45 48 0 0 0
SMALL
USER_CHARGES

@<TRIPOS>ATOM
      1 C           1.9827    7.3309   -2.8788 C.ar    1  LIG1       -0.1098
      2 C           3.2318    6.7699   -2.6130 C.ar    1  LIG1       -0.1017
      3 C           0.9034    7.0602   -2.0376 C.ar    1  LIG1       -0.0998
      4 C           2.8673    3.6010    4.7959 C.ar    1  LIG1       -0.0641
      5 C           0.9344    4.9865    4.3699 C.ar    1  LIG1       -0.0759
      6 C           2.2755    1.4028   -0.9089 C.ar    1  LIG1       -0.0846
      7 C           0.5708    3.0289   -0.3735 C.ar    1  LIG1       -0.0827
      8 C           3.4017    5.9382   -1.5062 C.ar    1  LIG1       -0.0620
      9 C           1.0733    6.2285   -0.9308 C.ar    1  LIG1       -0.0581
     10 C           2.5804    3.6204    6.1608 C.ar    1  LIG1       -0.0506
     11 C           0.6475    5.0058    5.7347 C.ar    1  LIG1       -0.0644
     12 C           1.3216    0.6150   -1.5532 C.ar    1  LIG1       -0.0800
     13 C          -0.3831    2.2411   -1.0178 C.ar    1  LIG1       -0.0780
     14 C           2.0444    4.2841    3.9004 C.ar    1  LIG1       -0.0344
     15 C           1.9000    2.6099   -0.3190 C.ar    1  LIG1       -0.0726
     16 C           2.3224    5.6675   -0.6650 C.ar    1  LIG1       -0.0278
     17 C           1.4705    4.3228    6.6302 C.ar    1  LIG1       -0.0124
     18 C          -0.0077    1.0341   -1.6077 C.ar    1  LIG1       -0.0407
     19 C           2.3434    4.2640    2.4774 C.2     1  LIG1        0.0060
     20 C           3.0327    3.0823    1.8524 C.3     1  LIG1        0.0300
     21 C           2.9218    3.4537    0.3711 C.3     1  LIG1        0.0237
     22 C           0.0402    5.0795    8.3730 C.3     1  LIG1        0.0242
     23 N           2.0758    5.2356    1.6628 N.2     1  LIG1       -0.3250
     24 N           2.4889    4.8509    0.4222 N.pl3   1  LIG1       -0.3238
     25 O           1.1903    4.3420    7.9619 O.3     1  LIG1       -0.4169
     26 BR         -1.2994   -0.0342   -2.4803 Br      1  LIG1       -0.1111
     27 H           1.8505    7.9783   -3.7409 H       1  LIG1        0.1049
     28 H           4.0719    6.9806   -3.2680 H       1  LIG1        0.1220
     29 H          -0.0692    7.4972   -2.2446 H       1  LIG1        0.1223
     30 H           3.7349    3.0501    4.4417 H       1  LIG1        0.1483
     31 H           0.2868    5.5218    3.6802 H       1  LIG1        0.1378
     32 H           3.3089    1.0685   -0.8715 H       1  LIG1        0.1309
     33 H           0.2689    3.9674    0.0842 H       1  LIG1        0.1289
     34 H           4.3791    5.5060   -1.3080 H       1  LIG1        0.1153
     35 H           0.2250    6.0249   -0.2820 H       1  LIG1        0.1254
     36 H           3.2253    3.0864    6.8533 H       1  LIG1        0.1318
     37 H          -0.2184    5.5549    6.0946 H       1  LIG1        0.1152
     38 H           1.6307   -0.3233   -2.0069 H       1  LIG1        0.1354
     39 H          -1.4145    2.5820   -1.0516 H       1  LIG1        0.1344
     40 H           4.0774    3.0793    2.1815 H       1  LIG1        0.0993
     41 H           2.5535    2.1386    2.1272 H       1  LIG1        0.1007
     42 H           3.8849    3.3451   -0.1386 H       1  LIG1        0.1378
     43 H          -0.0679    5.0123    9.4584 H       1  LIG1        0.0898
     44 H          -0.8482    4.6744    7.8819 H       1  LIG1        0.0899
     45 H           0.1676    6.1259    8.0859 H       1  LIG1        0.1222
@<TRIPOS>BOND
     1     1     2   ar
     2     1     3   ar
     3     2     8   ar
     4     3     9   ar
     5     4    10   ar
     6     4    14   ar
     7     5    11   ar
     8     5    14   ar
     9     6    12   ar
    10     6    15   ar
    11     7    13   ar
    12     7    15   ar
    13     8    16   ar
    14     9    16   ar
    15    10    17   ar
    16    11    17   ar
    17    12    18   ar
    18    13    18   ar
    19    14    19    1
    20    15    21    1
    21    16    24    1
    22    17    25    1
    23    18    26    1
    24    19    20    1
    25    19    23    2
    26    20    21    1
    27    21    24    1
    28    22    25    1
    29    23    24    1
    30     1    27    1
    31     2    28    1
    32     3    29    1
    33     4    30    1
    34     5    31    1
    35     6    32    1
    36     7    33    1
    37     8    34    1
    38     9    35    1
    39    10    36    1
    40    11    37    1
    41    12    38    1
    42    13    39    1
    43    20    40    1
    44    20    41    1
    45    21    42    1
    46    22    43    1
    47    22    44    1
    48    22    45    1
