@<TRIPOS>MOLECULE
AG-670/34887014
 49 50 0 0 0
SMALL
USER_CHARGES

@<TRIPOS>ATOM
      1 C           1.0234    1.8915   -1.1861 C.1     1  LIG1       -0.2038
      2 C           1.6344    2.7797   -0.6563 C.1     1  LIG1       -0.1485
      3 C           1.9449    7.5228   -2.3017 C.ar    1  LIG1       -0.1051
      4 C           0.8225    6.8969   -1.7597 C.ar    1  LIG1       -0.1033
      5 C           3.2121    6.9729   -2.1075 C.ar    1  LIG1       -0.1005
      6 C           0.9671    5.7210   -1.0235 C.ar    1  LIG1       -0.0888
      7 C           3.3567    5.7971   -1.3712 C.ar    1  LIG1       -0.0844
      8 C           2.2342    5.1710   -0.8292 C.ar    1  LIG1       -0.0513
      9 C           2.4884    4.1447    4.3350 C.3     1  LIG1       -0.0742
     10 C           1.7407    2.9779    3.6972 C.3     1  LIG1       -0.0721
     11 C           2.3061    5.4315    3.5363 C.3     1  LIG1       -0.0732
     12 C           2.1341    2.7891    2.2338 C.3     1  LIG1       -0.0578
     13 C           2.7003    5.2469    2.0726 C.3     1  LIG1       -0.0612
     14 C           1.9437    4.0794    1.4251 C.3     1  LIG1       -0.0211
     15 C           1.4958    1.0451   -4.4628 C.3     1  LIG1       -0.0919
     16 C          -0.3766    2.4955   -5.2315 C.3     1  LIG1       -0.0914
     17 C           0.2782    0.8148   -1.8529 C.3     1  LIG1       -0.0198
     18 C          -0.5283    1.3245   -3.0391 C.3     1  LIG1       -0.0839
     19 C           2.3937    3.8808   -0.0212 C.3     1  LIG1        0.0524
     20 N           0.3714    1.9564   -4.0375 N.4     1  LIG1        0.4110
     21 O           3.7747    3.4943    0.0193 O.3     1  LIG1       -0.4455
     22 H           1.8321    8.4377   -2.8761 H       1  LIG1        0.1200
     23 H          -0.1644    7.3243   -1.9118 H       1  LIG1        0.1182
     24 H           4.0861    7.4595   -2.5302 H       1  LIG1        0.1187
     25 H           0.0868    5.2402   -0.6047 H       1  LIG1        0.1210
     26 H           4.3478    5.3759   -1.2249 H       1  LIG1        0.1289
     27 H           2.1335    4.2943    5.3609 H       1  LIG1        0.0416
     28 H           3.5565    3.9025    4.3978 H       1  LIG1        0.0410
     29 H           1.9477    2.0585    4.2564 H       1  LIG1        0.0396
     30 H           0.6604    3.1563    3.7646 H       1  LIG1        0.0443
     31 H           1.2585    5.7516    3.5947 H       1  LIG1        0.0405
     32 H           2.9093    6.2304    3.9824 H       1  LIG1        0.0420
     33 H           3.1819    2.4663    2.1810 H       1  LIG1        0.0517
     34 H           1.5316    1.9826    1.7991 H       1  LIG1        0.0506
     35 H           2.4973    6.1746    1.5244 H       1  LIG1        0.0380
     36 H           3.7819    5.0712    2.0099 H       1  LIG1        0.0458
     37 H           0.8734    4.3251    1.4141 H       1  LIG1        0.0757
     38 H           1.0533    0.1709   -4.9439 H       1  LIG1        0.0798
     39 H           2.1290    1.5982   -5.1591 H       1  LIG1        0.0803
     40 H           2.0522    0.7606   -3.5676 H       1  LIG1        0.0785
     41 H          -0.8611    1.6539   -5.7298 H       1  LIG1        0.0796
     42 H          -1.1138    3.2137   -4.8675 H       1  LIG1        0.0814
     43 H           0.3484    2.9771   -5.8902 H       1  LIG1        0.0806
     44 H          -0.4094    0.3603   -1.1299 H       1  LIG1        0.1084
     45 H           0.9684    0.0252   -2.1728 H       1  LIG1        0.1083
     46 H          -1.2667    2.0801   -2.7530 H       1  LIG1        0.0978
     47 H          -1.0303    0.5003   -3.5545 H       1  LIG1        0.0966
     48 H           0.8185    2.7725   -3.5866 H       1  LIG1        0.1650
     49 H           4.2451    4.2288    0.4372 H       1  LIG1        0.3400
@<TRIPOS>BOND
     1     1     2    3
     2     1    17    1
     3     2    19    1
     4     3     4   ar
     5     3     5   ar
     6     4     6   ar
     7     5     7   ar
     8     6     8   ar
     9     7     8   ar
    10     8    19    1
    11     9    10    1
    12     9    11    1
    13    10    12    1
    14    11    13    1
    15    12    14    1
    16    13    14    1
    17    14    19    1
    18    15    20    1
    19    16    20    1
    20    17    18    1
    21    18    20    1
    22    19    21    1
    23     3    22    1
    24     4    23    1
    25     5    24    1
    26     6    25    1
    27     7    26    1
    28     9    27    1
    29     9    28    1
    30    10    29    1
    31    10    30    1
    32    11    31    1
    33    11    32    1
    34    12    33    1
    35    12    34    1
    36    13    35    1
    37    13    36    1
    38    14    37    1
    39    15    38    1
    40    15    39    1
    41    15    40    1
    42    16    41    1
    43    16    42    1
    44    16    43    1
    45    17    44    1
    46    17    45    1
    47    18    46    1
    48    18    47    1
    49    20    48    1
    50    21    49    1
