@<TRIPOS>MOLECULE
AK-968/12162161
 42 45 0 0 0
SMALL
USER_CHARGES

@<TRIPOS>ATOM
      1 C           1.2239    0.3974   -0.8657 C.ar    1  LIG1       -0.0998
      2 C           3.0718    7.4720   -1.3857 C.ar    1  LIG1       -0.0971
      3 C          -0.0578    0.7873   -1.2480 C.ar    1  LIG1       -0.0898
      4 C           1.7496    7.7069   -1.7559 C.ar    1  LIG1       -0.0909
      5 C           0.8356    4.7270    5.1273 C.ar    1  LIG1       -0.0948
      6 C           2.2057    1.3607   -0.6310 C.ar    1  LIG1       -0.0952
      7 C           3.4686    6.1951   -0.9866 C.ar    1  LIG1       -0.0874
      8 C           0.9097    4.6063    3.7396 C.ar    1  LIG1       -0.0658
      9 C          -0.3574    2.1400   -1.4005 C.ar    1  LIG1       -0.0492
     10 C           0.8244    6.6648   -1.7324 C.ar    1  LIG1       -0.0507
     11 C           1.9669    4.4933    5.9091 C.ar    1  LIG1       -0.0728
     12 C           3.2463    4.0182    3.9156 C.ar    1  LIG1       -0.0300
     13 C           1.9150    2.7253   -0.7779 C.ar    1  LIG1       -0.0351
     14 C           2.5456    5.1390   -0.9550 C.ar    1  LIG1       -0.0280
     15 C           2.1150    4.2519    3.1338 C.ar    1  LIG1       -0.0464
     16 C           0.6276    3.1049   -1.1717 C.ar    1  LIG1        0.0225
     17 C           1.2229    5.3841   -1.3387 C.ar    1  LIG1        0.0250
     18 C           3.1723    4.1389    5.3032 C.ar    1  LIG1       -0.0113
     19 C           3.3003    3.7875    0.9650 C.2     1  LIG1        0.1114
     20 C           2.9673    3.7666   -0.4986 C.3     1  LIG1        0.0938
     21 C           5.4756    3.5521    5.3815 C.3     1  LIG1        0.0237
     22 N           2.1898    4.1299    1.7260 N.am    1  LIG1       -0.3075
     23 O           4.4321    3.5203    1.3556 O.2     1  LIG1       -0.4636
     24 O           0.2488    4.4137   -1.3573 O.3     1  LIG1       -0.3561
     25 O           4.2762    3.9108    6.0660 O.3     1  LIG1       -0.4176
     26 H           1.4587   -0.6565   -0.7479 H       1  LIG1        0.1211
     27 H           3.7937    8.2832   -1.4051 H       1  LIG1        0.1191
     28 H          -0.8226    0.0378   -1.4288 H       1  LIG1        0.1355
     29 H           1.4402    8.7012   -2.0644 H       1  LIG1        0.1334
     30 H          -0.1028    5.0039    5.5986 H       1  LIG1        0.1302
     31 H           3.2001    1.0411   -0.3289 H       1  LIG1        0.1256
     32 H           4.5029    6.0285   -0.6960 H       1  LIG1        0.1308
     33 H           0.0215    4.7903    3.1404 H       1  LIG1        0.1325
     34 H          -1.3584    2.4360   -1.7031 H       1  LIG1        0.1371
     35 H          -0.2045    6.8553   -2.0265 H       1  LIG1        0.1343
     36 H           1.9025    4.5898    6.9893 H       1  LIG1        0.1084
     37 H           4.1887    3.7421    3.4477 H       1  LIG1        0.1322
     38 H           3.8739    3.4887   -1.0521 H       1  LIG1        0.1492
     39 H           6.2782    3.3988    6.1071 H       1  LIG1        0.0894
     40 H           5.7487    4.3467    4.6825 H       1  LIG1        0.0895
     41 H           5.3056    2.6254    4.8283 H       1  LIG1        0.1217
     42 H           1.3232    4.3162    1.2256 H       1  LIG1        0.3224
@<TRIPOS>BOND
     1     1     3   ar
     2     1     6   ar
     3     2     4   ar
     4     2     7   ar
     5     3     9   ar
     6     4    10   ar
     7     5     8   ar
     8     5    11   ar
     9     6    13   ar
    10     7    14   ar
    11     8    15   ar
    12     9    16   ar
    13    10    17   ar
    14    11    18   ar
    15    12    15   ar
    16    12    18   ar
    17    13    16   ar
    18    13    20    1
    19    14    17   ar
    20    14    20    1
    21    15    22    1
    22    16    24    1
    23    17    24    1
    24    18    25    1
    25    19    20    1
    26    19    22   am
    27    19    23    2
    28    21    25    1
    29     1    26    1
    30     2    27    1
    31     3    28    1
    32     4    29    1
    33     5    30    1
    34     6    31    1
    35     7    32    1
    36     8    33    1
    37     9    34    1
    38    10    35    1
    39    11    36    1
    40    12    37    1
    41    20    38    1
    42    21    39    1
    43    21    40    1
    44    21    41    1
    45    22    42    1
