@<TRIPOS>MOLECULE
AK-968/15361291
 39 41 0 0 0
SMALL
USER_CHARGES

@<TRIPOS>ATOM
      1 C           0.8956    0.4614   -1.8949 C.ar    1  LIG1       -0.1066
      2 C           2.7205    7.4432   -2.2685 C.ar    1  LIG1       -0.1088
      3 C           1.9671    1.3332   -2.0875 C.ar    1  LIG1       -0.1052
      4 C          -0.1662    0.8329   -1.0700 C.ar    1  LIG1       -0.1035
      5 C           1.3810    7.1081   -2.4664 C.ar    1  LIG1       -0.1064
      6 C           3.4793    6.7543   -1.3223 C.ar    1  LIG1       -0.1051
      7 C           1.9770    2.5765   -1.4552 C.ar    1  LIG1       -0.0951
      8 C          -0.1563    2.0762   -0.4378 C.ar    1  LIG1       -0.0925
      9 C           0.8003    6.0842   -1.7180 C.ar    1  LIG1       -0.0948
     10 C           2.8986    5.7304   -0.5739 C.ar    1  LIG1       -0.0930
     11 C           0.9154    2.9480   -0.6304 C.ar    1  LIG1       -0.0745
     12 C           1.5590    5.3953   -0.7717 C.ar    1  LIG1       -0.0735
     13 C           0.8870    3.8436    2.4943 C.2     1  LIG1        0.0673
     14 C           2.0992    4.5984    5.6660 C.3     1  LIG1       -0.0679
     15 C           2.2573    5.1788    4.2451 C.3     1  LIG1       -0.0482
     16 C           1.0346    3.6496    5.0771 C.3     1  LIG1       -0.0467
     17 C           1.7425    3.8234    3.7173 C.3     1  LIG1        0.0298
     18 C           0.9254    4.2772    0.0462 C.3     1  LIG1        0.0115
     19 N           1.5748    4.1952    1.3676 N.am    1  LIG1       -0.3386
     20 O          -0.3016    3.5584    2.5834 O.2     1  LIG1       -0.4921
     21 H           0.8873   -0.5062   -2.3883 H       1  LIG1        0.1161
     22 H           3.1729    8.2396   -2.8523 H       1  LIG1        0.1136
     23 H           2.7934    1.0446   -2.7306 H       1  LIG1        0.1170
     24 H          -1.0012    0.1548   -0.9206 H       1  LIG1        0.1183
     25 H           0.7903    7.6437   -3.2039 H       1  LIG1        0.1134
     26 H           4.5225    7.0142   -1.1687 H       1  LIG1        0.1156
     27 H           2.8163    3.2493   -1.6110 H       1  LIG1        0.1152
     28 H          -0.9878    2.3570    0.2033 H       1  LIG1        0.1214
     29 H          -0.2441    5.8301   -1.8788 H       1  LIG1        0.1148
     30 H           3.4974    5.1993    0.1612 H       1  LIG1        0.1197
     31 H           2.9935    4.0866    6.0398 H       1  LIG1        0.0520
     32 H           1.7443    5.2973    6.4275 H       1  LIG1        0.0443
     33 H           1.5884    6.0202    4.0302 H       1  LIG1        0.0578
     34 H           3.2768    5.4549    3.9627 H       1  LIG1        0.0507
     35 H           1.0240    2.6391    5.4946 H       1  LIG1        0.0502
     36 H           0.0153    4.0527    5.0996 H       1  LIG1        0.0663
     37 H           2.5537    3.0971    3.5748 H       1  LIG1        0.1046
     38 H          -0.1066    4.5941    0.2836 H       1  LIG1        0.1531
     39 H           2.5524    4.4042    1.4415 H       1  LIG1        0.2995
@<TRIPOS>BOND
     1     1     3   ar
     2     1     4   ar
     3     2     5   ar
     4     2     6   ar
     5     3     7   ar
     6     4     8   ar
     7     5     9   ar
     8     6    10   ar
     9     7    11   ar
    10     8    11   ar
    11     9    12   ar
    12    10    12   ar
    13    11    18    1
    14    12    18    1
    15    13    17    1
    16    13    19   am
    17    13    20    2
    18    14    15    1
    19    14    16    1
    20    15    17    1
    21    16    17    1
    22    18    19    1
    23     1    21    1
    24     2    22    1
    25     3    23    1
    26     4    24    1
    27     5    25    1
    28     6    26    1
    29     7    27    1
    30     8    28    1
    31     9    29    1
    32    10    30    1
    33    14    31    1
    34    14    32    1
    35    15    33    1
    36    15    34    1
    37    16    35    1
    38    16    36    1
    39    17    37    1
    40    18    38    1
    41    19    39    1
