@<TRIPOS>MOLECULE
AK-918/41424324
 38 40 0 0 0
SMALL
USER_CHARGES

@<TRIPOS>ATOM
      1 C           1.8163    7.6232   -1.9349 C.ar    1  LIG1       -0.1085
      2 C           0.7148    7.1360   -1.2315 C.ar    1  LIG1       -0.1059
      3 C           2.8060    6.7449   -2.3766 C.ar    1  LIG1       -0.1018
      4 C           0.2418    1.4128   -1.3798 C.ar    1  LIG1       -0.1017
      5 C           1.2149    0.7443   -0.6370 C.ar    1  LIG1       -0.1059
      6 C           0.6029    5.7706   -0.9696 C.ar    1  LIG1       -0.0929
      7 C           2.6940    5.3795   -2.1147 C.ar    1  LIG1       -0.0879
      8 C           0.3723    2.7788   -1.6312 C.ar    1  LIG1       -0.0804
      9 C           3.0161    3.6397    4.4182 C.ar    1  LIG1       -0.0697
     10 C           1.2895    5.2346    3.8594 C.ar    1  LIG1       -0.0645
     11 C           2.3184    1.4415   -0.1454 C.ar    1  LIG1       -0.0702
     12 C           2.4797    3.5078    5.6991 C.ar    1  LIG1       -0.0407
     13 C           0.7531    5.1027    5.1402 C.ar    1  LIG1       -0.0373
     14 C           1.5924    4.8922   -1.4112 C.ar    1  LIG1       -0.0709
     15 C           1.4759    3.4760   -1.1395 C.ar    1  LIG1       -0.0335
     16 C           2.4210    4.5032    3.4984 C.ar    1  LIG1        0.0023
     17 C           2.4490    2.8074   -0.3967 C.ar    1  LIG1        0.0063
     18 C           1.3483    4.2394    6.0601 C.ar    1  LIG1        0.0703
     19 C           2.9947    4.6438    2.1289 C.2     1  LIG1        0.1187
     20 C           3.7092    3.4571    1.5126 C.3     1  LIG1        0.1205
     21 O           2.8805    5.7107    1.5299 O.2     1  LIG1       -0.4351
     22 O           3.5371    3.4642    0.0975 O.3     1  LIG1       -0.3835
     23 F           0.8330    4.1127    7.2899 F       1  LIG1       -0.2590
     24 H           1.9025    8.6862   -2.1403 H       1  LIG1        0.1130
     25 H          -0.0566    7.8196   -0.8891 H       1  LIG1        0.1138
     26 H           3.6632    7.1234   -2.9257 H       1  LIG1        0.1153
     27 H          -0.6172    0.8697   -1.7627 H       1  LIG1        0.1133
     28 H           1.1131   -0.3191   -0.4414 H       1  LIG1        0.1242
     29 H          -0.2620    5.4063   -0.4202 H       1  LIG1        0.1193
     30 H           3.4729    4.7068   -2.4658 H       1  LIG1        0.1240
     31 H          -0.3952    3.2850   -2.2118 H       1  LIG1        0.1362
     32 H           3.8979    3.0649    4.1476 H       1  LIG1        0.1456
     33 H           0.8172    5.9099    3.1502 H       1  LIG1        0.1552
     34 H           3.0724    0.9139    0.4325 H       1  LIG1        0.1099
     35 H           2.9427    2.8356    6.4153 H       1  LIG1        0.1366
     36 H          -0.1277    5.6727    5.4216 H       1  LIG1        0.1379
     37 H           3.2776    2.5282    1.8950 H       1  LIG1        0.1397
     38 H           4.7799    3.5001    1.7302 H       1  LIG1        0.1474
@<TRIPOS>BOND
     1     1     2   ar
     2     1     3   ar
     3     2     6   ar
     4     3     7   ar
     5     4     5   ar
     6     4     8   ar
     7     5    11   ar
     8     6    14   ar
     9     7    14   ar
    10     8    15   ar
    11     9    12   ar
    12     9    16   ar
    13    10    13   ar
    14    10    16   ar
    15    11    17   ar
    16    12    18   ar
    17    13    18   ar
    18    14    15    1
    19    15    17   ar
    20    16    19    1
    21    17    22    1
    22    18    23    1
    23    19    20    1
    24    19    21    2
    25    20    22    1
    26     1    24    1
    27     2    25    1
    28     3    26    1
    29     4    27    1
    30     5    28    1
    31     6    29    1
    32     7    30    1
    33     8    31    1
    34     9    32    1
    35    10    33    1
    36    11    34    1
    37    12    35    1
    38    13    36    1
    39    20    37    1
    40    20    38    1
