@<TRIPOS>MOLECULE
AG-690/33355010
 52 55 0 0 0
SMALL
USER_CHARGES

@<TRIPOS>ATOM
      1 C           2.9754    6.3087   -2.8397 C.ar    1  LIG1       -0.0853
      2 C           2.8552    4.2179    4.9134 C.ar    1  LIG1       -0.0741
      3 C           2.2744    1.4063   -0.8422 C.ar    1  LIG1       -0.0831
      4 C           0.5428    3.0246   -0.3734 C.ar    1  LIG1       -0.0841
      5 C           2.0189    7.3239   -2.8444 C.ar    1  LIG1       -0.0773
      6 C           3.1101    5.4826   -1.7238 C.ar    1  LIG1       -0.0478
      7 C           2.5199    4.2426    6.2671 C.ar    1  LIG1       -0.0519
      8 C           1.3486    0.6113   -1.5177 C.ar    1  LIG1       -0.0460
      9 C          -0.3830    2.2296   -1.0489 C.ar    1  LIG1       -0.0474
     10 C           0.5187    4.4146    4.3310 C.ar    1  LIG1       -0.0303
     11 C           1.3319    6.6871   -0.6174 C.ar    1  LIG1       -0.0266
     12 C           1.8546    4.3038    3.9453 C.ar    1  LIG1       -0.0331
     13 C           1.8715    2.6130   -0.2699 C.ar    1  LIG1       -0.0752
     14 C           1.1972    7.5132   -1.7333 C.ar    1  LIG1        0.0335
     15 C           2.2884    5.6718   -0.6127 C.ar    1  LIG1       -0.0137
     16 C           1.1839    4.3532    6.6528 C.ar    1  LIG1        0.0363
     17 C           0.1833    4.4393    5.6848 C.ar    1  LIG1        0.0417
     18 C           0.0199    1.0229   -1.6210 C.ar    1  LIG1        0.0628
     19 C           2.2045    4.2802    2.5340 C.2     1  LIG1        0.0094
     20 C           2.9228    3.1003    1.9387 C.3     1  LIG1        0.0322
     21 C           2.8630    3.4655    0.4531 C.3     1  LIG1        0.0227
     22 C           0.8255    5.6535    8.6116 C.3     1  LIG1        0.0261
     23 C          -2.0851    4.6328    4.9973 C.3     1  LIG1        0.0252
     24 C           0.1752    8.5991   -1.7385 C.3     1  LIG1        0.3489
     25 N           1.9607    5.2471    1.7065 N.2     1  LIG1       -0.3232
     26 N           2.4204    4.8602    0.4831 N.pl3   1  LIG1       -0.3211
     27 O           0.8693    4.3764    7.9781 O.3     1  LIG1       -0.4064
     28 O          -1.1248    4.5501    6.0485 O.3     1  LIG1       -0.4077
     29 F          -0.8688    0.2608   -2.2721 F       1  LIG1       -0.2679
     30 F           0.1562    9.3278   -2.8939 F       1  LIG1       -0.1898
     31 F          -1.1042    8.1469   -1.5821 F       1  LIG1       -0.1899
     32 F           0.3677    9.5064   -0.7370 F       1  LIG1       -0.1898
     33 H           3.6153    6.1614   -3.7049 H       1  LIG1        0.1373
     34 H           3.8995    4.1314    4.6245 H       1  LIG1        0.1345
     35 H           3.3074    1.0769   -0.7661 H       1  LIG1        0.1319
     36 H           0.2198    3.9633    0.0690 H       1  LIG1        0.1358
     37 H           1.9209    7.9629   -3.7183 H       1  LIG1        0.1296
     38 H           3.8585    4.6943   -1.7308 H       1  LIG1        0.1324
     39 H           3.3038    4.1749    7.0164 H       1  LIG1        0.1288
     40 H           1.6623   -0.3277   -1.9637 H       1  LIG1        0.1316
     41 H          -1.4176    2.5494   -1.1293 H       1  LIG1        0.1329
     42 H          -0.2637    4.4843    3.5787 H       1  LIG1        0.1424
     43 H           0.6901    6.8359    0.2481 H       1  LIG1        0.1457
     44 H           3.9550    3.1047    2.3052 H       1  LIG1        0.1034
     45 H           2.4395    2.1547    2.1999 H       1  LIG1        0.1020
     46 H           3.8444    3.3607   -0.0213 H       1  LIG1        0.1398
     47 H           0.5634    5.5296    9.6652 H       1  LIG1        0.0898
     48 H           0.0850    6.2836    8.1125 H       1  LIG1        0.0898
     49 H           1.8097    6.1218    8.5359 H       1  LIG1        0.1228
     50 H          -3.0874    4.7176    5.4243 H       1  LIG1        0.1229
     51 H          -2.0187    3.7396    4.3709 H       1  LIG1        0.0894
     52 H          -1.8737    5.5170    4.3913 H       1  LIG1        0.0891
@<TRIPOS>BOND
     1     1     5   ar
     2     1     6   ar
     3     2     7   ar
     4     2    12   ar
     5     3     8   ar
     6     3    13   ar
     7     4     9   ar
     8     4    13   ar
     9     5    14   ar
    10     6    15   ar
    11     7    16   ar
    12     8    18   ar
    13     9    18   ar
    14    10    12   ar
    15    10    17   ar
    16    11    14   ar
    17    11    15   ar
    18    12    19    1
    19    13    21    1
    20    14    24    1
    21    15    26    1
    22    16    17   ar
    23    16    27    1
    24    17    28    1
    25    18    29    1
    26    19    20    1
    27    19    25    2
    28    20    21    1
    29    21    26    1
    30    22    27    1
    31    23    28    1
    32    24    30    1
    33    24    31    1
    34    24    32    1
    35    25    26    1
    36     1    33    1
    37     2    34    1
    38     3    35    1
    39     4    36    1
    40     5    37    1
    41     6    38    1
    42     7    39    1
    43     8    40    1
    44     9    41    1
    45    10    42    1
    46    11    43    1
    47    20    44    1
    48    20    45    1
    49    21    46    1
    50    22    47    1
    51    22    48    1
    52    22    49    1
    53    23    50    1
    54    23    51    1
    55    23    52    1
