@<TRIPOS>MOLECULE
AG-690/11629084
 44 45 0 0 0
SMALL
USER_CHARGES

@<TRIPOS>ATOM
      1 C           1.9723    7.5576   -2.3052 C.ar    1  LIG1       -0.1033
      2 C           0.1931    0.7320   -1.8070 C.ar    1  LIG1       -0.1032
      3 C           2.5266    6.4195   -2.8906 C.ar    1  LIG1       -0.1047
      4 C           1.5716    7.5302   -0.9693 C.ar    1  LIG1       -0.1008
      5 C          -0.4615    1.8851   -1.3742 C.ar    1  LIG1       -0.1059
      6 C           1.5740    0.6134   -1.6502 C.ar    1  LIG1       -0.0974
      7 C           2.6803    5.2537   -2.1402 C.ar    1  LIG1       -0.1000
      8 C           1.7252    6.3645   -0.2190 C.ar    1  LIG1       -0.0940
      9 C           0.2649    2.9197   -0.7846 C.ar    1  LIG1       -0.0979
     10 C           2.3004    1.6480   -1.0606 C.ar    1  LIG1       -0.0856
     11 C           2.2796    5.2262   -0.8044 C.ar    1  LIG1       -0.0741
     12 C           1.6459    2.8012   -0.6279 C.ar    1  LIG1       -0.0673
     13 C           2.8542    4.5036    4.3738 C.3     1  LIG1       -0.0924
     14 C           0.7642    3.1962    4.0229 C.3     1  LIG1       -0.0915
     15 C           4.6245    4.6009    0.6167 C.3     1  LIG1        0.0087
     16 C           2.0651    4.0636    1.5307 C.3     1  LIG1       -0.0303
     17 C           2.6578    2.9694    2.4219 C.3     1  LIG1       -0.0958
     18 C           2.4482    3.9427    0.0224 C.3     1  LIG1        0.0292
     19 N           2.2598    3.2286    3.8292 N.4     1  LIG1        0.4080
     20 O           3.8423    3.5743    0.0399 O.3     1  LIG1       -0.4453
     21 H           1.8540    8.4657   -2.8892 H       1  LIG1        0.1220
     22 H          -0.3728   -0.0741   -2.2648 H       1  LIG1        0.1218
     23 H           2.8397    6.4410   -3.9304 H       1  LIG1        0.1188
     24 H           1.1411    8.4166   -0.5129 H       1  LIG1        0.1217
     25 H          -1.5369    1.9772   -1.4951 H       1  LIG1        0.1186
     26 H           2.0838   -0.2848   -1.9860 H       1  LIG1        0.1235
     27 H           3.1129    4.3715   -2.6048 H       1  LIG1        0.1129
     28 H           1.4101    6.3523    0.8210 H       1  LIG1        0.1256
     29 H          -0.2535    3.8146   -0.4506 H       1  LIG1        0.1097
     30 H           3.3761    1.5468   -0.9428 H       1  LIG1        0.1319
     31 H           2.4687    5.3329    3.7780 H       1  LIG1        0.0779
     32 H           2.5492    4.5951    5.4179 H       1  LIG1        0.0800
     33 H           3.9400    4.4297    4.2870 H       1  LIG1        0.0768
     34 H           0.3318    3.9963    3.4193 H       1  LIG1        0.0790
     35 H           0.4057    2.2189    3.6943 H       1  LIG1        0.0799
     36 H           0.5615    3.3521    5.0843 H       1  LIG1        0.0811
     37 H           5.6754    4.3011    0.6198 H       1  LIG1        0.0706
     38 H           4.2851    4.7884    1.6385 H       1  LIG1        0.0846
     39 H           4.5094    5.5112    0.0236 H       1  LIG1        0.1134
     40 H           0.9703    3.9935    1.6160 H       1  LIG1        0.0737
     41 H           2.3312    5.0465    1.9368 H       1  LIG1        0.0760
     42 H           3.7501    2.9553    2.4070 H       1  LIG1        0.0931
     43 H           2.2734    1.9767    2.1726 H       1  LIG1        0.0916
     44 H           2.6412    2.4631    4.4103 H       1  LIG1        0.1601
@<TRIPOS>BOND
     1     1     3   ar
     2     1     4   ar
     3     2     5   ar
     4     2     6   ar
     5     3     7   ar
     6     4     8   ar
     7     5     9   ar
     8     6    10   ar
     9     7    11   ar
    10     8    11   ar
    11     9    12   ar
    12    10    12   ar
    13    11    18    1
    14    12    18    1
    15    13    19    1
    16    14    19    1
    17    15    20    1
    18    16    17    1
    19    16    18    1
    20    17    19    1
    21    18    20    1
    22     1    21    1
    23     2    22    1
    24     3    23    1
    25     4    24    1
    26     5    25    1
    27     6    26    1
    28     7    27    1
    29     8    28    1
    30     9    29    1
    31    10    30    1
    32    13    31    1
    33    13    32    1
    34    13    33    1
    35    14    34    1
    36    14    35    1
    37    14    36    1
    38    15    37    1
    39    15    38    1
    40    15    39    1
    41    16    40    1
    42    16    41    1
    43    17    42    1
    44    17    43    1
    45    19    44    1
