@<TRIPOS>MOLECULE
AK-968/12689994
 51 53 0 0 0
SMALL
USER_CHARGES

@<TRIPOS>ATOM
      1 C           0.3766    0.5965   -1.9154 C.ar    1  LIG1       -0.1084
      2 C           2.2056    7.5754   -2.3377 C.ar    1  LIG1       -0.1062
      3 C           1.7080    0.9492   -2.1351 C.ar    1  LIG1       -0.1025
      4 C          -0.4101    1.3503   -1.0444 C.ar    1  LIG1       -0.1069
      5 C           3.1757    6.5854   -2.4935 C.ar    1  LIG1       -0.1046
      6 C           1.1851    7.4106   -1.4011 C.ar    1  LIG1       -0.1044
      7 C           1.6235    4.6704    6.6224 C.ar    1  LIG1       -0.1018
      8 C           2.2530    2.0556   -1.4836 C.ar    1  LIG1       -0.0917
      9 C           0.1349    2.4568   -0.3929 C.ar    1  LIG1       -0.0974
     10 C           3.1254    5.4306   -1.7129 C.ar    1  LIG1       -0.0987
     11 C           1.1347    6.2557   -0.6205 C.ar    1  LIG1       -0.0980
     12 C           2.0900    3.4451    6.1466 C.ar    1  LIG1       -0.0942
     13 C           1.3892    5.7202    5.7343 C.ar    1  LIG1       -0.0929
     14 C           1.4665    2.8095   -0.6125 C.ar    1  LIG1       -0.0680
     15 C           2.1049    5.2657   -0.7763 C.ar    1  LIG1       -0.0741
     16 C           2.3224    3.2695    4.7825 C.ar    1  LIG1       -0.0783
     17 C           1.6216    5.5445    4.3702 C.ar    1  LIG1       -0.0764
     18 C           2.0882    4.3192    3.8942 C.ar    1  LIG1       -0.0475
     19 C           1.4073    4.2662    1.4678 C.2     1  LIG1        0.1086
     20 C           4.3095    1.7538    4.5819 C.3     1  LIG1       -0.0626
     21 C           2.1747    7.9251    3.8100 C.3     1  LIG1       -0.0622
     22 C           2.8223    1.9451    4.3029 C.3     1  LIG1       -0.0405
     23 C           1.3608    6.6881    3.4440 C.3     1  LIG1       -0.0397
     24 C           2.0486    3.9925    0.0846 C.3     1  LIG1        0.0876
     25 N           2.3243    4.1414    2.5102 N.am    1  LIG1       -0.3111
     26 O           0.2166    4.5492    1.5671 O.2     1  LIG1       -0.4692
     27 H          -0.0481   -0.2643   -2.4238 H       1  LIG1        0.1140
     28 H           2.2457    8.4752   -2.9447 H       1  LIG1        0.1163
     29 H           2.3204    0.3630   -2.8141 H       1  LIG1        0.1143
     30 H          -1.4471    1.0767   -0.8740 H       1  LIG1        0.1138
     31 H           3.9710    6.7141   -3.2220 H       1  LIG1        0.1169
     32 H           0.4302    8.1817   -1.2788 H       1  LIG1        0.1175
     33 H           1.4422    4.8073    7.6847 H       1  LIG1        0.1185
     34 H           3.2915    2.3229   -1.6607 H       1  LIG1        0.1228
     35 H          -0.4855    3.0382    0.2841 H       1  LIG1        0.1172
     36 H           3.8854    4.6644   -1.8413 H       1  LIG1        0.1170
     37 H           0.3359    6.1359    0.1065 H       1  LIG1        0.1205
     38 H           2.2699    2.6336    6.8468 H       1  LIG1        0.1192
     39 H           1.0251    6.6707    6.1154 H       1  LIG1        0.1194
     40 H           4.9024    2.5510    4.1208 H       1  LIG1        0.0344
     41 H           4.6572    0.7970    4.1799 H       1  LIG1        0.0346
     42 H           4.5127    1.7634    5.6581 H       1  LIG1        0.0353
     43 H           1.9703    8.2408    4.8387 H       1  LIG1        0.0366
     44 H           1.9296    8.7588    3.1445 H       1  LIG1        0.0327
     45 H           3.2490    7.7285    3.7262 H       1  LIG1        0.0355
     46 H           2.2567    1.1295    4.7788 H       1  LIG1        0.0625
     47 H           2.6396    1.8375    3.2227 H       1  LIG1        0.0610
     48 H           1.5893    6.3982    2.4070 H       1  LIG1        0.0617
     49 H           0.2903    6.9449    3.4478 H       1  LIG1        0.0597
     50 H           3.1104    3.7702    0.3257 H       1  LIG1        0.1423
     51 H           3.2822    3.9024    2.2629 H       1  LIG1        0.3171
@<TRIPOS>BOND
     1     1     3   ar
     2     1     4   ar
     3     2     5   ar
     4     2     6   ar
     5     3     8   ar
     6     4     9   ar
     7     5    10   ar
     8     6    11   ar
     9     7    12   ar
    10     7    13   ar
    11     8    14   ar
    12     9    14   ar
    13    10    15   ar
    14    11    15   ar
    15    12    16   ar
    16    13    17   ar
    17    14    24    1
    18    15    24    1
    19    16    18   ar
    20    16    22    1
    21    17    18   ar
    22    17    23    1
    23    18    25    1
    24    19    24    1
    25    19    25   am
    26    19    26    2
    27    20    22    1
    28    21    23    1
    29     1    27    1
    30     2    28    1
    31     3    29    1
    32     4    30    1
    33     5    31    1
    34     6    32    1
    35     7    33    1
    36     8    34    1
    37     9    35    1
    38    10    36    1
    39    11    37    1
    40    12    38    1
    41    13    39    1
    42    20    40    1
    43    20    41    1
    44    20    42    1
    45    21    43    1
    46    21    44    1
    47    21    45    1
    48    22    46    1
    49    22    47    1
    50    23    48    1
    51    23    49    1
    52    24    50    1
    53    25    51    1
