@<TRIPOS>MOLECULE
AG-927/37186001
 53 57 0 0 0
SMALL
USER_CHARGES

@<TRIPOS>ATOM
      1 C           2.0242    7.6764   -2.2744 C.ar    1  LIG1       -0.1069
      2 C           0.4736    0.3698   -2.2006 C.ar    1  LIG1       -0.1066
      3 C           0.9370    7.0898   -1.6269 C.ar    1  LIG1       -0.1032
      4 C           3.3071    7.1607   -2.0903 C.ar    1  LIG1       -0.1046
      5 C           1.8056    0.6609   -1.9069 C.ar    1  LIG1       -0.1006
      6 C          -0.5483    1.1293   -1.6308 C.ar    1  LIG1       -0.0996
      7 C           1.1327    5.9874   -0.7949 C.ar    1  LIG1       -0.0927
      8 C           3.5028    6.0583   -1.2584 C.ar    1  LIG1       -0.0959
      9 C           2.1160    1.7113   -1.0433 C.ar    1  LIG1       -0.0705
     10 C          -0.2381    2.1797   -0.7672 C.ar    1  LIG1       -0.0700
     11 C           2.4156    5.4716   -0.6107 C.ar    1  LIG1       -0.0788
     12 C           1.0941    2.4707   -0.4734 C.ar    1  LIG1       -0.0230
     13 C           4.0617    4.5371    3.8699 C.2     1  LIG1        0.0547
     14 C           2.9222    4.2800    4.5278 C.2     1  LIG1        0.0596
     15 C           5.2227    5.2791    4.3242 C.2     1  LIG1        0.1953
     16 C           2.5428    4.6709    5.8724 C.2     1  LIG1        0.1951
     17 C           3.1503    2.6576    2.9094 C.3     1  LIG1       -0.0315
     18 C           2.6262    4.2897    0.2814 C.3     1  LIG1        0.0343
     19 C           3.9428    3.9048    2.4984 C.3     1  LIG1        0.0029
     20 C           2.0454    3.4706    3.6027 C.3     1  LIG1        0.0238
     21 C           2.8922    4.7418    1.7106 C.3     1  LIG1        0.0113
     22 C           1.5830    4.4056    2.4585 C.3     1  LIG1        0.0535
     23 C           7.2973    5.0110    5.4340 C.3     1  LIG1        0.0360
     24 C           0.6591    5.2092    7.2026 C.3     1  LIG1        0.0360
     25 N           1.3994    3.5057    0.3773 N.4     1  LIG1       -0.2934
     26 O           5.3700    6.4899    4.1740 O.2     1  LIG1       -0.4154
     27 O           3.3389    4.8338    6.7943 O.2     1  LIG1       -0.4161
     28 O           0.6982    3.7222    1.5710 O.3     1  LIG1       -0.3764
     29 O           6.0937    4.4243    4.9283 O.3     1  LIG1       -0.3536
     30 O           1.1907    4.8216    5.9314 O.3     1  LIG1       -0.3536
     31 H           1.8715    8.5340   -2.9232 H       1  LIG1        0.1158
     32 H           0.2321   -0.4484   -2.8730 H       1  LIG1        0.1132
     33 H          -0.0622    7.4906   -1.7709 H       1  LIG1        0.1163
     34 H           4.1535    7.6166   -2.5952 H       1  LIG1        0.1167
     35 H           2.6010    0.0696   -2.3506 H       1  LIG1        0.1195
     36 H          -1.5857    0.9023   -1.8596 H       1  LIG1        0.1209
     37 H           0.2797    5.5368   -0.2942 H       1  LIG1        0.1275
     38 H           4.5058    5.6633   -1.1208 H       1  LIG1        0.1194
     39 H           3.1572    1.9300   -0.8208 H       1  LIG1        0.1300
     40 H          -1.0428    2.7648   -0.3291 H       1  LIG1        0.1283
     41 H           2.7992    2.0557    2.0665 H       1  LIG1        0.0705
     42 H           3.6995    1.9983    3.5950 H       1  LIG1        0.0708
     43 H           3.4527    3.6925   -0.1189 H       1  LIG1        0.1232
     44 H           4.8869    3.7107    1.9872 H       1  LIG1        0.1140
     45 H           1.2727    2.8586    4.0704 H       1  LIG1        0.1227
     46 H           3.1437    5.8085    1.7788 H       1  LIG1        0.1017
     47 H           1.0760    5.3029    2.8304 H       1  LIG1        0.1379
     48 H           7.9157    4.2365    5.8942 H       1  LIG1        0.1262
     49 H           7.0478    5.7787    6.1708 H       1  LIG1        0.0970
     50 H           7.8452    5.4676    4.6064 H       1  LIG1        0.0971
     51 H          -0.4276    5.2993    7.1318 H       1  LIG1        0.0972
     52 H           1.0955    6.1645    7.5052 H       1  LIG1        0.1265
     53 H           0.9117    4.4451    7.9416 H       1  LIG1        0.0971
@<TRIPOS>BOND
     1     1     3   ar
     2     1     4   ar
     3     2     5   ar
     4     2     6   ar
     5     3     7   ar
     6     4     8   ar
     7     5     9   ar
     8     6    10   ar
     9     7    11   ar
    10     8    11   ar
    11     9    12   ar
    12    10    12   ar
    13    11    18    1
    14    12    25    1
    15    13    14    2
    16    13    15    1
    17    13    19    1
    18    14    16    1
    19    14    20    1
    20    15    26    2
    21    15    29    1
    22    16    27    2
    23    16    30    1
    24    17    19    1
    25    17    20    1
    26    18    21    1
    27    18    25    1
    28    19    21    1
    29    20    22    1
    30    21    22    1
    31    22    28    1
    32    23    29    1
    33    24    30    1
    34    25    28    1
    35     1    31    1
    36     2    32    1
    37     3    33    1
    38     4    34    1
    39     5    35    1
    40     6    36    1
    41     7    37    1
    42     8    38    1
    43     9    39    1
    44    10    40    1
    45    17    41    1
    46    17    42    1
    47    18    43    1
    48    19    44    1
    49    20    45    1
    50    21    46    1
    51    22    47    1
    52    23    48    1
    53    23    49    1
    54    23    50    1
    55    24    51    1
    56    24    52    1
    57    24    53    1
