@<TRIPOS>MOLECULE
AN-465/41988246
 48 50 0 0 0
SMALL
USER_CHARGES

@<TRIPOS>ATOM
      1 C           0.9474    0.5414   -1.5455 C.ar    1  LIG1       -0.0946
      2 C           2.7127    7.3820   -2.7007 C.ar    1  LIG1       -0.0945
      3 C          -0.0375    1.4466   -1.9404 C.ar    1  LIG1       -0.0994
      4 C           1.9334    0.9343   -0.6404 C.ar    1  LIG1       -0.0933
      5 C           1.5802    7.7340   -1.9664 C.ar    1  LIG1       -0.0993
      6 C           3.2749    6.1143   -2.5508 C.ar    1  LIG1       -0.0934
      7 C          -0.0365    2.7449   -1.4303 C.ar    1  LIG1       -0.1068
      8 C           1.9344    2.2325   -0.1303 C.ar    1  LIG1       -0.0966
      9 C           1.0099    6.8182   -1.0823 C.ar    1  LIG1       -0.1071
     10 C           2.7046    5.1985   -1.6667 C.ar    1  LIG1       -0.0971
     11 C           2.5778    4.0787    3.9974 C.ar    1  LIG1       -0.1062
     12 C           0.3992    4.4969    4.9543 C.ar    1  LIG1       -0.0963
     13 C           3.1465    4.1292    5.2700 C.ar    1  LIG1       -0.0634
     14 C           0.9679    4.5473    6.2270 C.ar    1  LIG1       -0.0503
     15 C           1.2041    4.2626    3.8395 C.ar    1  LIG1       -0.1318
     16 C           0.9495    3.1379   -0.5253 C.ar    1  LIG1       -0.1175
     17 C           1.5720    5.5504   -0.9325 C.ar    1  LIG1       -0.1182
     18 C           2.3415    4.3635    6.3848 C.ar    1  LIG1       -0.0031
     19 C           4.7285    4.3184    9.1660 C.3     1  LIG1       -0.0327
     20 C           0.5959    4.2080    2.4790 C.3     1  LIG1       -0.0871
     21 C           4.3066    4.2139    7.7158 C.3     1  LIG1        0.0178
     22 C           0.9514    4.5524    0.0307 C.3     1  LIG1       -0.0773
     23 N           1.5204    4.6534    1.3999 N.4     1  LIG1        0.4296
     24 O           2.8965    4.4115    7.6267 O.3     1  LIG1       -0.4099
     25 H           0.9456   -0.4699   -1.9418 H       1  LIG1        0.1320
     26 H           3.1559    8.0948   -3.3900 H       1  LIG1        0.1324
     27 H          -0.8060    1.1406   -2.6443 H       1  LIG1        0.1282
     28 H           2.6997    0.2295   -0.3319 H       1  LIG1        0.1314
     29 H           1.1418    8.7207   -2.0838 H       1  LIG1        0.1283
     30 H           4.1559    5.8395   -3.1232 H       1  LIG1        0.1313
     31 H          -0.8077    3.4436   -1.7439 H       1  LIG1        0.1087
     32 H           2.7066    2.5299    0.5743 H       1  LIG1        0.1311
     33 H           0.1276    7.1012   -0.5142 H       1  LIG1        0.1092
     34 H           3.1494    4.2131   -1.5564 H       1  LIG1        0.1312
     35 H           3.2126    3.8957    3.1345 H       1  LIG1        0.1334
     36 H          -0.6722    4.6414    4.8407 H       1  LIG1        0.1401
     37 H           4.2173    3.9849    5.3866 H       1  LIG1        0.1205
     38 H           0.3354    4.7299    7.0913 H       1  LIG1        0.1384
     39 H           4.4881    5.3048    9.5722 H       1  LIG1        0.0504
     40 H           4.2266    3.5553    9.7699 H       1  LIG1        0.0500
     41 H           5.8054    4.1473    9.2678 H       1  LIG1        0.0611
     42 H           0.2840    3.1881    2.2155 H       1  LIG1        0.1079
     43 H          -0.2929    4.8497    2.4072 H       1  LIG1        0.1071
     44 H           4.5499    3.2250    7.3157 H       1  LIG1        0.0990
     45 H           4.8084    4.9774    7.1140 H       1  LIG1        0.0983
     46 H          -0.0965    4.8349    0.1998 H       1  LIG1        0.1369
     47 H           1.8002    5.6268    1.5791 H       1  LIG1        0.1567
     48 H           2.3850    4.0985    1.4492 H       1  LIG1        0.1648
@<TRIPOS>BOND
     1     1     3   ar
     2     1     4   ar
     3     2     5   ar
     4     2     6   ar
     5     3     7   ar
     6     4     8   ar
     7     5     9   ar
     8     6    10   ar
     9     7    16   ar
    10     8    16   ar
    11     9    17   ar
    12    10    17   ar
    13    11    13   ar
    14    11    15   ar
    15    12    14   ar
    16    12    15   ar
    17    13    18   ar
    18    14    18   ar
    19    15    20    1
    20    16    22    1
    21    17    22    1
    22    18    24    1
    23    19    21    1
    24    20    23    1
    25    21    24    1
    26    22    23    1
    27     1    25    1
    28     2    26    1
    29     3    27    1
    30     4    28    1
    31     5    29    1
    32     6    30    1
    33     7    31    1
    34     8    32    1
    35     9    33    1
    36    10    34    1
    37    11    35    1
    38    12    36    1
    39    13    37    1
    40    14    38    1
    41    19    39    1
    42    19    40    1
    43    19    41    1
    44    20    42    1
    45    20    43    1
    46    21    44    1
    47    21    45    1
    48    22    46    1
    49    23    47    1
    50    23    48    1
