@<TRIPOS>MOLECULE
AE-848/09038020
 42 45 0 0 0
SMALL
USER_CHARGES

@<TRIPOS>ATOM
      1 C           0.9453    0.4229   -2.3103 C.ar    1  LIG1       -0.1046
      2 C           1.3510    5.0816    6.1614 C.ar    1  LIG1       -0.1056
      3 C          -0.2501    0.5999   -1.6137 C.ar    1  LIG1       -0.1030
      4 C           2.0285    1.2661   -2.0625 C.ar    1  LIG1       -0.1034
      5 C           0.8482    5.5659    4.9539 C.ar    1  LIG1       -0.1018
      6 C           2.3838    4.1440    6.1611 C.ar    1  LIG1       -0.1054
      7 C           2.5846    7.6140   -2.0435 C.ar    1  LIG1       -0.0904
      8 C           1.3861    6.9503   -2.3160 C.ar    1  LIG1       -0.0943
      9 C          -0.3623    1.6204   -0.6693 C.ar    1  LIG1       -0.0986
     10 C           1.9162    2.2865   -1.1182 C.ar    1  LIG1       -0.0988
     11 C           1.3781    5.1126    3.7458 C.ar    1  LIG1       -0.0918
     12 C           2.9137    3.6907    4.9530 C.ar    1  LIG1       -0.0967
     13 C           3.3993    7.2219   -0.9739 C.ar    1  LIG1       -0.0605
     14 C           0.9584    5.8733   -1.5324 C.ar    1  LIG1       -0.0700
     15 C           0.7208    2.4636   -0.4215 C.ar    1  LIG1       -0.0841
     16 C           2.4109    4.1750    3.7455 C.ar    1  LIG1       -0.0571
     17 C           2.9849    6.1420   -0.1761 C.ar    1  LIG1       -0.0179
     18 C           1.7857    5.5004   -0.4726 C.ar    1  LIG1       -0.0249
     19 C           2.7834    4.5957    1.2826 C.ar    1  LIG1        0.0404
     20 C           0.6003    3.5648    0.5970 C.3     1  LIG1        0.0157
     21 C           2.9925    3.6770    2.4205 C.3     1  LIG1        0.0806
     22 N           3.5905    5.5662    0.9171 N.ar    1  LIG1       -0.3696
     23 N           1.6821    4.5158    0.4763 N.ar    1  LIG1       -0.3334
     24 O           4.3815    3.3370    2.6304 O.3     1  LIG1       -0.4416
     25 H           1.0330   -0.3725   -3.0447 H       1  LIG1        0.1196
     26 H           0.9392    5.4357    7.1020 H       1  LIG1        0.1180
     27 H          -1.0932   -0.0573   -1.8058 H       1  LIG1        0.1194
     28 H           2.9597    1.1279   -2.6040 H       1  LIG1        0.1179
     29 H           0.0448    6.2968    4.9540 H       1  LIG1        0.1193
     30 H           2.7762    3.7675    7.1010 H       1  LIG1        0.1172
     31 H           2.8911    8.4466   -2.6714 H       1  LIG1        0.1213
     32 H           0.7732    7.2765   -3.1528 H       1  LIG1        0.1258
     33 H          -1.2977    1.7510   -0.1315 H       1  LIG1        0.1195
     34 H           2.7653    2.9387   -0.9318 H       1  LIG1        0.1191
     35 H           0.9800    5.4953    2.8098 H       1  LIG1        0.1247
     36 H           3.7181    2.9599    4.9624 H       1  LIG1        0.1163
     37 H           4.3289    7.7438   -0.7712 H       1  LIG1        0.1413
     38 H           0.0284    5.3581   -1.7452 H       1  LIG1        0.1230
     39 H          -0.3468    4.1063    0.4845 H       1  LIG1        0.1387
     40 H           0.6095    3.1631    1.6176 H       1  LIG1        0.1400
     41 H           2.5268    2.6895    2.2164 H       1  LIG1        0.1910
     42 H           4.8032    4.1526    2.9248 H       1  LIG1        0.3451
@<TRIPOS>BOND
     1     1     3   ar
     2     1     4   ar
     3     2     5   ar
     4     2     6   ar
     5     3     9   ar
     6     4    10   ar
     7     5    11   ar
     8     6    12   ar
     9     7     8   ar
    10     7    13   ar
    11     8    14   ar
    12     9    15   ar
    13    10    15   ar
    14    11    16   ar
    15    12    16   ar
    16    13    17   ar
    17    14    18   ar
    18    15    20    1
    19    16    21    1
    20    17    18   ar
    21    17    22   ar
    22    18    23   ar
    23    19    21    1
    24    19    22   ar
    25    19    23   ar
    26    20    23    1
    27    21    24    1
    28     1    25    1
    29     2    26    1
    30     3    27    1
    31     4    28    1
    32     5    29    1
    33     6    30    1
    34     7    31    1
    35     8    32    1
    36     9    33    1
    37    10    34    1
    38    11    35    1
    39    12    36    1
    40    13    37    1
    41    14    38    1
    42    20    39    1
    43    20    40    1
    44    21    41    1
    45    24    42    1
