@<TRIPOS>MOLECULE
AN-329/41717384
 36 36 0 0 0
SMALL
USER_CHARGES

@<TRIPOS>ATOM
      1 C           1.1786    4.7856    6.1434 C.ar    1  LIG1       -0.1007
      2 C           0.3973    5.0305    5.0143 C.ar    1  LIG1       -0.1002
      3 C           2.4489    4.2260    6.0047 C.ar    1  LIG1       -0.0997
      4 C           0.8859    4.7158    3.7463 C.ar    1  LIG1       -0.0981
      5 C           2.9376    3.9113    4.7367 C.ar    1  LIG1       -0.0974
      6 C           2.1562    4.1563    3.6075 C.ar    1  LIG1       -0.0971
      7 C           0.9851    1.0001   -1.2673 C.2     1  LIG1       -0.1301
      8 C           2.0557    7.0651   -2.2461 C.2     1  LIG1       -0.1300
      9 C           2.6726    3.8238    2.2693 C.2     1  LIG1       -0.1056
     10 C           0.9393    2.1695   -0.6188 C.2     1  LIG1       -0.1448
     11 C           2.3504    6.4797   -1.0797 C.2     1  LIG1       -0.1378
     12 C           2.2048    4.3458    1.1233 C.2     1  LIG1       -0.1298
     13 C           1.5390    3.4483   -1.1449 C.3     1  LIG1       -0.0604
     14 C           3.2938    5.3151   -0.9386 C.3     1  LIG1       -0.0595
     15 C           2.6957    4.0346   -0.2850 C.3     1  LIG1       -0.1285
     16 N           3.8243    3.0220   -0.3226 N.4     1  LIG1        0.4433
     17 H           0.7986    5.0317    7.1306 H       1  LIG1        0.1261
     18 H          -0.5914    5.4673    5.1220 H       1  LIG1        0.1224
     19 H           3.0578    4.0363    6.8837 H       1  LIG1        0.1227
     20 H           0.2651    4.9126    2.8755 H       1  LIG1        0.1218
     21 H           3.9296    3.4756    4.6448 H       1  LIG1        0.1230
     22 H           0.5400    0.1029   -0.8519 H       1  LIG1        0.0962
     23 H           1.4770    0.9254   -2.2310 H       1  LIG1        0.0982
     24 H           1.3697    7.9029   -2.3033 H       1  LIG1        0.0939
     25 H           2.5005    6.7070   -3.1681 H       1  LIG1        0.0880
     26 H           3.5002    3.1206    2.2550 H       1  LIG1        0.1131
     27 H           0.4591    2.2014    0.3554 H       1  LIG1        0.0766
     28 H           1.8658    6.8480   -0.1798 H       1  LIG1        0.0932
     29 H           1.3919    5.0691    1.1719 H       1  LIG1        0.1267
     30 H           0.7415    4.1954   -1.2515 H       1  LIG1        0.0933
     31 H           1.8991    3.2520   -2.1639 H       1  LIG1        0.0786
     32 H           3.6587    5.0743   -1.9467 H       1  LIG1        0.0782
     33 H           4.1807    5.6302   -0.3702 H       1  LIG1        0.0778
     34 H           4.6278    3.3995    0.1675 H       1  LIG1        0.1483
     35 H           4.0700    2.8327   -1.2884 H       1  LIG1        0.1486
     36 H           3.5195    2.1657    0.1275 H       1  LIG1        0.1496
@<TRIPOS>BOND
     1     1     2   ar
     2     1     3   ar
     3     2     4   ar
     4     3     5   ar
     5     4     6   ar
     6     5     6   ar
     7     6     9    1
     8     7    10    2
     9     8    11    2
    10     9    12    2
    11    10    13    1
    12    11    14    1
    13    12    15    1
    14    13    15    1
    15    14    15    1
    16    15    16    1
    17     1    17    1
    18     2    18    1
    19     3    19    1
    20     4    20    1
    21     5    21    1
    22     7    22    1
    23     7    23    1
    24     8    24    1
    25     8    25    1
    26     9    26    1
    27    10    27    1
    28    11    28    1
    29    12    29    1
    30    13    30    1
    31    13    31    1
    32    14    32    1
    33    14    33    1
    34    16    34    1
    35    16    35    1
    36    16    36    1
