@<TRIPOS>MOLECULE
AF-399/40826295
 46 49 0 0 0
SMALL
USER_CHARGES

@<TRIPOS>ATOM
      1 C           2.0948    7.7064   -2.3459 C.ar    1  LIG1       -0.1067
      2 C           2.8317    0.1523   -3.3255 C.ar    1  LIG1       -0.0951
      3 C           3.6989    1.1505   -2.8877 C.ar    1  LIG1       -0.0961
      4 C           0.9563    6.9206   -2.1670 C.ar    1  LIG1       -0.1023
      5 C           3.3062    7.3199   -1.7724 C.ar    1  LIG1       -0.1047
      6 C           1.5237    0.0980   -2.8408 C.ar    1  LIG1       -0.0851
      7 C           3.2620    2.0991   -1.9633 C.ar    1  LIG1       -0.0823
      8 C           3.2840    3.9629    4.6802 C.ar    1  LIG1       -0.0634
      9 C           1.0675    4.5250    3.9006 C.ar    1  LIG1       -0.0644
     10 C           1.0291    5.7484   -1.4146 C.ar    1  LIG1       -0.0897
     11 C           3.3790    6.1476   -1.0200 C.ar    1  LIG1       -0.0945
     12 C           2.9242    4.3385    5.9744 C.ar    1  LIG1       -0.0914
     13 C           0.7075    4.9007    5.1948 C.ar    1  LIG1       -0.0927
     14 C          -0.2383    1.0174   -1.4049 C.ar    1  LIG1       -0.0604
     15 C          -0.6133    1.9877   -0.4882 C.ar    1  LIG1       -0.0364
     16 C           1.0670    1.0449   -1.9096 C.ar    1  LIG1       -0.0691
     17 C           1.9480    2.0540   -1.4688 C.ar    1  LIG1       -0.0317
     18 C           2.3557    4.0562    3.6433 C.ar    1  LIG1        0.0392
     19 C           1.6359    4.8074    6.2318 C.ar    1  LIG1       -0.1116
     20 C           2.2405    5.3618   -0.8411 C.ar    1  LIG1       -0.0529
     21 C           1.4585    2.9775   -0.5430 C.ar    1  LIG1        0.0211
     22 C           2.7376    3.6562    2.2654 C.2     1  LIG1        0.1878
     23 C           1.2511    5.2079    7.6160 C.3     1  LIG1       -0.0388
     24 C           2.3207    4.0824   -0.0194 C.3     1  LIG1        0.1164
     25 N           0.2019    2.9678   -0.0439 N.ar    1  LIG1       -0.3774
     26 O           3.5666    2.7925    2.0241 O.2     1  LIG1       -0.4478
     27 O           2.0388    4.3805    1.3587 O.3     1  LIG1       -0.3049
     28 H           2.0382    8.6184   -2.9329 H       1  LIG1        0.1170
     29 H           3.1734   -0.5856   -4.0457 H       1  LIG1        0.1270
     30 H           4.7158    1.1907   -3.2672 H       1  LIG1        0.1247
     31 H           0.0132    7.2209   -2.6142 H       1  LIG1        0.1165
     32 H           4.1930    7.9308   -1.9125 H       1  LIG1        0.1166
     33 H           0.8641   -0.6910   -3.1955 H       1  LIG1        0.1310
     34 H           3.9641    2.8644   -1.6419 H       1  LIG1        0.1295
     35 H           4.2904    3.5988    4.4903 H       1  LIG1        0.1452
     36 H           0.3359    4.6020    3.1004 H       1  LIG1        0.1454
     37 H           0.1369    5.1425   -1.2803 H       1  LIG1        0.1305
     38 H           4.3271    5.8544   -0.5769 H       1  LIG1        0.1197
     39 H           3.6537    4.2623    6.7763 H       1  LIG1        0.1241
     40 H          -0.2986    5.2644    5.3864 H       1  LIG1        0.1226
     41 H          -0.9518    0.2606   -1.7163 H       1  LIG1        0.1347
     42 H          -1.6164    1.9999   -0.0745 H       1  LIG1        0.1948
     43 H           1.4642    6.2714    7.7789 H       1  LIG1        0.0614
     44 H           0.1825    5.0351    7.7982 H       1  LIG1        0.0571
     45 H           1.7999    4.6240    8.3665 H       1  LIG1        0.0572
     46 H           3.3763    3.7580   -0.0068 H       1  LIG1        0.1801
@<TRIPOS>BOND
     1     1     4   ar
     2     1     5   ar
     3     2     3   ar
     4     2     6   ar
     5     3     7   ar
     6     4    10   ar
     7     5    11   ar
     8     6    16   ar
     9     7    17   ar
    10     8    12   ar
    11     8    18   ar
    12     9    13   ar
    13     9    18   ar
    14    10    20   ar
    15    11    20   ar
    16    12    19   ar
    17    13    19   ar
    18    14    15   ar
    19    14    16   ar
    20    15    25   ar
    21    16    17   ar
    22    17    21   ar
    23    18    22    1
    24    19    23    1
    25    20    24    1
    26    21    24    1
    27    21    25   ar
    28    22    26    2
    29    22    27    1
    30    24    27    1
    31     1    28    1
    32     2    29    1
    33     3    30    1
    34     4    31    1
    35     5    32    1
    36     6    33    1
    37     7    34    1
    38     8    35    1
    39     9    36    1
    40    10    37    1
    41    11    38    1
    42    12    39    1
    43    13    40    1
    44    14    41    1
    45    15    42    1
    46    23    43    1
    47    23    44    1
    48    23    45    1
    49    24    46    1
