@<TRIPOS>MOLECULE
AK-968/41925850
 39 41 0 0 0
SMALL
USER_CHARGES

@<TRIPOS>ATOM
      1 C           0.9464    0.4624   -1.7251 C.ar    1  LIG1       -0.1061
      2 C           2.7667    7.4399   -2.1912 C.ar    1  LIG1       -0.1081
      3 C           2.0246    1.3338   -1.8793 C.ar    1  LIG1       -0.1047
      4 C          -0.1635    0.8520   -0.9753 C.ar    1  LIG1       -0.1029
      5 C           1.4424    7.0926   -2.4581 C.ar    1  LIG1       -0.1059
      6 C           3.4706    6.7821   -1.1825 C.ar    1  LIG1       -0.1044
      7 C           1.9929    2.5947   -1.2836 C.ar    1  LIG1       -0.0949
      8 C          -0.1951    2.1128   -0.3797 C.ar    1  LIG1       -0.0919
      9 C           0.8219    6.0876   -1.7160 C.ar    1  LIG1       -0.0949
     10 C           2.8501    5.7771   -0.4405 C.ar    1  LIG1       -0.0926
     11 C           2.7165    4.7550    4.1698 C.ar    1  LIG1       -0.0555
     12 C           2.8259    4.5529    5.5664 C.ar    1  LIG1       -0.0829
     13 C           0.8831    2.9842   -0.5337 C.ar    1  LIG1       -0.0735
     14 C           1.5257    5.4298   -0.7072 C.ar    1  LIG1       -0.0729
     15 C           1.3936    4.5462    3.8561 C.ar    1  LIG1        0.1174
     16 C           1.5621    4.2352    6.0065 C.ar    1  LIG1       -0.0149
     17 C           0.6660    4.6101    2.5624 C.2     1  LIG1        0.1478
     18 C           1.0097    3.9150    7.3304 C.3     1  LIG1       -0.0025
     19 C           0.8486    4.3322    0.1037 C.3     1  LIG1        0.0172
     20 N           1.4190    4.2912    1.4629 N.am    1  LIG1       -0.3150
     21 O          -0.5139    4.9512    2.5539 O.2     1  LIG1       -0.4548
     22 O           0.6832    4.2291    4.9702 O.2     1  LIG1       -0.3650
     23 H           0.9705   -0.5188   -2.1902 H       1  LIG1        0.1167
     24 H           3.2501    8.2215   -2.7700 H       1  LIG1        0.1144
     25 H           2.8884    1.0311   -2.4640 H       1  LIG1        0.1175
     26 H          -1.0036    0.1742   -0.8560 H       1  LIG1        0.1190
     27 H           0.8945    7.6038   -3.2442 H       1  LIG1        0.1140
     28 H           4.5020    7.0515   -0.9752 H       1  LIG1        0.1165
     29 H           2.8377    3.2670   -1.4088 H       1  LIG1        0.1152
     30 H          -1.0641    2.4076    0.2029 H       1  LIG1        0.1228
     31 H          -0.2103    5.8237   -1.9308 H       1  LIG1        0.1147
     32 H           3.4063    5.2702    0.3436 H       1  LIG1        0.1212
     33 H           3.5056    5.0196    3.4805 H       1  LIG1        0.1478
     34 H           3.7167    4.6292    6.1735 H       1  LIG1        0.1225
     35 H           0.6630    4.8239    7.8537 H       1  LIG1        0.0839
     36 H           0.1508    3.2211    7.2705 H       1  LIG1        0.0788
     37 H           1.7498    3.4191    7.9856 H       1  LIG1        0.0887
     38 H          -0.1967    4.6504    0.2707 H       1  LIG1        0.1577
     39 H           2.3968    4.0796    1.5151 H       1  LIG1        0.3097
@<TRIPOS>BOND
     1     1     3   ar
     2     1     4   ar
     3     2     5   ar
     4     2     6   ar
     5     3     7   ar
     6     4     8   ar
     7     5     9   ar
     8     6    10   ar
     9     7    13   ar
    10     8    13   ar
    11     9    14   ar
    12    10    14   ar
    13    11    12   ar
    14    11    15   ar
    15    12    16   ar
    16    13    19    1
    17    14    19    1
    18    15    17    1
    19    15    22   ar
    20    16    18    1
    21    16    22   ar
    22    17    20   am
    23    17    21    2
    24    19    20    1
    25     1    23    1
    26     2    24    1
    27     3    25    1
    28     4    26    1
    29     5    27    1
    30     6    28    1
    31     7    29    1
    32     8    30    1
    33     9    31    1
    34    10    32    1
    35    11    33    1
    36    12    34    1
    37    18    35    1
    38    18    36    1
    39    18    37    1
    40    19    38    1
    41    20    39    1
