@<TRIPOS>MOLECULE
AG-690/10687037
 47 50 0 0 0
SMALL
USER_CHARGES

@<TRIPOS>ATOM
      1 C           2.3017    7.2113   -2.9279 C.ar    1  LIG1       -0.1073
      2 C           3.0940    6.0832   -2.7155 C.ar    1  LIG1       -0.1017
      3 C           1.3487    7.5829   -1.9796 C.ar    1  LIG1       -0.1006
      4 C           2.9333    5.3266   -1.5547 C.ar    1  LIG1       -0.0796
      5 C           1.1881    6.8264   -0.8188 C.ar    1  LIG1       -0.0773
      6 C           0.9752    5.3157    4.8101 C.ar    1  LIG1       -0.0615
      7 C           2.6904    3.6145    4.7801 C.ar    1  LIG1       -0.0717
      8 C           2.1448    2.3089   -1.3475 C.ar    1  LIG1       -0.0662
      9 C          -0.0714    2.0015   -0.4358 C.ar    1  LIG1       -0.0726
     10 C           1.0285    5.3447    6.2037 C.ar    1  LIG1       -0.0599
     11 C           2.7438    3.6436    6.1736 C.ar    1  LIG1       -0.0657
     12 C           1.8648    1.3735   -2.3434 C.ar    1  LIG1       -0.0727
     13 C          -0.3514    1.0660   -1.4319 C.ar    1  LIG1       -0.0773
     14 C           1.9803    5.6983   -0.6063 C.ar    1  LIG1       -0.0408
     15 C           1.1766    2.6229   -0.3935 C.ar    1  LIG1       -0.0464
     16 C           1.8062    4.4504    4.0983 C.ar    1  LIG1       -0.0159
     17 C           1.9127    4.5088    6.8855 C.ar    1  LIG1       -0.0699
     18 C           0.6168    0.7520   -2.3857 C.ar    1  LIG1       -0.0397
     19 C           1.8146    4.9196    0.5888 C.ar    1  LIG1       -0.0021
     20 C           1.4657    3.5904    0.6355 C.ar    1  LIG1       -0.0177
     21 C           1.7511    4.4202    2.6570 C.ar    1  LIG1        0.0116
     22 C           1.1075    5.4334    9.0434 C.3     1  LIG1       -0.0358
     23 C           2.8723    3.6634    9.0126 C.3     1  LIG1       -0.0356
     24 N           1.9911    5.4301    1.8505 N.ar    1  LIG1       -0.3627
     25 N           1.4294    3.2847    1.9667 N.ar    1  LIG1       -0.3275
     26 N           1.9667    4.5382    8.2944 N.pl3   1  LIG1       -0.4233
     27 BR          0.2359   -0.5130   -3.7372 Br      1  LIG1       -0.1110
     28 H           2.4273    7.8010   -3.8313 H       1  LIG1        0.1144
     29 H           3.8368    5.7943   -3.4532 H       1  LIG1        0.1156
     30 H           0.7328    8.4622   -2.1447 H       1  LIG1        0.1161
     31 H           3.5586    4.4498   -1.4036 H       1  LIG1        0.1220
     32 H           0.4408    7.1295   -0.0891 H       1  LIG1        0.1285
     33 H           0.2805    5.9734    4.2931 H       1  LIG1        0.1508
     34 H           3.3447    2.9346    4.2395 H       1  LIG1        0.1262
     35 H           3.1226    2.7845   -1.3280 H       1  LIG1        0.1409
     36 H          -0.8368    2.2359    0.3003 H       1  LIG1        0.1302
     37 H           0.3764    6.0226    6.7486 H       1  LIG1        0.1189
     38 H           3.4367    2.9879    6.6947 H       1  LIG1        0.1156
     39 H           2.6301    1.1400   -3.0795 H       1  LIG1        0.1389
     40 H          -1.3292    0.5917   -1.4514 H       1  LIG1        0.1361
     41 H           1.2878    5.3179   10.1153 H       1  LIG1        0.0976
     42 H           0.0573    5.2101    8.8370 H       1  LIG1        0.0837
     43 H           1.3067    6.4713    8.7628 H       1  LIG1        0.0839
     44 H           2.7760    3.8252   10.0894 H       1  LIG1        0.0799
     45 H           3.9057    3.8647    8.7175 H       1  LIG1        0.0941
     46 H           2.6421    2.6177    8.7919 H       1  LIG1        0.0923
     47 H           1.2051    2.3833    2.3684 H       1  LIG1        0.3450
@<TRIPOS>BOND
     1     1     2   ar
     2     1     3   ar
     3     2     4   ar
     4     3     5   ar
     5     4    14   ar
     6     5    14   ar
     7     6    10   ar
     8     6    16   ar
     9     7    11   ar
    10     7    16   ar
    11     8    12   ar
    12     8    15   ar
    13     9    13   ar
    14     9    15   ar
    15    10    17   ar
    16    11    17   ar
    17    12    18   ar
    18    13    18   ar
    19    14    19    1
    20    15    20    1
    21    16    21    1
    22    17    26    1
    23    18    27    1
    24    19    20   ar
    25    19    24   ar
    26    20    25   ar
    27    21    24   ar
    28    21    25   ar
    29    22    26    1
    30    23    26    1
    31     1    28    1
    32     2    29    1
    33     3    30    1
    34     4    31    1
    35     5    32    1
    36     6    33    1
    37     7    34    1
    38     8    35    1
    39     9    36    1
    40    10    37    1
    41    11    38    1
    42    12    39    1
    43    13    40    1
    44    22    41    1
    45    22    42    1
    46    22    43    1
    47    23    44    1
    48    23    45    1
    49    23    46    1
    50    25    47    1
