@<TRIPOS>MOLECULE
AG-690/11629372
 48 50 0 0 0
SMALL
USER_CHARGES

@<TRIPOS>ATOM
      1 C           1.5424    4.6979    6.5474 C.ar    1  LIG1       -0.1026
      2 C           1.3613    3.5173    5.8269 C.ar    1  LIG1       -0.0982
      3 C           2.0740    5.8240    5.9188 C.ar    1  LIG1       -0.0931
      4 C           1.1879    5.8752   -0.3541 C.ar    1  LIG1       -0.0761
      5 C           3.1825    5.3854   -1.6264 C.ar    1  LIG1       -0.0654
      6 C           0.2149    2.7571   -0.9911 C.ar    1  LIG1       -0.0756
      7 C           2.2502    1.4887   -1.2839 C.ar    1  LIG1       -0.0798
      8 C           1.7119    3.4627    4.4780 C.ar    1  LIG1       -0.0719
      9 C           2.4246    5.7693    4.5698 C.ar    1  LIG1       -0.0662
     10 C           1.0784    7.1067   -0.9998 C.ar    1  LIG1       -0.0724
     11 C           3.0730    6.6170   -2.2722 C.ar    1  LIG1       -0.0655
     12 C          -0.4869    1.8003   -1.7241 C.ar    1  LIG1       -0.0683
     13 C           1.5483    0.5318   -2.0171 C.ar    1  LIG1       -0.0709
     14 C           2.2400    5.0145   -0.6674 C.ar    1  LIG1       -0.0223
     15 C           1.5834    2.6014   -0.7709 C.ar    1  LIG1       -0.0307
     16 C           2.2436    4.5887    3.8494 C.ar    1  LIG1       -0.0594
     17 C           2.0209    7.4776   -1.9589 C.ar    1  LIG1       -0.0157
     18 C           0.1797    0.6877   -2.2372 C.ar    1  LIG1       -0.0145
     19 C           1.9267    3.6811    1.5417 C.2     1  LIG1        0.1507
     20 C           3.2960    6.6394    1.4279 C.3     1  LIG1       -0.1367
     21 C           4.8950    5.2879    2.6937 C.3     1  LIG1       -0.1372
     22 C           2.3600    3.6588    0.0415 C.3     1  LIG1        0.1469
     23 N           2.6078    4.5318    2.4474 N.am    1  LIG1       -0.4163
     24 N           3.6562    5.3217    1.9271 N.3     1  LIG1        0.3998
     25 O           1.0185    2.9267    1.9167 O.2     1  LIG1       -0.4491
     26 O           3.7228    3.2205    0.1355 O.3     1  LIG1       -0.4227
     27 CL          1.8854    8.9967   -2.7554 Cl      1  LIG1       -0.1435
     28 CL         -0.6863   -0.4926   -3.1414 Cl      1  LIG1       -0.1422
     29 H           1.2687    4.7411    7.5977 H       1  LIG1        0.1197
     30 H           0.9466    2.6406    6.3158 H       1  LIG1        0.1212
     31 H           2.2140    6.7434    6.4799 H       1  LIG1        0.1232
     32 H           0.4497    5.5935    0.3921 H       1  LIG1        0.1295
     33 H           4.0051    4.7205   -1.8765 H       1  LIG1        0.1492
     34 H          -0.3116    3.6215   -0.5948 H       1  LIG1        0.1368
     35 H           3.3163    1.3598   -1.1167 H       1  LIG1        0.1287
     36 H           1.5662    2.5372    3.9267 H       1  LIG1        0.1268
     37 H           2.8381    6.6532    4.0905 H       1  LIG1        0.1304
     38 H           0.2531    7.7668   -0.7456 H       1  LIG1        0.1329
     39 H           3.8148    6.8926   -3.0173 H       1  LIG1        0.1347
     40 H          -1.5531    1.9349   -1.8874 H       1  LIG1        0.1350
     41 H           2.0811   -0.3299   -2.4107 H       1  LIG1        0.1345
     42 H           2.3602    6.5852    0.8656 H       1  LIG1        0.0224
     43 H           4.0806    7.0215    0.7692 H       1  LIG1        0.0588
     44 H           3.1667    7.3365    2.2601 H       1  LIG1        0.0477
     45 H           5.0987    4.2694    3.0338 H       1  LIG1        0.0444
     46 H           4.8171    5.9416    3.5667 H       1  LIG1        0.0585
     47 H           5.7311    5.6266    2.0759 H       1  LIG1        0.0234
     48 H           3.6980    2.3681    0.5915 H       1  LIG1        0.3411
@<TRIPOS>BOND
     1     1     2   ar
     2     1     3   ar
     3     2     8   ar
     4     3     9   ar
     5     4    10   ar
     6     4    14   ar
     7     5    11   ar
     8     5    14   ar
     9     6    12   ar
    10     6    15   ar
    11     7    13   ar
    12     7    15   ar
    13     8    16   ar
    14     9    16   ar
    15    10    17   ar
    16    11    17   ar
    17    12    18   ar
    18    13    18   ar
    19    14    22    1
    20    15    22    1
    21    16    23    1
    22    17    27    1
    23    18    28    1
    24    19    22    1
    25    19    23   am
    26    19    25    2
    27    20    24    1
    28    21    24    1
    29    22    26    1
    30    23    24    1
    31     1    29    1
    32     2    30    1
    33     3    31    1
    34     4    32    1
    35     5    33    1
    36     6    34    1
    37     7    35    1
    38     8    36    1
    39     9    37    1
    40    10    38    1
    41    11    39    1
    42    12    40    1
    43    13    41    1
    44    20    42    1
    45    20    43    1
    46    20    44    1
    47    21    45    1
    48    21    46    1
    49    21    47    1
    50    26    48    1
