@<TRIPOS>MOLECULE
AG-690/33352025
 41 44 0 0 0
SMALL
USER_CHARGES

@<TRIPOS>ATOM
      1 C           0.9441    0.6684   -2.5013 C.ar    1  LIG1       -0.1095
      2 C           0.9173    4.8476    6.1587 C.ar    1  LIG1       -0.0914
      3 C          -0.0103    1.6837   -2.5635 C.ar    1  LIG1       -0.0996
      4 C           1.8316    0.6104   -1.4266 C.ar    1  LIG1       -0.1013
      5 C           2.2633    4.7840    6.5188 C.ar    1  LIG1       -0.0927
      6 C           0.5450    4.7020    4.8223 C.ar    1  LIG1       -0.0680
      7 C           0.8087    6.7880   -1.2260 C.ar    1  LIG1       -0.0835
      8 C           2.5664    5.2273   -0.6679 C.ar    1  LIG1       -0.0852
      9 C          -0.0773    2.6410   -1.5513 C.ar    1  LIG1       -0.0578
     10 C           1.7646    1.5678   -0.4143 C.ar    1  LIG1       -0.0614
     11 C           3.2373    4.5750    5.5423 C.ar    1  LIG1       -0.0665
     12 C           1.6914    7.4880   -2.0486 C.ar    1  LIG1       -0.0702
     13 C           3.4491    5.9272   -1.4906 C.ar    1  LIG1       -0.0721
     14 C           1.5190    4.4930    3.8459 C.ar    1  LIG1       -0.0091
     15 C           1.2462    5.6578   -0.5355 C.ar    1  LIG1       -0.0739
     16 C           0.8101    2.5831   -0.4766 C.ar    1  LIG1       -0.0260
     17 C           3.0115    7.0575   -2.1810 C.ar    1  LIG1       -0.0155
     18 C           2.8651    4.4295    4.2059 C.ar    1  LIG1        0.0163
     19 C           1.0831    4.3467    2.4624 C.2     1  LIG1        0.0176
     20 C           0.3310    5.4508    1.7753 C.3     1  LIG1        0.0304
     21 C           0.3007    4.9069    0.3445 C.3     1  LIG1        0.0239
     22 N           1.2775    3.2848    1.7494 N.2     1  LIG1       -0.3144
     23 N           0.7445    3.5230    0.5177 N.pl3   1  LIG1       -0.3186
     24 CL          4.1000    7.9209   -3.1959 Cl      1  LIG1       -0.1428
     25 CL          4.1020    4.1721    3.0284 Cl      1  LIG1       -0.1163
     26 H           0.9963   -0.0769   -3.2897 H       1  LIG1        0.1054
     27 H           0.1590    5.0105    6.9191 H       1  LIG1        0.1273
     28 H          -0.7010    1.7287   -3.4002 H       1  LIG1        0.1217
     29 H           2.5748   -0.1803   -1.3782 H       1  LIG1        0.1222
     30 H           2.5528    4.8972    7.5594 H       1  LIG1        0.1308
     31 H          -0.5075    4.7537    4.5551 H       1  LIG1        0.1390
     32 H          -0.2183    7.1299   -1.1280 H       1  LIG1        0.1295
     33 H           2.9151    4.3475   -0.1336 H       1  LIG1        0.1319
     34 H          -0.8246    3.4281   -1.6093 H       1  LIG1        0.1250
     35 H           2.4612    1.5124    0.4184 H       1  LIG1        0.1163
     36 H           4.2819    4.5279    5.8397 H       1  LIG1        0.1343
     37 H           1.3361    8.3667   -2.5807 H       1  LIG1        0.1327
     38 H           4.4748    5.5800   -1.5839 H       1  LIG1        0.1338
     39 H          -0.6772    5.4985    2.2010 H       1  LIG1        0.0994
     40 H           0.8290    6.4176    1.8896 H       1  LIG1        0.1006
     41 H          -0.7077    4.9602   -0.0793 H       1  LIG1        0.1380
@<TRIPOS>BOND
     1     1     3   ar
     2     1     4   ar
     3     2     5   ar
     4     2     6   ar
     5     3     9   ar
     6     4    10   ar
     7     5    11   ar
     8     6    14   ar
     9     7    12   ar
    10     7    15   ar
    11     8    13   ar
    12     8    15   ar
    13     9    16   ar
    14    10    16   ar
    15    11    18   ar
    16    12    17   ar
    17    13    17   ar
    18    14    18   ar
    19    14    19    1
    20    15    21    1
    21    16    23    1
    22    17    24    1
    23    18    25    1
    24    19    20    1
    25    19    22    2
    26    20    21    1
    27    21    23    1
    28    22    23    1
    29     1    26    1
    30     2    27    1
    31     3    28    1
    32     4    29    1
    33     5    30    1
    34     6    31    1
    35     7    32    1
    36     8    33    1
    37     9    34    1
    38    10    35    1
    39    11    36    1
    40    12    37    1
    41    13    38    1
    42    20    39    1
    43    20    40    1
    44    21    41    1
