@<TRIPOS>MOLECULE
AG-690/12248048
 40 44 0 0 0
SMALL
USER_CHARGES

@<TRIPOS>ATOM
      1 C           1.4534    5.4367    5.8748 C.ar    1  LIG1       -0.0897
      2 C           1.6404    4.1329    6.3630 C.ar    1  LIG1       -0.0882
      3 C           1.3538    7.4348   -1.7625 C.ar    1  LIG1       -0.0877
      4 C           2.1071    6.6911   -2.6571 C.ar    1  LIG1       -0.0915
      5 C          -0.3657    2.2820   -1.0587 C.ar    1  LIG1       -0.0896
      6 C           1.6430    5.7310    4.5183 C.ar    1  LIG1       -0.0720
      7 C           2.0200    3.1045    5.5031 C.ar    1  LIG1       -0.0674
      8 C           0.6490    2.8236   -0.2696 C.ar    1  LIG1       -0.0848
      9 C           1.4035    7.1336   -0.4018 C.ar    1  LIG1       -0.0605
     10 C          -0.0930    1.2067   -1.9043 C.ar    1  LIG1       -0.0493
     11 C           2.9087    5.6537   -2.1864 C.ar    1  LIG1       -0.0768
     12 C           2.2093    1.2148   -1.1720 C.ar    1  LIG1       -0.0335
     13 C           2.0199    4.7083    3.6593 C.ar    1  LIG1       -0.0205
     14 C           2.1981    3.4310    4.1717 C.ar    1  LIG1        0.0167
     15 C           1.9365    2.2900   -0.3263 C.ar    1  LIG1       -0.0667
     16 C           2.2027    6.0834    0.1042 C.ar    1  LIG1       -0.0493
     17 C           1.1946    0.6731   -1.9610 C.ar    1  LIG1        0.0666
     18 C           2.9583    5.3339   -0.8152 C.ar    1  LIG1       -0.0296
     19 C           2.2903    4.6993    2.2139 C.2     1  LIG1       -0.0249
     20 C           2.5872    2.5794    3.0634 C.2     1  LIG1        0.1076
     21 C           2.6283    3.4454    1.8520 C.2     1  LIG1        0.0341
     22 C           3.0406    2.8806    0.5335 C.3     1  LIG1        0.0405
     23 N           2.1203    5.8498    1.4925 N.pl3   1  LIG1       -0.3558
     24 O           2.8261    1.3912    3.1271 O.2     1  LIG1       -0.4366
     25 F           1.4567   -0.3591   -2.7733 F       1  LIG1       -0.2691
     26 S           4.1165    4.0464   -0.3711 S.3     1  LIG1       -0.1749
     27 H           1.1580    6.2279    6.5594 H       1  LIG1        0.1295
     28 H           1.4871    3.9273    7.4189 H       1  LIG1        0.1275
     29 H           0.7263    8.2465   -2.1184 H       1  LIG1        0.1321
     30 H           2.0788    6.9198   -3.7183 H       1  LIG1        0.1258
     31 H          -1.3685    2.6971   -1.0143 H       1  LIG1        0.1310
     32 H           1.4938    6.7470    4.1680 H       1  LIG1        0.1408
     33 H           2.1672    2.0956    5.8699 H       1  LIG1        0.1508
     34 H           0.4272    3.6615    0.3862 H       1  LIG1        0.1273
     35 H           0.7948    7.7282    0.2784 H       1  LIG1        0.1359
     36 H          -0.8828    0.7856   -2.5189 H       1  LIG1        0.1306
     37 H           3.5018    5.0967   -2.9098 H       1  LIG1        0.1426
     38 H           3.2091    0.7919   -1.2225 H       1  LIG1        0.1389
     39 H           3.7334    2.0092    0.7425 H       1  LIG1        0.1245
     40 H           1.7476    6.6349    2.0171 H       1  LIG1        0.3156
@<TRIPOS>BOND
     1     1     2   ar
     2     1     6   ar
     3     2     7   ar
     4     3     4   ar
     5     3     9   ar
     6     4    11   ar
     7     5     8   ar
     8     5    10   ar
     9     6    13   ar
    10     7    14   ar
    11     8    15   ar
    12     9    16   ar
    13    10    17   ar
    14    11    18   ar
    15    12    15   ar
    16    12    17   ar
    17    13    14   ar
    18    13    19    1
    19    14    20    1
    20    15    22    1
    21    16    18   ar
    22    16    23    1
    23    17    25    1
    24    18    26    1
    25    19    21    2
    26    19    23    1
    27    20    21    1
    28    20    24    2
    29    21    22    1
    30    22    26    1
    31     1    27    1
    32     2    28    1
    33     3    29    1
    34     4    30    1
    35     5    31    1
    36     6    32    1
    37     7    33    1
    38     8    34    1
    39     9    35    1
    40    10    36    1
    41    11    37    1
    42    12    38    1
    43    22    39    1
    44    23    40    1
