@<TRIPOS>MOLECULE
AG-690/13114103
 42 46 0 0 0
SMALL
USER_CHARGES

@<TRIPOS>ATOM
      1 C           2.1069    4.5081    6.5568 C.ar    1  LIG1       -0.1028
      2 C           2.0835    7.8711   -1.1594 C.ar    1  LIG1       -0.0994
      3 C           0.2843    0.7760   -0.7634 C.ar    1  LIG1       -0.0992
      4 C           3.1271    4.1977    5.6471 C.ar    1  LIG1       -0.0961
      5 C           2.7281    7.5581   -2.3540 C.ar    1  LIG1       -0.0901
      6 C           0.9688    0.6183   -1.9665 C.ar    1  LIG1       -0.0903
      7 C           0.8234    4.8090    6.1019 C.ar    1  LIG1       -0.0978
      8 C           1.5289    6.8563   -0.3786 C.ar    1  LIG1       -0.0929
      9 C           0.2992    2.0079   -0.1081 C.ar    1  LIG1       -0.0915
     10 C           2.8794    4.1839    4.2707 C.ar    1  LIG1       -0.0656
     11 C           2.8145    6.2310   -2.7714 C.ar    1  LIG1       -0.0486
     12 C           1.6643    1.6930   -2.5177 C.ar    1  LIG1       -0.0485
     13 C           0.5863    4.7929    4.7358 C.ar    1  LIG1       -0.0765
     14 C           1.6127    5.5166   -0.7865 C.ar    1  LIG1       -0.0309
     15 C           0.9991    3.0958   -0.6513 C.ar    1  LIG1       -0.0291
     16 C           1.6001    4.4847    3.8265 C.ar    1  LIG1       -0.0443
     17 C           2.2536    5.2147   -1.9926 C.ar    1  LIG1        0.0257
     18 C           1.6742    2.9289   -1.8648 C.ar    1  LIG1        0.0269
     19 C           1.8253    4.2898    1.3520 C.2     1  LIG1        0.1270
     20 C          -0.7058    5.0824    4.0449 C.3     1  LIG1       -0.0143
     21 C          -0.3310    4.9050    2.5696 C.3     1  LIG1       -0.0018
     22 C           1.0376    4.4183    0.0695 C.3     1  LIG1        0.0978
     23 N           1.0996    4.5384    2.5090 N.am    1  LIG1       -0.3174
     24 O           3.0169    3.9844    1.2989 O.2     1  LIG1       -0.4574
     25 O           2.3742    3.9367   -2.4855 O.3     1  LIG1       -0.3529
     26 H           2.3185    4.5140    7.6224 H       1  LIG1        0.1156
     27 H           2.0144    8.9050   -0.8340 H       1  LIG1        0.1196
     28 H          -0.2590   -0.0606   -0.3339 H       1  LIG1        0.1193
     29 H           4.1225    3.9658    6.0167 H       1  LIG1        0.1248
     30 H           3.1614    8.3475   -2.9609 H       1  LIG1        0.1356
     31 H           0.9591   -0.3411   -2.4753 H       1  LIG1        0.1349
     32 H           0.0326    5.0499    6.8044 H       1  LIG1        0.1260
     33 H           1.0330    7.1158    0.5535 H       1  LIG1        0.1265
     34 H          -0.2358    2.1140    0.8324 H       1  LIG1        0.1267
     35 H           3.6916    3.9404    3.5971 H       1  LIG1        0.1345
     36 H           3.3153    5.9952   -3.7067 H       1  LIG1        0.1371
     37 H           2.1926    1.5630   -3.4586 H       1  LIG1        0.1366
     38 H          -1.4844    4.3734    4.3424 H       1  LIG1        0.0852
     39 H          -1.0430    6.1042    4.2452 H       1  LIG1        0.0853
     40 H          -0.9230    4.1117    2.1000 H       1  LIG1        0.1093
     41 H          -0.4887    5.8289    2.0022 H       1  LIG1        0.1107
     42 H           0.0066    4.6944    0.3270 H       1  LIG1        0.1424
@<TRIPOS>BOND
     1     1     4   ar
     2     1     7   ar
     3     2     5   ar
     4     2     8   ar
     5     3     6   ar
     6     3     9   ar
     7     4    10   ar
     8     5    11   ar
     9     6    12   ar
    10     7    13   ar
    11     8    14   ar
    12     9    15   ar
    13    10    16   ar
    14    11    17   ar
    15    12    18   ar
    16    13    16   ar
    17    13    20    1
    18    14    17   ar
    19    14    22    1
    20    15    18   ar
    21    15    22    1
    22    16    23    1
    23    17    25    1
    24    18    25    1
    25    19    22    1
    26    19    23   am
    27    19    24    2
    28    20    21    1
    29    21    23    1
    30     1    26    1
    31     2    27    1
    32     3    28    1
    33     4    29    1
    34     5    30    1
    35     6    31    1
    36     7    32    1
    37     8    33    1
    38     9    34    1
    39    10    35    1
    40    11    36    1
    41    12    37    1
    42    20    38    1
    43    20    39    1
    44    21    40    1
    45    21    41    1
    46    22    42    1
