@<TRIPOS>MOLECULE
AO-840/42717848
 42 44 0 0 0
SMALL
USER_CHARGES

@<TRIPOS>ATOM
      1 C           1.5024    6.5724   -2.8167 C.ar    1  LIG1       -0.1033
      2 C           0.9992    4.2760    6.4903 C.ar    1  LIG1       -0.1033
      3 C           0.1957    1.8640   -2.5980 C.ar    1  LIG1       -0.1067
      4 C           0.6706    6.2988   -1.7310 C.ar    1  LIG1       -0.1001
      5 C           2.8740    6.3374   -2.7212 C.ar    1  LIG1       -0.1009
      6 C           0.7278    5.3111    5.5955 C.ar    1  LIG1       -0.1014
      7 C           2.1417    3.4930    6.3251 C.ar    1  LIG1       -0.0983
      8 C          -0.3741    2.3424   -1.4181 C.ar    1  LIG1       -0.1051
      9 C           1.5545    1.5516   -2.6397 C.ar    1  LIG1       -0.1034
     10 C           1.2105    5.7900   -0.5497 C.ar    1  LIG1       -0.0906
     11 C           3.4139    5.8286   -1.5399 C.ar    1  LIG1       -0.0911
     12 C           1.5988    5.5631    4.5355 C.ar    1  LIG1       -0.0843
     13 C           3.0127    3.7449    5.2651 C.ar    1  LIG1       -0.0797
     14 C           0.4149    2.5086   -0.2799 C.ar    1  LIG1       -0.1009
     15 C           2.3435    1.7178   -1.5014 C.ar    1  LIG1       -0.0984
     16 C           2.5821    5.5549   -0.4541 C.ar    1  LIG1       -0.0731
     17 C           2.7412    4.7800    4.3703 C.ar    1  LIG1       -0.0081
     18 C           1.7737    2.1963   -0.3216 C.ar    1  LIG1       -0.0973
     19 C           3.0781    5.6167    1.9929 C.2     1  LIG1        0.0034
     20 C           3.1456    5.0246    0.7775 C.2     1  LIG1       -0.0309
     21 C           3.6672    5.0479    3.2432 C.2     1  LIG1        0.0995
     22 C           2.6251    2.3754    0.9051 C.3     1  LIG1        0.0130
     23 O           4.8650    4.8335    3.3843 O.2     1  LIG1       -0.4361
     24 S           4.0013    3.5066    0.6193 S.3     1  LIG1       -0.1663
     25 H           1.0819    6.9673   -3.7369 H       1  LIG1        0.1214
     26 H           0.3211    4.0799    7.3155 H       1  LIG1        0.1229
     27 H          -0.4191    1.7334   -3.4837 H       1  LIG1        0.1166
     28 H          -0.3976    6.4807   -1.8055 H       1  LIG1        0.1204
     29 H           3.5216    6.5493   -3.5669 H       1  LIG1        0.1203
     30 H          -0.1619    5.9206    5.7243 H       1  LIG1        0.1176
     31 H           2.3532    2.6872    7.0220 H       1  LIG1        0.1190
     32 H          -1.4324    2.5846   -1.3852 H       1  LIG1        0.1165
     33 H           1.9983    1.1782   -3.5577 H       1  LIG1        0.1173
     34 H           0.5494    5.5819    0.2883 H       1  LIG1        0.1270
     35 H           4.4850    5.6508   -1.4810 H       1  LIG1        0.1287
     36 H           1.3775    6.3722    3.8442 H       1  LIG1        0.1276
     37 H           3.8998    3.1282    5.1461 H       1  LIG1        0.1365
     38 H          -0.0376    2.8821    0.6349 H       1  LIG1        0.1193
     39 H           3.4014    1.4720   -1.5433 H       1  LIG1        0.1233
     40 H           2.5801    6.5779    2.1010 H       1  LIG1        0.1420
     41 H           2.0196    2.7572    1.7347 H       1  LIG1        0.0923
     42 H           3.0256    1.4087    1.2300 H       1  LIG1        0.0949
@<TRIPOS>BOND
     1     1     4   ar
     2     1     5   ar
     3     2     6   ar
     4     2     7   ar
     5     3     8   ar
     6     3     9   ar
     7     4    10   ar
     8     5    11   ar
     9     6    12   ar
    10     7    13   ar
    11     8    14   ar
    12     9    15   ar
    13    10    16   ar
    14    11    16   ar
    15    12    17   ar
    16    13    17   ar
    17    14    18   ar
    18    15    18   ar
    19    16    20    1
    20    17    21    1
    21    18    22    1
    22    19    20    2
    23    19    21    1
    24    20    24    1
    25    21    23    2
    26    22    24    1
    27     1    25    1
    28     2    26    1
    29     3    27    1
    30     4    28    1
    31     5    29    1
    32     6    30    1
    33     7    31    1
    34     8    32    1
    35     9    33    1
    36    10    34    1
    37    11    35    1
    38    12    36    1
    39    13    37    1
    40    14    38    1
    41    15    39    1
    42    19    40    1
    43    22    41    1
    44    22    42    1
