@<TRIPOS>MOLECULE
AG-690/10761003
 37 39 0 0 0
SMALL
USER_CHARGES

@<TRIPOS>ATOM
      1 C           2.0467    7.5180   -2.6227 C.ar    1  LIG1       -0.1020
      2 C           0.7039    4.7945    5.5512 C.ar    1  LIG1       -0.0904
      3 C           0.9085    6.9280   -2.0733 C.ar    1  LIG1       -0.1007
      4 C           3.3060    6.9747   -2.3679 C.ar    1  LIG1       -0.0993
      5 C           1.7274    4.1707    6.2646 C.ar    1  LIG1       -0.0896
      6 C           0.8808    5.1012    4.2020 C.ar    1  LIG1       -0.0572
      7 C           1.0293    5.7948   -1.2690 C.ar    1  LIG1       -0.0909
      8 C           3.4268    5.8415   -1.5636 C.ar    1  LIG1       -0.0871
      9 C           2.9277    3.8536    5.6288 C.ar    1  LIG1       -0.0632
     10 C           2.0812    4.7843    3.5663 C.ar    1  LIG1        0.0660
     11 C           2.2886    5.2516   -1.0141 C.ar    1  LIG1       -0.0501
     12 C           3.1047    4.1604    4.2796 C.ar    1  LIG1        0.0260
     13 C           0.8498    2.4232    0.4780 C.2     1  LIG1        0.1434
     14 C           2.2225    5.1281    2.1379 C.2     1  LIG1        0.1799
     15 C           1.6564    2.8263   -0.7196 C.3     1  LIG1        0.0805
     16 C           2.4211    4.0166   -0.1373 C.3     1  LIG1        0.0820
     17 C          -0.0313    1.2197    0.4381 C.3     1  LIG1        0.4012
     18 N           0.9486    3.1859    1.5194 N.2     1  LIG1       -0.2751
     19 N           1.8333    4.1782    1.2032 N.am    1  LIG1       -0.2177
     20 O           2.6801    6.2365    1.8652 O.2     1  LIG1       -0.4277
     21 O           3.7857    3.6387    0.0405 O.3     1  LIG1       -0.4378
     22 F           0.0253    0.6135   -0.7673 F       1  LIG1       -0.1609
     23 F           0.3357    0.3132    1.3695 F       1  LIG1       -0.1603
     24 F          -1.3209    1.5462    0.6716 F       1  LIG1       -0.1601
     25 CL          4.6058    3.7509    3.5304 Cl      1  LIG1       -0.1092
     26 H           1.9523    8.3995   -3.2501 H       1  LIG1        0.1222
     27 H          -0.2306    5.0416    6.0465 H       1  LIG1        0.1271
     28 H          -0.0722    7.3502   -2.2726 H       1  LIG1        0.1197
     29 H           4.1923    7.4330   -2.7964 H       1  LIG1        0.1218
     30 H           1.5894    3.9319    7.3150 H       1  LIG1        0.1387
     31 H           0.0752    5.5876    3.6576 H       1  LIG1        0.1669
     32 H           0.1369    5.3420   -0.8450 H       1  LIG1        0.1158
     33 H           4.4120    5.4252   -1.3703 H       1  LIG1        0.1304
     34 H           3.7153    3.3675    6.1991 H       1  LIG1        0.1358
     35 H           2.3031    2.0019   -1.0329 H       1  LIG1        0.1346
     36 H           0.9655    3.0919   -1.5264 H       1  LIG1        0.1321
     37 H           4.2332    4.3901    0.4632 H       1  LIG1        0.3556
@<TRIPOS>BOND
     1     1     3   ar
     2     1     4   ar
     3     2     5   ar
     4     2     6   ar
     5     3     7   ar
     6     4     8   ar
     7     5     9   ar
     8     6    10   ar
     9     7    11   ar
    10     8    11   ar
    11     9    12   ar
    12    10    12   ar
    13    10    14    1
    14    11    16    1
    15    12    25    1
    16    13    15    1
    17    13    17    1
    18    13    18    2
    19    14    19   am
    20    14    20    2
    21    15    16    1
    22    16    19    1
    23    16    21    1
    24    17    22    1
    25    17    23    1
    26    17    24    1
    27    18    19    1
    28     1    26    1
    29     2    27    1
    30     3    28    1
    31     4    29    1
    32     5    30    1
    33     6    31    1
    34     7    32    1
    35     8    33    1
    36     9    34    1
    37    15    35    1
    38    15    36    1
    39    21    37    1
