@<TRIPOS>MOLECULE
AE-641/14104041
 37 40 0 0 0
SMALL
USER_CHARGES

@<TRIPOS>ATOM
      1 C           0.1847    0.7316   -1.8325 C.ar    1  LIG1       -0.1039
      2 C          -0.4868    1.7678   -1.1839 C.ar    1  LIG1       -0.1028
      3 C           1.5791    0.7203   -1.8706 C.ar    1  LIG1       -0.1026
      4 C           2.2719    2.8465    3.7449 C.ar    1  LIG1       -0.0951
      5 C           1.5574    3.8779    4.3334 C.ar    1  LIG1       -0.0923
      6 C           2.7263    6.4304   -2.8161 C.ar    1  LIG1       -0.0638
      7 C           0.2358    2.7928   -0.5734 C.ar    1  LIG1       -0.0945
      8 C           2.3018    1.7454   -1.2602 C.ar    1  LIG1       -0.0942
      9 C           2.5401    2.8866    2.3772 C.ar    1  LIG1       -0.0877
     10 C           2.8451    5.2911   -2.0217 C.ar    1  LIG1       -0.0546
     11 C           2.0179    7.5241   -2.3434 C.ar    1  LIG1       -0.0354
     12 C           1.1106    4.9400    3.5507 C.ar    1  LIG1       -0.0799
     13 C           1.6302    2.7817   -0.6116 C.ar    1  LIG1       -0.0647
     14 C           2.1088    3.9611    1.5620 C.ar    1  LIG1       -0.0484
     15 C           2.2667    5.2170   -0.7317 C.ar    1  LIG1       -0.0136
     16 C           1.4288    7.4704   -1.0820 C.ar    1  LIG1        0.0884
     17 C           1.3776    4.9909    2.1695 C.ar    1  LIG1       -0.0150
     18 C           1.5446    6.3255   -0.2715 C.ar    1  LIG1        0.0416
     19 C           2.4301    3.9151    0.0632 C.3     1  LIG1        0.0440
     20 N           0.7094    8.6341   -0.6705 N.pl3   1  LIG1       -0.0430
     21 O          -0.5084    8.7136   -0.9439 O.2     1  LIG1       -0.1483
     22 O           1.3235    9.5307   -0.0518 O.2     1  LIG1       -0.2450
     23 O           3.8420    3.5998    0.0341 O.3     1  LIG1       -0.4525
     24 S           0.7143    6.3822    1.2933 S.3     1  LIG1       -0.0792
     25 H          -0.3782   -0.0672   -2.3066 H       1  LIG1        0.1199
     26 H          -1.5725    1.7762   -1.1532 H       1  LIG1        0.1206
     27 H           2.1023   -0.0870   -2.3745 H       1  LIG1        0.1200
     28 H           2.6189    2.0097    4.3436 H       1  LIG1        0.1270
     29 H           1.3414    3.8565    5.3972 H       1  LIG1        0.1319
     30 H           3.1840    6.4582   -3.8002 H       1  LIG1        0.1475
     31 H          -0.2959    3.5964   -0.0705 H       1  LIG1        0.1177
     32 H           3.3879    1.7283   -1.2951 H       1  LIG1        0.1172
     33 H           3.0939    2.0559    1.9436 H       1  LIG1        0.1227
     34 H           3.3987    4.4443   -2.4233 H       1  LIG1        0.1677
     35 H           1.9280    8.4091   -2.9684 H       1  LIG1        0.1749
     36 H           0.5436    5.7322    4.0369 H       1  LIG1        0.1359
     37 H           4.2864    4.3403    0.4673 H       1  LIG1        0.3393
@<TRIPOS>BOND
     1     1     2   ar
     2     1     3   ar
     3     2     7   ar
     4     3     8   ar
     5     4     5   ar
     6     4     9   ar
     7     5    12   ar
     8     6    10   ar
     9     6    11   ar
    10     7    13   ar
    11     8    13   ar
    12     9    14   ar
    13    10    15   ar
    14    11    16   ar
    15    12    17   ar
    16    13    19    1
    17    14    17   ar
    18    14    19    1
    19    15    18   ar
    20    15    19    1
    21    16    18   ar
    22    16    20    1
    23    17    24    1
    24    18    24    1
    25    19    23    1
    26    20    21    1
    27    20    22    2
    28     1    25    1
    29     2    26    1
    30     3    27    1
    31     4    28    1
    32     5    29    1
    33     6    30    1
    34     7    31    1
    35     8    32    1
    36     9    33    1
    37    10    34    1
    38    11    35    1
    39    12    36    1
    40    23    37    1
