@<TRIPOS>MOLECULE
AG-690/37071290
 37 39 0 0 0
SMALL
USER_CHARGES

@<TRIPOS>ATOM
      1 C           1.7548    4.1551    6.2611 C.ar    1  LIG1       -0.1006
      2 C           2.9450    3.8591    5.5967 C.ar    1  LIG1       -0.0943
      3 C           0.7084    4.7725    5.5757 C.ar    1  LIG1       -0.0978
      4 C           3.0889    4.1807    4.2471 C.ar    1  LIG1       -0.0670
      5 C           0.8524    5.0941    4.2261 C.ar    1  LIG1       -0.0674
      6 C           1.0288    5.7944   -1.2845 C.ar    1  LIG1       -0.0730
      7 C           3.4285    5.8428   -1.5607 C.ar    1  LIG1       -0.0769
      8 C           0.9129    6.9246   -2.0937 C.ar    1  LIG1       -0.0421
      9 C           3.3125    6.9731   -2.3698 C.ar    1  LIG1       -0.0434
     10 C           2.0427    4.7982    3.5618 C.ar    1  LIG1        0.0371
     11 C           2.2867    5.2535   -1.0180 C.ar    1  LIG1       -0.0427
     12 C           2.0547    7.5140   -2.6362 C.ar    1  LIG1        0.0666
     13 C           0.8395    2.4272    0.4701 C.2     1  LIG1        0.1442
     14 C           2.1951    5.1385    2.1337 C.2     1  LIG1        0.1693
     15 C           1.6552    2.8282   -0.7221 C.3     1  LIG1        0.0808
     16 C           2.4137    4.0211   -0.1368 C.3     1  LIG1        0.0829
     17 C          -0.0396    1.2225    0.4262 C.3     1  LIG1        0.4015
     18 N           0.9289    3.1929    1.5102 N.2     1  LIG1       -0.2739
     19 N           1.8147    4.1855    1.1985 N.am    1  LIG1       -0.2184
     20 O           2.6535    6.2467    1.8617 O.2     1  LIG1       -0.4400
     21 O           3.7773    3.6455    0.0530 O.3     1  LIG1       -0.4377
     22 F           1.9433    8.5978   -3.4155 F       1  LIG1       -0.2645
     23 F           0.0275    0.6131   -0.7771 F       1  LIG1       -0.1605
     24 F           0.3210    0.3189    1.3630 F       1  LIG1       -0.1602
     25 F          -1.3316    1.5479    0.6483 F       1  LIG1       -0.1599
     26 H           1.6427    3.9047    7.3118 H       1  LIG1        0.1273
     27 H           3.7597    3.3785    6.1306 H       1  LIG1        0.1214
     28 H          -0.2185    5.0026    6.0930 H       1  LIG1        0.1198
     29 H           4.0208    3.9456    3.7391 H       1  LIG1        0.1409
     30 H           0.0305    5.5753    3.7022 H       1  LIG1        0.1574
     31 H           0.1335    5.3427   -0.8656 H       1  LIG1        0.1461
     32 H           4.4127    5.4282   -1.3587 H       1  LIG1        0.1309
     33 H          -0.0663    7.3454   -2.3017 H       1  LIG1        0.1365
     34 H           4.2013    7.4324   -2.7921 H       1  LIG1        0.1345
     35 H           2.3056    2.0038   -1.0279 H       1  LIG1        0.1327
     36 H           0.9706    3.0907   -1.5352 H       1  LIG1        0.1356
     37 H           4.2203    4.3986    0.4774 H       1  LIG1        0.3551
@<TRIPOS>BOND
     1     1     2   ar
     2     1     3   ar
     3     2     4   ar
     4     3     5   ar
     5     4    10   ar
     6     5    10   ar
     7     6     8   ar
     8     6    11   ar
     9     7     9   ar
    10     7    11   ar
    11     8    12   ar
    12     9    12   ar
    13    10    14    1
    14    11    16    1
    15    12    22    1
    16    13    15    1
    17    13    17    1
    18    13    18    2
    19    14    19   am
    20    14    20    2
    21    15    16    1
    22    16    19    1
    23    16    21    1
    24    17    23    1
    25    17    24    1
    26    17    25    1
    27    18    19    1
    28     1    26    1
    29     2    27    1
    30     3    28    1
    31     4    29    1
    32     5    30    1
    33     6    31    1
    34     7    32    1
    35     8    33    1
    36     9    34    1
    37    15    35    1
    38    15    36    1
    39    21    37    1
