@<TRIPOS>MOLECULE
AE-848/36047060
 42 45 0 0 0
SMALL
USER_CHARGES

@<TRIPOS>ATOM
      1 C           1.3209    0.6773   -1.7089 C.ar    1  LIG1       -0.1070
      2 C           2.2964    1.5289   -1.1904 C.ar    1  LIG1       -0.1050
      3 C          -0.0303    0.9721   -1.5272 C.ar    1  LIG1       -0.1047
      4 C           3.4851    6.3675   -2.2304 C.ar    1  LIG1       -0.0966
      5 C           2.6181    7.1565   -2.9863 C.ar    1  LIG1       -0.1049
      6 C           1.6600    4.1753    6.1294 C.ar    1  LIG1       -0.1066
      7 C           1.9206    2.6753   -0.4904 C.ar    1  LIG1       -0.0969
      8 C          -0.4060    2.1185   -0.8272 C.ar    1  LIG1       -0.0967
      9 C           3.0176    5.7117   -1.0915 C.ar    1  LIG1       -0.0477
     10 C           1.2834    7.2898   -2.6032 C.ar    1  LIG1       -0.0620
     11 C           0.8793    4.2576    4.9404 C.ar    1  LIG1       -0.0871
     12 C           3.0072    4.3071    5.8740 C.ar    1  LIG1       -0.0466
     13 C           0.5694    2.9702   -0.3088 C.ar    1  LIG1       -0.0807
     14 C           1.6829    5.8450   -0.7085 C.ar    1  LIG1        0.0208
     15 C           0.8158    6.6340   -1.4643 C.ar    1  LIG1        0.0360
     16 C           1.6597    4.4496    3.8214 C.ar    1  LIG1        0.0056
     17 C           1.2564    4.5809    2.4673 C.2     1  LIG1        0.0212
     18 C           0.0196    3.9058    1.9369 C.3     1  LIG1        0.0318
     19 C           0.1670    4.1958    0.4398 C.3     1  LIG1        0.0223
     20 C          -0.8086    7.8567   -0.2306 C.3     1  LIG1        0.0260
     21 N           1.8948    5.3055    1.6009 N.2     1  LIG1       -0.3098
     22 N           1.2369    5.1954    0.4122 N.pl3   1  LIG1       -0.3122
     23 O          -0.4914    6.7774   -1.1070 O.3     1  LIG1       -0.4037
     24 S           3.3262    4.5295    4.2063 S.2     1  LIG1       -0.1172
     25 H           1.6136   -0.2147   -2.2551 H       1  LIG1        0.1165
     26 H           3.3486    1.3000   -1.3327 H       1  LIG1        0.1159
     27 H          -0.7900    0.3098   -1.9317 H       1  LIG1        0.1172
     28 H           4.5244    6.2644   -2.5282 H       1  LIG1        0.1151
     29 H           2.9820    7.6667   -3.8731 H       1  LIG1        0.1223
     30 H           1.2541    4.0255    7.1214 H       1  LIG1        0.1147
     31 H           2.6876    3.3331   -0.0899 H       1  LIG1        0.1183
     32 H          -1.4612    2.3402   -0.6905 H       1  LIG1        0.1202
     33 H           3.7024    5.0990   -0.5104 H       1  LIG1        0.1448
     34 H           0.6128    7.9055   -3.1967 H       1  LIG1        0.1147
     35 H          -0.2003    4.1796    4.9131 H       1  LIG1        0.1264
     36 H           3.8192    4.2826    6.5871 H       1  LIG1        0.1657
     37 H          -0.0073    2.8442    2.1987 H       1  LIG1        0.0989
     38 H          -0.8560    4.4115    2.3581 H       1  LIG1        0.0988
     39 H          -0.7658    4.5893    0.0203 H       1  LIG1        0.1352
     40 H          -1.8820    7.8573   -0.0258 H       1  LIG1        0.1204
     41 H          -0.5146    8.8019   -0.6939 H       1  LIG1        0.0886
     42 H          -0.2613    7.7265    0.7061 H       1  LIG1        0.0878
@<TRIPOS>BOND
     1     1     2   ar
     2     1     3   ar
     3     2     7   ar
     4     3     8   ar
     5     4     5   ar
     6     4     9   ar
     7     5    10   ar
     8     6    11   ar
     9     6    12   ar
    10     7    13   ar
    11     8    13   ar
    12     9    14   ar
    13    10    15   ar
    14    11    16   ar
    15    12    24   ar
    16    13    19    1
    17    14    15   ar
    18    14    22    1
    19    15    23    1
    20    16    17    1
    21    16    24   ar
    22    17    18    1
    23    17    21    2
    24    18    19    1
    25    19    22    1
    26    20    23    1
    27    21    22    1
    28     1    25    1
    29     2    26    1
    30     3    27    1
    31     4    28    1
    32     5    29    1
    33     6    30    1
    34     7    31    1
    35     8    32    1
    36     9    33    1
    37    10    34    1
    38    11    35    1
    39    12    36    1
    40    18    37    1
    41    18    38    1
    42    19    39    1
    43    20    40    1
    44    20    41    1
    45    20    42    1
