@<TRIPOS>MOLECULE
AK-968/12861094
 45 48 0 0 0
SMALL
USER_CHARGES

@<TRIPOS>ATOM
      1 C           3.0994    4.0943    4.8127 C.ar    1  LIG1       -0.0646
      2 C           0.9175    4.9854    4.2812 C.ar    1  LIG1       -0.0627
      3 C           3.5015    6.0892   -1.3254 C.ar    1  LIG1       -0.0963
      4 C           1.2635    5.6610   -0.5220 C.ar    1  LIG1       -0.0845
      5 C           3.0216    7.1462   -2.0988 C.ar    1  LIG1       -0.0709
      6 C           0.7837    6.7180   -1.2954 C.ar    1  LIG1       -0.0564
      7 C           2.8952    4.3972    6.1589 C.ar    1  LIG1       -0.0738
      8 C           0.7133    5.2883    5.6275 C.ar    1  LIG1       -0.0728
      9 C           0.3497    0.8428   -2.4189 C.ar    1  LIG1        0.0407
     10 C           2.1106    4.3885    3.8738 C.ar    1  LIG1       -0.0277
     11 C           2.6225    5.3466   -0.5370 C.ar    1  LIG1       -0.0804
     12 C           1.5130    2.4391   -0.4487 C.ar    1  LIG1        0.1149
     13 C           1.6627    7.4605   -2.0838 C.ar    1  LIG1       -0.0148
     14 C           1.7214    0.7646   -2.1779 C.ar    1  LIG1        0.1586
     15 C          -0.4402    1.7192   -1.6749 C.ar    1  LIG1        0.1574
     16 C           2.3030    1.5628   -1.1928 C.ar    1  LIG1        0.1968
     17 C           0.1414    2.5173   -0.6899 C.ar    1  LIG1        0.1941
     18 C           1.7021    4.9941    6.5663 C.ar    1  LIG1       -0.0388
     19 C           2.3235    4.0727    2.4704 C.2     1  LIG1        0.0146
     20 C           3.4717    4.6793    1.7118 C.3     1  LIG1        0.0309
     21 C           3.1364    4.2149    0.2919 C.3     1  LIG1        0.0166
     22 C           2.1487    9.2107   -3.6190 C.3     1  LIG1        0.0236
     23 N           1.5874    3.2541    1.7874 N.2     1  LIG1       -0.3218
     24 N           2.0843    3.2231    0.5186 N.pl3   1  LIG1       -0.3118
     25 O           1.1949    8.4928   -2.8376 O.3     1  LIG1       -0.4179
     26 F           2.4802   -0.0762   -2.8929 F       1  LIG1       -0.2391
     27 F          -1.7576    1.7940   -1.9059 F       1  LIG1       -0.2395
     28 F           3.6226    1.4805   -0.9709 F       1  LIG1       -0.2215
     29 F          -0.6276    3.3551    0.0200 F       1  LIG1       -0.2254
     30 BR          1.4254    5.4045    8.3902 Br      1  LIG1       -0.1096
     31 H           4.0328    3.6291    4.5062 H       1  LIG1        0.1407
     32 H           0.1403    5.2189    3.5581 H       1  LIG1        0.1443
     33 H           4.5616    5.8512   -1.3432 H       1  LIG1        0.1285
     34 H           0.5713    5.0877    0.0892 H       1  LIG1        0.1357
     35 H           3.7115    7.7212   -2.7108 H       1  LIG1        0.1119
     36 H          -0.2757    6.9581   -1.2791 H       1  LIG1        0.1283
     37 H           3.6757    4.1615    6.8777 H       1  LIG1        0.1381
     38 H          -0.2219    5.7534    5.9284 H       1  LIG1        0.1375
     39 H          -0.1031    0.2218   -3.1860 H       1  LIG1        0.1775
     40 H           3.5189    5.7640    1.8415 H       1  LIG1        0.1017
     41 H           4.4005    4.2211    2.0684 H       1  LIG1        0.1018
     42 H           4.0109    3.7748   -0.1988 H       1  LIG1        0.1359
     43 H           1.6433   10.0067   -4.1712 H       1  LIG1        0.0889
     44 H           2.6407    8.5260   -4.3143 H       1  LIG1        0.1221
     45 H           2.8955    9.6496   -2.9532 H       1  LIG1        0.0893
@<TRIPOS>BOND
     1     1     7   ar
     2     1    10   ar
     3     2     8   ar
     4     2    10   ar
     5     3     5   ar
     6     3    11   ar
     7     4     6   ar
     8     4    11   ar
     9     5    13   ar
    10     6    13   ar
    11     7    18   ar
    12     8    18   ar
    13     9    14   ar
    14     9    15   ar
    15    10    19    1
    16    11    21    1
    17    12    16   ar
    18    12    17   ar
    19    12    24    1
    20    13    25    1
    21    14    16   ar
    22    14    26    1
    23    15    17   ar
    24    15    27    1
    25    16    28    1
    26    17    29    1
    27    18    30    1
    28    19    20    1
    29    19    23    2
    30    20    21    1
    31    21    24    1
    32    22    25    1
    33    23    24    1
    34     1    31    1
    35     2    32    1
    36     3    33    1
    37     4    34    1
    38     5    35    1
    39     6    36    1
    40     7    37    1
    41     8    38    1
    42     9    39    1
    43    20    40    1
    44    20    41    1
    45    21    42    1
    46    22    43    1
    47    22    44    1
    48    22    45    1
