@<TRIPOS>MOLECULE
AG-205/13455028
 43 45 0 0 0
SMALL
USER_CHARGES

@<TRIPOS>ATOM
      1 C          -0.5155    4.9802    4.8914 C.1     1  LIG1        0.0493
      2 C           2.5918    7.4497   -2.6409 C.ar    1  LIG1       -0.1047
      3 C           0.7709    0.4813   -2.0352 C.ar    1  LIG1       -0.1067
      4 C           1.2462    7.0830   -2.6628 C.ar    1  LIG1       -0.1037
      5 C           3.4789    6.7968   -1.7849 C.ar    1  LIG1       -0.1033
      6 C           1.8653    1.2963   -2.3240 C.ar    1  LIG1       -0.1014
      7 C          -0.1901    0.9037   -1.1166 C.ar    1  LIG1       -0.1053
      8 C           0.7876    6.0633   -1.8288 C.ar    1  LIG1       -0.0993
      9 C           3.0201    5.7772   -0.9509 C.ar    1  LIG1       -0.0983
     10 C           1.9989    2.5337   -1.6941 C.ar    1  LIG1       -0.0917
     11 C          -0.0566    2.1411   -0.4867 C.ar    1  LIG1       -0.0967
     12 C           0.8794    4.6616    4.8806 C.ar    1  LIG1        0.0664
     13 C           1.6745    5.4104   -0.9728 C.ar    1  LIG1       -0.0749
     14 C           1.0380    2.9562   -0.7755 C.ar    1  LIG1       -0.0678
     15 C           1.6983    4.5362    6.0398 C.ar    1  LIG1       -0.0781
     16 C           3.0010    4.2215    5.7214 C.ar    1  LIG1       -0.0268
     17 C           1.5876    4.4382    3.7202 C.ar    1  LIG1        0.0648
     18 C           1.9833    4.2046    1.2417 C.2     1  LIG1        0.1253
     19 C           1.2134    4.7211    7.4316 C.3     1  LIG1       -0.0382
     20 C           4.1534    4.0072    6.6249 C.3     1  LIG1       -0.0274
     21 C           1.1847    4.3202   -0.0805 C.3     1  LIG1        0.0901
     22 N          -1.6468    5.2387    4.9002 N.1     1  LIG1       -0.3829
     23 N           1.1921    4.4558    2.3616 N.am    1  LIG1       -0.2791
     24 O           3.1794    3.9270    1.2352 O.2     1  LIG1       -0.4511
     25 S           3.2327    4.0787    4.0308 S.2     1  LIG1       -0.0327
     26 H           2.9490    8.2428   -3.2913 H       1  LIG1        0.1188
     27 H           0.6663   -0.4816   -2.5266 H       1  LIG1        0.1160
     28 H           0.5557    7.5905   -3.3300 H       1  LIG1        0.1191
     29 H           4.5267    7.0813   -1.7683 H       1  LIG1        0.1195
     30 H           2.6131    0.9681   -3.0400 H       1  LIG1        0.1163
     31 H          -1.0429    0.2699   -0.8923 H       1  LIG1        0.1155
     32 H          -0.2626    5.7844   -1.8525 H       1  LIG1        0.1180
     33 H           3.7185    5.2741   -0.2872 H       1  LIG1        0.1219
     34 H           2.8551    3.1621   -1.9252 H       1  LIG1        0.1241
     35 H          -0.8100    2.4619    0.2276 H       1  LIG1        0.1191
     36 H           0.8580    3.7684    7.8484 H       1  LIG1        0.0633
     37 H           2.0065    5.1081    8.0881 H       1  LIG1        0.0643
     38 H           0.3871    5.4457    7.4790 H       1  LIG1        0.0544
     39 H           4.2312    2.9492    6.9190 H       1  LIG1        0.0709
     40 H           5.1051    4.2976    6.1515 H       1  LIG1        0.0673
     41 H           4.0708    4.6090    7.5444 H       1  LIG1        0.0723
     42 H           0.1564    4.5762    0.2542 H       1  LIG1        0.1494
     43 H           0.2104    4.6710    2.2004 H       1  LIG1        0.3442
@<TRIPOS>BOND
     1     1    12    1
     2     1    22    3
     3     2     4   ar
     4     2     5   ar
     5     3     6   ar
     6     3     7   ar
     7     4     8   ar
     8     5     9   ar
     9     6    10   ar
    10     7    11   ar
    11     8    13   ar
    12     9    13   ar
    13    10    14   ar
    14    11    14   ar
    15    12    15   ar
    16    12    17   ar
    17    13    21    1
    18    14    21    1
    19    15    16   ar
    20    15    19    1
    21    16    20    1
    22    16    25   ar
    23    17    23    1
    24    17    25   ar
    25    18    21    1
    26    18    23   am
    27    18    24    2
    28     2    26    1
    29     3    27    1
    30     4    28    1
    31     5    29    1
    32     6    30    1
    33     7    31    1
    34     8    32    1
    35     9    33    1
    36    10    34    1
    37    11    35    1
    38    19    36    1
    39    19    37    1
    40    19    38    1
    41    20    39    1
    42    20    40    1
    43    20    41    1
    44    21    42    1
    45    23    43    1
