@<TRIPOS>MOLECULE
AI-204/31730008
 35 37 0 0 0
SMALL
USER_CHARGES

@<TRIPOS>ATOM
      1 C           2.7783    7.3149   -1.9674 C.ar    1  LIG1       -0.0928
      2 C           1.5332    7.0807   -2.5746 C.ar    1  LIG1       -0.0904
      3 C           3.2747    6.4416   -0.9962 C.ar    1  LIG1       -0.0773
      4 C           0.7642    5.9697   -2.2214 C.ar    1  LIG1       -0.0628
      5 C           1.0240    4.6778    4.2586 C.ar    1  LIG1       -0.0502
      6 C           3.0303    3.8331    5.2813 C.ar    1  LIG1       -0.0458
      7 C           0.5902    5.0298    5.5266 C.ar    1  LIG1       -0.0362
      8 C           2.5067    4.2230    6.5034 C.ar    1  LIG1       -0.0331
      9 C           2.2684    4.0685    4.1422 C.ar    1  LIG1       -0.0010
     10 C           2.5068    5.3429   -0.6492 C.ar    1  LIG1       -0.0160
     11 C           1.2711    5.1155   -1.2574 C.ar    1  LIG1       -0.0318
     12 C           1.5382    3.3587    0.2277 C.2     1  LIG1        0.1499
     13 C           2.7777    3.6745    2.8172 C.2     1  LIG1        0.0949
     14 C           2.7872    4.2551    0.3473 C.3     1  LIG1        0.1293
     15 C          -0.5757    3.4112   -1.1372 C.3     1  LIG1       -0.0029
     16 C           2.9644    4.7677    1.7692 C.3     1  LIG1        0.0911
     17 N           1.3020    4.8172    6.6561 N.ar    1  LIG1       -0.3974
     18 N           0.7040    3.9451   -0.7352 N.am    1  LIG1       -0.3147
     19 O           1.3523    2.3268    0.8565 O.2     1  LIG1       -0.4371
     20 O           3.0508    2.5050    2.5396 O.2     1  LIG1       -0.4399
     21 O           3.9144    3.5052   -0.0625 O.3     1  LIG1       -0.4417
     22 H           3.3608    8.1852   -2.2576 H       1  LIG1        0.1218
     23 H           1.1662    7.7726   -3.3280 H       1  LIG1        0.1344
     24 H           4.2370    6.6256   -0.5312 H       1  LIG1        0.1404
     25 H          -0.1949    5.7966   -2.6963 H       1  LIG1        0.1277
     26 H           0.4046    4.8774    3.3905 H       1  LIG1        0.1390
     27 H           4.0051    3.3604    5.2253 H       1  LIG1        0.1458
     28 H          -0.3725    5.5084    5.6712 H       1  LIG1        0.2037
     29 H           3.0612    4.0613    7.4218 H       1  LIG1        0.2053
     30 H          -0.4484    2.7217   -1.9759 H       1  LIG1        0.1112
     31 H          -1.2430    4.2206   -1.4453 H       1  LIG1        0.0983
     32 H          -1.0385    2.8726   -0.3060 H       1  LIG1        0.0983
     33 H           2.2286    5.5585    1.9493 H       1  LIG1        0.1198
     34 H           3.9730    5.1824    1.8678 H       1  LIG1        0.1123
     35 H           4.0593    2.8154    0.6080 H       1  LIG1        0.3478
@<TRIPOS>BOND
     1     1     2   ar
     2     1     3   ar
     3     2     4   ar
     4     3    10   ar
     5     4    11   ar
     6     5     7   ar
     7     5     9   ar
     8     6     8   ar
     9     6     9   ar
    10     7    17   ar
    11     8    17   ar
    12     9    13    1
    13    10    11   ar
    14    10    14    1
    15    11    18    1
    16    12    14    1
    17    12    18   am
    18    12    19    2
    19    13    16    1
    20    13    20    2
    21    14    16    1
    22    14    21    1
    23    15    18    1
    24     1    22    1
    25     2    23    1
    26     3    24    1
    27     4    25    1
    28     5    26    1
    29     6    27    1
    30     7    28    1
    31     8    29    1
    32    15    30    1
    33    15    31    1
    34    15    32    1
    35    16    33    1
    36    16    34    1
    37    21    35    1
