@<TRIPOS>MOLECULE
AP-982/40918892
 45 49 0 0 0
SMALL
USER_CHARGES

@<TRIPOS>ATOM
      1 C           1.4907    4.7536    6.7701 C.ar    1  LIG1       -0.0984
      2 C           1.1929    7.3203   -2.2055 C.ar    1  LIG1       -0.0985
      3 C           0.2702    1.0869   -2.2404 C.ar    1  LIG1       -0.1003
      4 C           0.6674    5.1682    5.7234 C.ar    1  LIG1       -0.0915
      5 C           2.6894    4.0951    6.4958 C.ar    1  LIG1       -0.0929
      6 C           2.1578    6.7709   -3.0497 C.ar    1  LIG1       -0.0884
      7 C           1.1710    6.9759   -0.8539 C.ar    1  LIG1       -0.0937
      8 C           1.5021    0.5967   -1.8072 C.ar    1  LIG1       -0.0958
      9 C          -0.2323    2.2759   -1.7115 C.ar    1  LIG1       -0.0886
     10 C           1.0426    4.9244    4.4023 C.ar    1  LIG1       -0.0662
     11 C           3.0647    3.8512    5.1747 C.ar    1  LIG1       -0.0694
     12 C           3.1006    5.8769   -2.5424 C.ar    1  LIG1       -0.0594
     13 C           2.1138    6.0820   -0.3466 C.ar    1  LIG1       -0.0657
     14 C           2.2314    1.2952   -0.8450 C.ar    1  LIG1       -0.0605
     15 C           0.4971    2.9745   -0.7494 C.ar    1  LIG1       -0.0503
     16 C           2.2413    4.2659    4.1278 C.ar    1  LIG1       -0.0100
     17 C           3.0787    5.5323   -1.1908 C.ar    1  LIG1       -0.0259
     18 C           1.7289    2.4841   -0.3162 C.ar    1  LIG1       -0.0118
     19 C           2.6399    4.0069    2.7245 C.2     1  LIG1        0.0848
     20 C           5.3534    4.5004   -1.2195 C.2     1  LIG1        0.1336
     21 C           6.1675    3.3857   -0.6052 C.3     1  LIG1        0.1137
     22 C           3.8159    3.7489    0.5060 C.3     1  LIG1        0.1390
     23 N           1.9184    3.2952    1.9136 N.2     1  LIG1       -0.2908
     24 N           4.0560    4.6059   -0.6654 N.am    1  LIG1       -0.2668
     25 N           2.4628    3.1876    0.6521 N.pl3   1  LIG1       -0.2739
     26 O           5.8606    5.2214   -2.0767 O.2     1  LIG1       -0.4510
     27 S           4.1217    4.6700    2.0723 S.3     1  LIG1       -0.0315
     28 S           5.0767    2.4252    0.4363 S.3     1  LIG1       -0.1210
     29 H           1.1984    4.9433    7.7987 H       1  LIG1        0.1259
     30 H           0.4590    8.0171   -2.5999 H       1  LIG1        0.1239
     31 H          -0.2978    0.5428   -2.9895 H       1  LIG1        0.1205
     32 H          -0.2661    5.6807    5.9371 H       1  LIG1        0.1249
     33 H           3.3306    3.7724    7.3108 H       1  LIG1        0.1256
     34 H           2.1756    7.0394   -4.1017 H       1  LIG1        0.1276
     35 H           0.4201    7.4047   -0.1966 H       1  LIG1        0.1236
     36 H           1.8930   -0.3289   -2.2188 H       1  LIG1        0.1251
     37 H          -1.1916    2.6576   -2.0491 H       1  LIG1        0.1284
     38 H           0.3935    5.2519    3.5942 H       1  LIG1        0.1404
     39 H           4.0009    3.3371    4.9727 H       1  LIG1        0.1323
     40 H           3.8480    5.4550   -3.2098 H       1  LIG1        0.1355
     41 H           2.0870    5.8208    0.7084 H       1  LIG1        0.1279
     42 H           3.1902    0.9046   -0.5141 H       1  LIG1        0.1218
     43 H           0.0956    3.9000   -0.3446 H       1  LIG1        0.1381
     44 H           6.5841    2.7568   -1.3961 H       1  LIG1        0.1588
     45 H           6.9775    3.8188   -0.0122 H       1  LIG1        0.1508
@<TRIPOS>BOND
     1     1     4   ar
     2     1     5   ar
     3     2     6   ar
     4     2     7   ar
     5     3     8   ar
     6     3     9   ar
     7     4    10   ar
     8     5    11   ar
     9     6    12   ar
    10     7    13   ar
    11     8    14   ar
    12     9    15   ar
    13    10    16   ar
    14    11    16   ar
    15    12    17   ar
    16    13    17   ar
    17    14    18   ar
    18    15    18   ar
    19    16    19    1
    20    17    24    1
    21    18    25    1
    22    19    23    2
    23    19    27    1
    24    20    21    1
    25    20    24   am
    26    20    26    2
    27    21    28    1
    28    22    24    1
    29    22    25    1
    30    22    27    1
    31    22    28    1
    32    23    25    1
    33     1    29    1
    34     2    30    1
    35     3    31    1
    36     4    32    1
    37     5    33    1
    38     6    34    1
    39     7    35    1
    40     8    36    1
    41     9    37    1
    42    10    38    1
    43    11    39    1
    44    12    40    1
    45    13    41    1
    46    14    42    1
    47    15    43    1
    48    21    44    1
    49    21    45    1
