@<TRIPOS>MOLECULE
AO-365/40892119
 44 46 0 0 0
SMALL
USER_CHARGES

@<TRIPOS>ATOM
      1 C           0.9825    0.5850   -1.8467 C.ar    1  LIG1       -0.1103
      2 C           1.7836    3.8434    6.4255 C.ar    1  LIG1       -0.0965
      3 C          -0.2351    1.2499   -1.7013 C.ar    1  LIG1       -0.1093
      4 C           2.1604    1.1802   -1.3949 C.ar    1  LIG1       -0.1062
      5 C           1.1434    5.0744    6.2612 C.ar    1  LIG1       -0.0898
      6 C           2.4952    3.2525    5.3724 C.ar    1  LIG1       -0.0920
      7 C          -0.2748    2.5099   -1.1042 C.ar    1  LIG1       -0.1016
      8 C           2.1207    2.4401   -0.7977 C.ar    1  LIG1       -0.0961
      9 C           1.1897    5.7591    5.0432 C.ar    1  LIG1       -0.0543
     10 C           3.1494    3.6734    2.8736 C.ar    1  LIG1       -0.0304
     11 C           2.5552    3.9237    4.1386 C.ar    1  LIG1       -0.0545
     12 C           0.9032    3.1050   -0.6524 C.ar    1  LIG1       -0.0859
     13 C           1.9046    5.1471    4.0153 C.ar    1  LIG1        0.0212
     14 C           2.8265    4.7456    2.0746 C.ar    1  LIG1        0.1394
     15 C           3.1553    5.0489    0.6726 C.2     1  LIG1        0.1688
     16 C           3.4686    6.7834   -1.4849 C.3     1  LIG1       -0.0422
     17 C           1.8892    5.2266   -2.6555 C.3     1  LIG1       -0.0447
     18 C           0.9952    7.1181   -1.2729 C.3     1  LIG1       -0.0439
     19 C           0.8612    4.4612   -0.0098 C.3     1  LIG1        0.0099
     20 C           2.1117    6.0751   -1.3992 C.3     1  LIG1       -0.0360
     21 N           2.0947    5.2103   -0.2334 N.am    1  LIG1       -0.3331
     22 O           4.3517    5.1504    0.4038 O.2     1  LIG1       -0.4491
     23 O           2.0714    5.6450    2.7576 O.2     1  LIG1       -0.3417
     24 H           1.0130   -0.3966   -2.3104 H       1  LIG1        0.1129
     25 H           1.7301    3.3352    7.3848 H       1  LIG1        0.1201
     26 H          -1.1524    0.7863   -2.0521 H       1  LIG1        0.1116
     27 H           3.1084    0.6624   -1.5068 H       1  LIG1        0.1128
     28 H           0.5986    5.5088    7.0959 H       1  LIG1        0.1348
     29 H           2.9881    2.2955    5.5151 H       1  LIG1        0.1339
     30 H          -1.2280    3.0205   -0.9953 H       1  LIG1        0.1171
     31 H           3.0435    2.8960   -0.4489 H       1  LIG1        0.1304
     32 H           0.6963    6.7142    4.9092 H       1  LIG1        0.1347
     33 H           3.7391    2.8145    2.5845 H       1  LIG1        0.1589
     34 H           3.6516    7.3981   -0.5959 H       1  LIG1        0.0516
     35 H           4.2897    6.0632   -1.5706 H       1  LIG1        0.0498
     36 H           3.5119    7.4500   -2.3541 H       1  LIG1        0.0552
     37 H           0.9233    4.7094   -2.6173 H       1  LIG1        0.0535
     38 H           2.6642    4.4579   -2.7558 H       1  LIG1        0.0465
     39 H           1.9061    5.8428   -3.5614 H       1  LIG1        0.0436
     40 H           0.0117    6.6381   -1.2096 H       1  LIG1        0.0438
     41 H           1.1269    7.7371   -0.3786 H       1  LIG1        0.0514
     42 H           0.9751    7.7841   -2.1433 H       1  LIG1        0.0529
     43 H           0.0303    5.0525   -0.4099 H       1  LIG1        0.1282
     44 H           0.7108    4.3792    1.0718 H       1  LIG1        0.1349
@<TRIPOS>BOND
     1     1     3   ar
     2     1     4   ar
     3     2     5   ar
     4     2     6   ar
     5     3     7   ar
     6     4     8   ar
     7     5     9   ar
     8     6    11   ar
     9     7    12   ar
    10     8    12   ar
    11     9    13   ar
    12    10    11   ar
    13    10    14   ar
    14    11    13   ar
    15    12    19    1
    16    13    23   ar
    17    14    15    1
    18    14    23   ar
    19    15    21   am
    20    15    22    2
    21    16    20    1
    22    17    20    1
    23    18    20    1
    24    19    21    1
    25    20    21    1
    26     1    24    1
    27     2    25    1
    28     3    26    1
    29     4    27    1
    30     5    28    1
    31     6    29    1
    32     7    30    1
    33     8    31    1
    34     9    32    1
    35    10    33    1
    36    16    34    1
    37    16    35    1
    38    16    36    1
    39    17    37    1
    40    17    38    1
    41    17    39    1
    42    18    40    1
    43    18    41    1
    44    18    42    1
    45    19    43    1
    46    19    44    1
