@<TRIPOS>MOLECULE
AG-205/33133004
 45 48 0 0 0
SMALL
USER_CHARGES

@<TRIPOS>ATOM
      1 C           0.9511    0.6651   -2.5004 C.ar    1  LIG1       -0.1097
      2 C           3.4759    6.4261   -0.9905 C.ar    1  LIG1       -0.1020
      3 C           2.0499    1.4808   -2.2304 C.ar    1  LIG1       -0.1011
      4 C          -0.2223    0.8077   -1.7597 C.ar    1  LIG1       -0.1000
      5 C           3.0275    7.0545   -2.1522 C.ar    1  LIG1       -0.1048
      6 C           0.7383    5.2871    4.7238 C.ar    1  LIG1       -0.0635
      7 C           2.6354    3.8548    4.2917 C.ar    1  LIG1       -0.0657
      8 C           2.5772    5.7275   -0.1841 C.ar    1  LIG1       -0.0850
      9 C           1.9754    2.4391   -1.2196 C.ar    1  LIG1       -0.0613
     10 C          -0.2968    1.7660   -0.7489 C.ar    1  LIG1       -0.0584
     11 C           1.6806    6.9845   -2.5075 C.ar    1  LIG1       -0.0716
     12 C           1.1482    5.4300    6.0494 C.ar    1  LIG1       -0.0651
     13 C           3.0453    3.9977    5.6173 C.ar    1  LIG1       -0.0662
     14 C           1.4819    4.4994    3.8449 C.ar    1  LIG1       -0.0296
     15 C           1.2302    5.6575   -0.5395 C.ar    1  LIG1       -0.0360
     16 C           0.8020    2.5818   -0.4788 C.ar    1  LIG1       -0.0269
     17 C           0.7818    6.2860   -1.7012 C.ar    1  LIG1       -0.0071
     18 C           2.3017    4.7854    6.4962 C.ar    1  LIG1       -0.0138
     19 C           1.0551    4.3505    2.4628 C.2     1  LIG1        0.0119
     20 C           0.3028    5.4512    1.7666 C.3     1  LIG1        0.0314
     21 C           0.2817    4.9052    0.3364 C.3     1  LIG1        0.0298
     22 C          -0.9259    5.1404   -2.8958 C.3     1  LIG1        0.0239
     23 N           1.2553    3.2877    1.7488 N.2     1  LIG1       -0.3216
     24 N           0.7284    3.5229    0.5139 N.pl3   1  LIG1       -0.3216
     25 O          -0.5307    6.2280   -2.0624 O.3     1  LIG1       -0.4165
     26 CL          2.8080    4.9629    8.1310 Cl      1  LIG1       -0.1416
     27 H           1.0093   -0.0813   -3.2874 H       1  LIG1        0.1051
     28 H           4.5247    6.4808   -0.7129 H       1  LIG1        0.1115
     29 H           2.9631    1.3696   -2.8070 H       1  LIG1        0.1219
     30 H          -1.0779    0.1723   -1.9701 H       1  LIG1        0.1222
     31 H           3.7274    7.5990   -2.7792 H       1  LIG1        0.1249
     32 H          -0.1624    5.7933    4.3864 H       1  LIG1        0.1455
     33 H           3.2227    3.2388    3.6156 H       1  LIG1        0.1410
     34 H           2.9362    5.2426    0.7199 H       1  LIG1        0.1321
     35 H           2.8371    3.0697   -1.0169 H       1  LIG1        0.1168
     36 H          -1.2165    1.8682   -0.1783 H       1  LIG1        0.1251
     37 H           1.3372    7.4761   -3.4137 H       1  LIG1        0.1120
     38 H           0.5595    6.0473    6.7232 H       1  LIG1        0.1360
     39 H           3.9462    3.4892    5.9512 H       1  LIG1        0.1363
     40 H          -0.7078    5.4968    2.1867 H       1  LIG1        0.1012
     41 H           0.7975    6.4195    1.8823 H       1  LIG1        0.0988
     42 H          -0.7244    4.9553   -0.0930 H       1  LIG1        0.1409
     43 H          -1.9953    5.2133   -3.1086 H       1  LIG1        0.1223
     44 H          -0.7075    4.1956   -2.3916 H       1  LIG1        0.0896
     45 H          -0.3661    5.1890   -3.8329 H       1  LIG1        0.0892
@<TRIPOS>BOND
     1     1     3   ar
     2     1     4   ar
     3     2     5   ar
     4     2     8   ar
     5     3     9   ar
     6     4    10   ar
     7     5    11   ar
     8     6    12   ar
     9     6    14   ar
    10     7    13   ar
    11     7    14   ar
    12     8    15   ar
    13     9    16   ar
    14    10    16   ar
    15    11    17   ar
    16    12    18   ar
    17    13    18   ar
    18    14    19    1
    19    15    17   ar
    20    15    21    1
    21    16    24    1
    22    17    25    1
    23    18    26    1
    24    19    20    1
    25    19    23    2
    26    20    21    1
    27    21    24    1
    28    22    25    1
    29    23    24    1
    30     1    27    1
    31     2    28    1
    32     3    29    1
    33     4    30    1
    34     5    31    1
    35     6    32    1
    36     7    33    1
    37     8    34    1
    38     9    35    1
    39    10    36    1
    40    11    37    1
    41    12    38    1
    42    13    39    1
    43    20    40    1
    44    20    41    1
    45    21    42    1
    46    22    43    1
    47    22    44    1
    48    22    45    1
