@<TRIPOS>MOLECULE
AN-329/15537737
 31 32 0 0 0
SMALL
USER_CHARGES

@<TRIPOS>ATOM
      1 C           2.6278    6.9174   -2.4785 C.ar    1  LIG1       -0.1163
      2 C           0.3005    2.5554   -0.3263 C.ar    1  LIG1       -0.0924
      3 C           2.2018    1.9433   -1.6857 C.ar    1  LIG1       -0.0940
      4 C          -0.4288    1.4983   -0.8703 C.ar    1  LIG1       -0.0712
      5 C           1.4724    0.8861   -2.2297 C.ar    1  LIG1       -0.0716
      6 C           3.0428    5.6396   -2.0041 C.ar    1  LIG1       -0.1095
      7 C           1.5620    7.4146   -1.7613 C.ar    1  LIG1       -0.0595
      8 C           1.6158    2.7780   -0.7340 C.ar    1  LIG1       -0.0745
      9 C           0.1570    0.6635   -1.8221 C.ar    1  LIG1       -0.0746
     10 C           2.2782    5.2088   -0.9421 C.ar    1  LIG1       -0.0387
     11 C          -1.3739   -0.2132   -3.5677 C.3     1  LIG1       -0.0370
     12 C          -0.5407   -1.7173   -1.7535 C.3     1  LIG1       -0.0371
     13 C           2.3964    3.9082   -0.1532 C.3     1  LIG1        0.0249
     14 N          -0.5795   -0.4065   -2.3710 N.pl3   1  LIG1       -0.4259
     15 O           3.7817    3.5564    0.0095 O.3     1  LIG1       -0.4634
     16 S           1.0659    6.3426   -0.5215 S.2     1  LIG1       -0.1516
     17 H           3.0877    7.4461   -3.3032 H       1  LIG1        0.1112
     18 H          -0.1640    3.2013    0.4138 H       1  LIG1        0.1278
     19 H           3.2252    2.1100   -2.0106 H       1  LIG1        0.1224
     20 H          -1.4535    1.3346   -0.5467 H       1  LIG1        0.1131
     21 H           1.9386    0.2424   -2.9711 H       1  LIG1        0.1144
     22 H           3.8625    5.0698   -2.4232 H       1  LIG1        0.1121
     23 H           1.0506    8.3557   -1.9063 H       1  LIG1        0.1613
     24 H          -1.8711   -1.1468   -3.8436 H       1  LIG1        0.0784
     25 H          -0.7364    0.1044   -4.3974 H       1  LIG1        0.0918
     26 H          -2.1345    0.5534   -3.3969 H       1  LIG1        0.0927
     27 H          -1.1683   -2.4153   -2.3135 H       1  LIG1        0.0984
     28 H          -0.9074   -1.6616   -0.7250 H       1  LIG1        0.0834
     29 H           0.4840   -2.0986   -1.7400 H       1  LIG1        0.0806
     30 H           2.0533    4.1072    0.8785 H       1  LIG1        0.1761
     31 H           4.2085    4.3365    0.3868 H       1  LIG1        0.3291
@<TRIPOS>BOND
     1     1     6   ar
     2     1     7   ar
     3     2     4   ar
     4     2     8   ar
     5     3     5   ar
     6     3     8   ar
     7     4     9   ar
     8     5     9   ar
     9     6    10   ar
    10     7    16   ar
    11     8    13    1
    12     9    14    1
    13    10    13    1
    14    10    16   ar
    15    11    14    1
    16    12    14    1
    17    13    15    1
    18     1    17    1
    19     2    18    1
    20     3    19    1
    21     4    20    1
    22     5    21    1
    23     6    22    1
    24     7    23    1
    25    11    24    1
    26    11    25    1
    27    11    26    1
    28    12    27    1
    29    12    28    1
    30    12    29    1
    31    13    30    1
    32    15    31    1
