@<TRIPOS>MOLECULE
AG-401/40683268
 46 48 0 0 0
SMALL
USER_CHARGES

@<TRIPOS>ATOM
      1 C           1.4980    4.7122    6.6185 C.ar    1  LIG1       -0.1075
      2 C          -0.0650    1.2155   -2.2192 C.ar    1  LIG1       -0.1010
      3 C           0.5427    4.2516    5.7125 C.ar    1  LIG1       -0.1032
      4 C           2.8079    4.9389    6.1959 C.ar    1  LIG1       -0.1042
      5 C          -0.4510    1.9932   -1.1276 C.ar    1  LIG1       -0.0969
      6 C           1.2764    0.8746   -2.3932 C.ar    1  LIG1       -0.0983
      7 C           0.8971    4.0179    4.3839 C.ar    1  LIG1       -0.0907
      8 C           3.1623    4.7052    4.8672 C.ar    1  LIG1       -0.0931
      9 C           0.5043    2.4302   -0.2099 C.ar    1  LIG1       -0.0789
     10 C           2.2318    1.3117   -1.4756 C.ar    1  LIG1       -0.0808
     11 C           3.3413    6.3010   -0.9456 C.ar    1  LIG1       -0.0720
     12 C           0.9312    6.4653   -0.9831 C.ar    1  LIG1       -0.0676
     13 C           3.3775    6.5166   -2.3232 C.ar    1  LIG1       -0.0669
     14 C           0.9673    6.6811   -2.3607 C.ar    1  LIG1       -0.0640
     15 C           2.2070    4.2446    3.9612 C.ar    1  LIG1       -0.0810
     16 C           1.8457    2.0894   -0.3840 C.ar    1  LIG1       -0.0023
     17 C           2.1181    6.2753   -0.2756 C.ar    1  LIG1       -0.0031
     18 C           2.1905    6.7068   -3.0307 C.ar    1  LIG1       -0.0103
     19 C           2.5838    3.9966    2.5512 C.2     1  LIG1       -0.0616
     20 C           2.8638    2.5552    0.5939 C.2     1  LIG1        0.1003
     21 C           2.0792    6.0456    1.1937 C.2     1  LIG1        0.0908
     22 C           2.4511    2.7617    2.0135 C.2     1  LIG1       -0.0152
     23 C           1.9994    1.5066    2.7047 C.3     1  LIG1       -0.0261
     24 C           3.1730    5.1945    1.8299 C.3     1  LIG1        0.0623
     25 O           4.0223    2.7661    0.2511 O.2     1  LIG1       -0.4427
     26 O           1.1762    6.5614    1.8482 O.2     1  LIG1       -0.4463
     27 CL          2.2353    6.9742   -4.7299 Cl      1  LIG1       -0.1339
     28 H           1.2218    4.8954    7.6528 H       1  LIG1        0.1152
     29 H          -0.8088    0.8753   -2.9336 H       1  LIG1        0.1261
     30 H          -0.4776    4.0761    6.0411 H       1  LIG1        0.1161
     31 H           3.5515    5.2985    6.9009 H       1  LIG1        0.1160
     32 H          -1.4954    2.2587   -0.9924 H       1  LIG1        0.1203
     33 H           1.5769    0.2688   -3.2430 H       1  LIG1        0.1197
     34 H           0.1413    3.6589    3.6894 H       1  LIG1        0.1289
     35 H           4.1874    4.8867    4.5530 H       1  LIG1        0.1218
     36 H           0.1926    3.0358    0.6371 H       1  LIG1        0.1362
     37 H           3.2741    1.0401   -1.6213 H       1  LIG1        0.1329
     38 H           4.2721    6.1535   -0.4041 H       1  LIG1        0.1419
     39 H          -0.0275    6.4476   -0.4713 H       1  LIG1        0.1498
     40 H           4.3377    6.5348   -2.8324 H       1  LIG1        0.1361
     41 H           0.0343    6.8273   -2.8989 H       1  LIG1        0.1371
     42 H           0.9115    1.3985    2.6324 H       1  LIG1        0.0625
     43 H           2.4310    0.6006    2.2703 H       1  LIG1        0.0627
     44 H           2.2681    1.5387    3.7652 H       1  LIG1        0.0548
     45 H           3.8777    4.8508    1.0660 H       1  LIG1        0.1077
     46 H           3.7436    5.8366    2.5110 H       1  LIG1        0.1087
@<TRIPOS>BOND
     1     1     3   ar
     2     1     4   ar
     3     2     5   ar
     4     2     6   ar
     5     3     7   ar
     6     4     8   ar
     7     5     9   ar
     8     6    10   ar
     9     7    15   ar
    10     8    15   ar
    11     9    16   ar
    12    10    16   ar
    13    11    13   ar
    14    11    17   ar
    15    12    14   ar
    16    12    17   ar
    17    13    18   ar
    18    14    18   ar
    19    15    19    1
    20    16    20    1
    21    17    21    1
    22    18    27    1
    23    19    22    2
    24    19    24    1
    25    20    22    1
    26    20    25    2
    27    21    24    1
    28    21    26    2
    29    22    23    1
    30     1    28    1
    31     2    29    1
    32     3    30    1
    33     4    31    1
    34     5    32    1
    35     6    33    1
    36     7    34    1
    37     8    35    1
    38     9    36    1
    39    10    37    1
    40    11    38    1
    41    12    39    1
    42    13    40    1
    43    14    41    1
    44    23    42    1
    45    23    43    1
    46    23    44    1
    47    24    45    1
    48    24    46    1
