@<TRIPOS>MOLECULE
AG-401/30830063
 49 51 0 0 0
SMALL
USER_CHARGES

@<TRIPOS>ATOM
      1 C           1.4980    4.7122    6.6185 C.ar    1  LIG1       -0.1077
      2 C          -0.0650    1.2157   -2.2193 C.ar    1  LIG1       -0.1012
      3 C           0.5427    4.2518    5.7124 C.ar    1  LIG1       -0.1033
      4 C           2.8079    4.9388    6.1959 C.ar    1  LIG1       -0.1044
      5 C          -0.4509    1.9935   -1.1277 C.ar    1  LIG1       -0.0971
      6 C           1.2763    0.8745   -2.3931 C.ar    1  LIG1       -0.0984
      7 C           0.8971    4.0180    4.3838 C.ar    1  LIG1       -0.0905
      8 C           3.1623    4.7050    4.8673 C.ar    1  LIG1       -0.0931
      9 C           0.5043    2.4303   -0.2100 C.ar    1  LIG1       -0.0789
     10 C           2.2317    1.3115   -1.4755 C.ar    1  LIG1       -0.0808
     11 C           3.3416    6.3007   -0.9462 C.ar    1  LIG1       -0.0789
     12 C           0.9315    6.4654   -0.9825 C.ar    1  LIG1       -0.0833
     13 C           3.3771    6.5166   -2.3238 C.ar    1  LIG1       -0.0957
     14 C           0.9670    6.6813   -2.3601 C.ar    1  LIG1       -0.0986
     15 C           2.2070    4.2445    3.9612 C.ar    1  LIG1       -0.0807
     16 C           1.8457    2.0893   -0.3840 C.ar    1  LIG1       -0.0022
     17 C           2.1188    6.2751   -0.2756 C.ar    1  LIG1       -0.0105
     18 C           2.1899    6.7068   -3.0308 C.ar    1  LIG1       -0.1140
     19 C           2.5839    3.9964    2.5512 C.2     1  LIG1       -0.0616
     20 C           2.8638    2.5550    0.5940 C.2     1  LIG1        0.1003
     21 C           2.0797    6.0455    1.1937 C.2     1  LIG1        0.0867
     22 C           2.4511    2.7616    2.0135 C.2     1  LIG1       -0.0154
     23 C           2.2284    6.9388   -4.5036 C.3     1  LIG1       -0.0400
     24 C           1.9991    1.5065    2.7048 C.3     1  LIG1       -0.0264
     25 C           3.1733    5.1942    1.8300 C.3     1  LIG1        0.0614
     26 O           4.0224    2.7657    0.2513 O.2     1  LIG1       -0.4424
     27 O           1.1767    6.5614    1.8482 O.2     1  LIG1       -0.4504
     28 H           1.2217    4.8955    7.6527 H       1  LIG1        0.1149
     29 H          -0.8088    0.8756   -2.9337 H       1  LIG1        0.1259
     30 H          -0.4777    4.0764    6.0410 H       1  LIG1        0.1159
     31 H           3.5515    5.2983    6.9010 H       1  LIG1        0.1158
     32 H          -1.4954    2.2591   -0.9926 H       1  LIG1        0.1201
     33 H           1.5769    0.2687   -3.2429 H       1  LIG1        0.1196
     34 H           0.1413    3.6591    3.6893 H       1  LIG1        0.1294
     35 H           4.1875    4.8863    4.5532 H       1  LIG1        0.1216
     36 H           0.1926    3.0359    0.6370 H       1  LIG1        0.1361
     37 H           3.2741    1.0397   -1.6212 H       1  LIG1        0.1328
     38 H           4.2725    6.1537   -0.4047 H       1  LIG1        0.1385
     39 H          -0.0270    6.4474   -0.4705 H       1  LIG1        0.1305
     40 H           4.3342    6.5353   -2.8381 H       1  LIG1        0.1207
     41 H           0.0371    6.8291   -2.9029 H       1  LIG1        0.1197
     42 H           2.1719    5.9848   -5.0419 H       1  LIG1        0.0604
     43 H           1.3930    7.5721   -4.8292 H       1  LIG1        0.0561
     44 H           3.1515    7.4526   -4.8019 H       1  LIG1        0.0562
     45 H           0.9112    1.3986    2.6324 H       1  LIG1        0.0622
     46 H           2.4306    0.6005    2.2704 H       1  LIG1        0.0625
     47 H           2.2678    1.5386    3.7653 H       1  LIG1        0.0545
     48 H           3.8780    4.8504    1.0662 H       1  LIG1        0.1066
     49 H           3.7440    5.8362    2.5111 H       1  LIG1        0.1075
@<TRIPOS>BOND
     1     1     3   ar
     2     1     4   ar
     3     2     5   ar
     4     2     6   ar
     5     3     7   ar
     6     4     8   ar
     7     5     9   ar
     8     6    10   ar
     9     7    15   ar
    10     8    15   ar
    11     9    16   ar
    12    10    16   ar
    13    11    13   ar
    14    11    17   ar
    15    12    14   ar
    16    12    17   ar
    17    13    18   ar
    18    14    18   ar
    19    15    19    1
    20    16    20    1
    21    17    21    1
    22    18    23    1
    23    19    22    2
    24    19    25    1
    25    20    22    1
    26    20    26    2
    27    21    25    1
    28    21    27    2
    29    22    24    1
    30     1    28    1
    31     2    29    1
    32     3    30    1
    33     4    31    1
    34     5    32    1
    35     6    33    1
    36     7    34    1
    37     8    35    1
    38     9    36    1
    39    10    37    1
    40    11    38    1
    41    12    39    1
    42    13    40    1
    43    14    41    1
    44    23    42    1
    45    23    43    1
    46    23    44    1
    47    24    45    1
    48    24    46    1
    49    24    47    1
    50    25    48    1
    51    25    49    1
