@<TRIPOS>MOLECULE
AG-205/08238011
 55 59 0 0 0
SMALL
USER_CHARGES

@<TRIPOS>ATOM
      1 C           1.5111    4.2803    6.6186 C.ar    1  LIG1       -0.1042
      2 C          -3.8611   -2.8624   -4.7636 C.ar    1  LIG1       -0.1061
      3 C           2.0256    7.2884   -2.8902 C.ar    1  LIG1       -0.1104
      4 C           2.8292    4.1518    6.1809 C.ar    1  LIG1       -0.0991
      5 C           0.4752    4.3872    5.6906 C.ar    1  LIG1       -0.0980
      6 C          -2.7912   -3.6241   -4.2941 C.ar    1  LIG1       -0.1037
      7 C          -3.8437   -1.4746   -4.6238 C.ar    1  LIG1       -0.1036
      8 C           2.9646    6.2576   -2.9276 C.ar    1  LIG1       -0.1016
      9 C           1.2511    7.4851   -1.7470 C.ar    1  LIG1       -0.1006
     10 C           3.1116    4.1302    4.8151 C.ar    1  LIG1       -0.0783
     11 C           0.7575    4.3656    4.3248 C.ar    1  LIG1       -0.0762
     12 C           2.2733    1.3888   -0.9807 C.ar    1  LIG1       -0.0856
     13 C           0.5653    2.9677   -0.3276 C.ar    1  LIG1       -0.0935
     14 C          -1.7038   -2.9981   -3.6846 C.ar    1  LIG1       -0.0957
     15 C          -2.7563   -0.8486   -4.0143 C.ar    1  LIG1       -0.0956
     16 C           3.1289    5.4235   -1.8219 C.ar    1  LIG1       -0.0611
     17 C           1.4154    6.6510   -0.6412 C.ar    1  LIG1       -0.0585
     18 C           1.3094    0.6117   -1.6230 C.ar    1  LIG1       -0.0569
     19 C          -0.3988    2.1907   -0.9699 C.ar    1  LIG1       -0.0679
     20 C           2.0757    4.2371    3.8870 C.ar    1  LIG1       -0.0374
     21 C           1.9012    2.5668   -0.3330 C.ar    1  LIG1       -0.0790
     22 C          -1.6863   -1.6104   -3.5447 C.ar    1  LIG1       -0.0756
     23 C           2.3544    5.6201   -0.6786 C.ar    1  LIG1       -0.0272
     24 C          -0.0267    1.0126   -1.6177 C.ar    1  LIG1       -0.0085
     25 C           2.3701    4.2146    2.4630 C.2     1  LIG1        0.0082
     26 C           3.0453    3.0261    1.8352 C.3     1  LIG1        0.0288
     27 C           2.9338    3.3997    0.3546 C.3     1  LIG1        0.0191
     28 C          -0.5170   -0.9365   -2.8891 C.3     1  LIG1        0.0425
     29 N           2.1102    5.1895    1.6498 N.2     1  LIG1       -0.3238
     30 N           2.5156    4.8012    0.4076 N.pl3   1  LIG1       -0.3240
     31 O          -0.9669    0.2548   -2.2455 O.3     1  LIG1       -0.4027
     32 H           1.2913    4.2972    7.6820 H       1  LIG1        0.1191
     33 H          -4.7072   -3.3498   -5.2393 H       1  LIG1        0.1185
     34 H           1.8976    7.9378   -3.7515 H       1  LIG1        0.1042
     35 H           3.6355    4.0688    6.9037 H       1  LIG1        0.1195
     36 H          -0.5511    4.4870    6.0313 H       1  LIG1        0.1191
     37 H          -2.8041   -4.7046   -4.4039 H       1  LIG1        0.1172
     38 H          -4.6761   -0.8811   -4.9901 H       1  LIG1        0.1173
     39 H           3.5673    6.1045   -3.8178 H       1  LIG1        0.1217
     40 H           0.5200    8.2879   -1.7180 H       1  LIG1        0.1214
     41 H           4.1422    4.0296    4.4849 H       1  LIG1        0.1286
     42 H          -0.0576    4.4498    3.6106 H       1  LIG1        0.1331
     43 H           3.3117    1.0687   -0.9899 H       1  LIG1        0.1339
     44 H           0.2662    3.8841    0.1748 H       1  LIG1        0.1259
     45 H          -0.8746   -3.5998   -3.3216 H       1  LIG1        0.1222
     46 H          -2.7515    0.2331   -3.9096 H       1  LIG1        0.1224
     47 H           3.8632    4.6230   -1.8612 H       1  LIG1        0.1175
     48 H           0.8063    6.8139    0.2444 H       1  LIG1        0.1243
     49 H           1.6055   -0.3050   -2.1262 H       1  LIG1        0.1291
     50 H          -1.4376    2.5085   -0.9624 H       1  LIG1        0.1108
     51 H           4.0909    3.0122    2.1612 H       1  LIG1        0.0987
     52 H           2.5571    2.0873    2.1109 H       1  LIG1        0.0987
     53 H           3.8942    3.2812   -0.1581 H       1  LIG1        0.1351
     54 H          -0.0543   -1.5922   -2.1435 H       1  LIG1        0.1187
     55 H           0.2470   -0.6779   -3.6301 H       1  LIG1        0.1189
@<TRIPOS>BOND
     1     1     4   ar
     2     1     5   ar
     3     2     6   ar
     4     2     7   ar
     5     3     8   ar
     6     3     9   ar
     7     4    10   ar
     8     5    11   ar
     9     6    14   ar
    10     7    15   ar
    11     8    16   ar
    12     9    17   ar
    13    10    20   ar
    14    11    20   ar
    15    12    18   ar
    16    12    21   ar
    17    13    19   ar
    18    13    21   ar
    19    14    22   ar
    20    15    22   ar
    21    16    23   ar
    22    17    23   ar
    23    18    24   ar
    24    19    24   ar
    25    20    25    1
    26    21    27    1
    27    22    28    1
    28    23    30    1
    29    24    31    1
    30    25    26    1
    31    25    29    2
    32    26    27    1
    33    27    30    1
    34    28    31    1
    35    29    30    1
    36     1    32    1
    37     2    33    1
    38     3    34    1
    39     4    35    1
    40     5    36    1
    41     6    37    1
    42     7    38    1
    43     8    39    1
    44     9    40    1
    45    10    41    1
    46    11    42    1
    47    12    43    1
    48    13    44    1
    49    14    45    1
    50    15    46    1
    51    16    47    1
    52    17    48    1
    53    18    49    1
    54    19    50    1
    55    26    51    1
    56    26    52    1
    57    27    53    1
    58    28    54    1
    59    28    55    1
