@<TRIPOS>MOLECULE
AG-996/01589037
 29 30 0 0 0
SMALL
USER_CHARGES

@<TRIPOS>ATOM
      1 C           1.3636    4.6592    6.4662 C.ar    1  LIG1       -0.1031
      2 C           0.0880    0.9714   -1.5619 C.ar    1  LIG1       -0.0955
      3 C           2.6762    4.2645    6.2080 C.ar    1  LIG1       -0.1000
      4 C           0.4730    4.8530    5.4102 C.ar    1  LIG1       -0.1007
      5 C          -0.2084    2.2992   -1.8696 C.ar    1  LIG1       -0.0919
      6 C           1.2294    0.6652   -0.8207 C.ar    1  LIG1       -0.0920
      7 C           3.0984    4.0638    4.8938 C.ar    1  LIG1       -0.0917
      8 C           0.8952    4.6523    4.0960 C.ar    1  LIG1       -0.0928
      9 C           0.6365    3.3208   -1.4362 C.ar    1  LIG1       -0.0167
     10 C           2.0743    1.6870   -0.3873 C.ar    1  LIG1       -0.0168
     11 C           2.2079    4.2577    3.8377 C.ar    1  LIG1       -0.0767
     12 C           1.7779    3.0147   -0.6950 C.ar    1  LIG1        0.2478
     13 C           2.6476    4.0487    2.4671 C.2     1  LIG1       -0.0041
     14 C           2.1821    4.7104    1.3870 C.2     1  LIG1        0.2422
     15 O           4.1724    3.7350    0.0392 O.2     1  LIG1       -0.1272
     16 O           2.6726    5.4201   -1.0701 O.2     1  LIG1       -0.1272
     17 S           2.8521    4.3118   -0.1479 S.O2    1  LIG1       -0.1260
     18 H           1.0345    4.8143    7.4895 H       1  LIG1        0.1232
     19 H          -0.5692    0.1753   -1.8996 H       1  LIG1        0.1346
     20 H           3.3695    4.1125    7.0301 H       1  LIG1        0.1205
     21 H          -0.5495    5.1591    5.6112 H       1  LIG1        0.1194
     22 H          -1.0964    2.5379   -2.4475 H       1  LIG1        0.1234
     23 H           1.4602   -0.3687   -0.5820 H       1  LIG1        0.1236
     24 H           4.1249    3.7564    4.7083 H       1  LIG1        0.1311
     25 H           0.1892    4.8075    3.2837 H       1  LIG1        0.1280
     26 H           0.3968    4.3519   -1.6821 H       1  LIG1        0.1466
     27 H           2.9614    1.4369    0.1882 H       1  LIG1        0.1468
     28 H           3.4348    3.3001    2.3184 H       1  LIG1        0.1710
     29 H           1.4219    5.4789    1.4414 H       1  LIG1        0.1843
@<TRIPOS>BOND
     1     1     3   ar
     2     1     4   ar
     3     2     5   ar
     4     2     6   ar
     5     3     7   ar
     6     4     8   ar
     7     5     9   ar
     8     6    10   ar
     9     7    11   ar
    10     8    11   ar
    11     9    12   ar
    12    10    12   ar
    13    11    13    1
    14    12    17    1
    15    13    14    2
    16    14    17    1
    17    15    17    2
    18    16    17    2
    19     1    18    1
    20     2    19    1
    21     3    20    1
    22     4    21    1
    23     5    22    1
    24     6    23    1
    25     7    24    1
    26     8    25    1
    27     9    26    1
    28    10    27    1
    29    13    28    1
    30    14    29    1
