@<TRIPOS>MOLECULE
AG-205/37268031
 36 39 0 0 0
SMALL
USER_CHARGES

@<TRIPOS>ATOM
      1 C           2.2601    1.9256   -1.1079 C.ar    1  LIG1       -0.0865
      2 C           3.1857    5.9011   -1.7353 C.ar    1  LIG1       -0.0865
      3 C           1.4358    0.8155   -1.4520 C.ar    1  LIG1       -0.0787
      4 C           2.8999    7.1034   -2.4445 C.ar    1  LIG1       -0.0793
      5 C           1.5313    2.9647   -0.5725 C.ar    1  LIG1       -0.0130
      6 C           2.1182    5.4854   -0.9703 C.ar    1  LIG1       -0.0130
      7 C           0.1084    1.0484   -1.1662 C.ar    1  LIG1        0.0471
      8 C           1.6247    7.5608   -2.1945 C.ar    1  LIG1        0.0461
      9 C           2.3760    4.4073    1.1921 C.2     1  LIG1       -0.1129
     10 C           2.0158    4.2879   -0.0915 C.2     1  LIG1       -0.0431
     11 C           2.8836    5.6944    1.8023 C.3     1  LIG1       -0.1469
     12 C           1.4209    3.7517    3.3511 C.3     1  LIG1       -0.0772
     13 C           3.7510    3.1157    2.7550 C.3     1  LIG1       -0.0772
     14 C           1.9748    5.0622    3.9468 C.3     1  LIG1       -0.1817
     15 C           4.2276    4.4469    3.3716 C.3     1  LIG1       -0.1817
     16 C           2.3259    3.2800    2.2005 C.3     1  LIG1       -0.0467
     17 N           3.2015    5.5089    3.2449 N.3     1  LIG1        0.3388
     18 S          -0.1396    2.6003   -0.4862 S.2     1  LIG1       -0.0878
     19 S           0.7782    6.5425   -1.1087 S.2     1  LIG1       -0.0883
     20 CL         -1.2204   -0.0050   -1.4148 Cl      1  LIG1       -0.0949
     21 CL          0.8670    8.9601   -2.8305 Cl      1  LIG1       -0.0961
     22 H           3.3334    1.9519   -1.2497 H       1  LIG1        0.1275
     23 H           4.1303    5.3739   -1.7896 H       1  LIG1        0.1272
     24 H           1.8043   -0.1051   -1.8870 H       1  LIG1        0.1284
     25 H           3.5991    7.6025   -3.1035 H       1  LIG1        0.1283
     26 H           3.7840    6.0349    1.2763 H       1  LIG1        0.0819
     27 H           2.1313    6.4861    1.6987 H       1  LIG1        0.0818
     28 H           1.3735    2.9814    4.1303 H       1  LIG1        0.0465
     29 H           0.3976    3.9114    2.9891 H       1  LIG1        0.0508
     30 H           4.4376    2.8088    1.9561 H       1  LIG1        0.0467
     31 H           3.7671    2.3280    3.5178 H       1  LIG1        0.0508
     32 H           1.2116    5.8489    3.8949 H       1  LIG1        0.0507
     33 H           2.1867    4.9278    5.0149 H       1  LIG1        0.0533
     34 H           4.4823    4.3006    4.4288 H       1  LIG1        0.0535
     35 H           5.1570    4.7716    2.8871 H       1  LIG1        0.0504
     36 H           1.9598    2.3425    1.7697 H       1  LIG1        0.0813
@<TRIPOS>BOND
     1     1     3   ar
     2     1     5   ar
     3     2     4   ar
     4     2     6   ar
     5     3     7   ar
     6     4     8   ar
     7     5    10    1
     8     5    18   ar
     9     6    10    1
    10     6    19   ar
    11     7    18   ar
    12     7    20    1
    13     8    19   ar
    14     8    21    1
    15     9    10    2
    16     9    11    1
    17     9    16    1
    18    11    17    1
    19    12    14    1
    20    12    16    1
    21    13    15    1
    22    13    16    1
    23    14    17    1
    24    15    17    1
    25     1    22    1
    26     2    23    1
    27     3    24    1
    28     4    25    1
    29    11    26    1
    30    11    27    1
    31    12    28    1
    32    12    29    1
    33    13    30    1
    34    13    31    1
    35    14    32    1
    36    14    33    1
    37    15    34    1
    38    15    35    1
    39    16    36    1
