@<TRIPOS>MOLECULE
AL-398/12677119
 39 41 0 0 0
SMALL
USER_CHARGES

@<TRIPOS>ATOM
      1 C           0.4170    0.6150   -1.4568 C.ar    1  LIG1       -0.1008
      2 C           2.2390    7.6170   -2.3144 C.ar    1  LIG1       -0.1004
      3 C          -0.0384    1.8577   -1.8973 C.ar    1  LIG1       -0.0916
      4 C           1.4251    0.5424   -0.4955 C.ar    1  LIG1       -0.0941
      5 C           2.8923    6.4543   -2.7228 C.ar    1  LIG1       -0.0907
      6 C           1.5320    7.6343   -1.1120 C.ar    1  LIG1       -0.0927
      7 C           1.8017    4.8509    6.2883 C.ar    1  LIG1       -0.0702
      8 C           2.8257    4.0030    5.8665 C.ar    1  LIG1       -0.0687
      9 C           0.5145    3.0277   -1.3766 C.ar    1  LIG1       -0.0598
     10 C           1.9780    1.7123    0.0251 C.ar    1  LIG1       -0.0635
     11 C           2.8385    5.3086   -1.9288 C.ar    1  LIG1       -0.0568
     12 C           1.4782    6.4886   -0.3181 C.ar    1  LIG1       -0.0592
     13 C           0.7892    5.2167    5.4012 C.ar    1  LIG1       -0.0325
     14 C           2.8375    3.5210    4.5576 C.ar    1  LIG1       -0.0246
     15 C           1.5227    2.9551   -0.4154 C.ar    1  LIG1       -0.0153
     16 C           2.1315    5.3258   -0.7265 C.ar    1  LIG1       -0.0107
     17 C           0.8011    4.7348    4.0924 C.ar    1  LIG1        0.1157
     18 C           1.8252    3.8869    3.6705 C.ar    1  LIG1        0.0924
     19 C           2.5613    4.2006    1.4566 C.2     1  LIG1        0.2673
     20 N           2.0755    4.1254    0.1053 N.am    1  LIG1       -0.2376
     21 N          -0.2390    5.1179    3.2015 N.pl3   1  LIG1       -0.0380
     22 O          -1.1422    5.8817    3.6173 O.2     1  LIG1       -0.1531
     23 O           3.4842    4.9388    1.8015 O.2     1  LIG1       -0.4308
     24 O          -0.2221    4.6807    2.0265 O.2     1  LIG1       -0.2422
     25 O           1.8604    3.3919    2.3629 O.3     1  LIG1       -0.2460
     26 H          -0.0139   -0.2963   -1.8614 H       1  LIG1        0.1203
     27 H           2.2813    8.5095   -2.9320 H       1  LIG1        0.1213
     28 H          -0.8239    1.9147   -2.6450 H       1  LIG1        0.1261
     29 H           1.7787   -0.4254   -0.1520 H       1  LIG1        0.1241
     30 H           3.4435    6.4407   -3.6584 H       1  LIG1        0.1257
     31 H           1.0242    8.5402   -0.7939 H       1  LIG1        0.1252
     32 H           1.7926    5.2264    7.3075 H       1  LIG1        0.1489
     33 H           3.6140    3.7179    6.5572 H       1  LIG1        0.1580
     34 H           0.1516    3.9906   -1.7274 H       1  LIG1        0.1346
     35 H           2.7633    1.6434    0.7739 H       1  LIG1        0.1263
     36 H           3.3517    4.4082   -2.2572 H       1  LIG1        0.1336
     37 H           0.9243    6.5138    0.6170 H       1  LIG1        0.1316
     38 H          -0.0028    5.8782    5.7440 H       1  LIG1        0.1712
     39 H           3.6385    2.8605    4.2356 H       1  LIG1        0.1569
@<TRIPOS>BOND
     1     1     3   ar
     2     1     4   ar
     3     2     5   ar
     4     2     6   ar
     5     3     9   ar
     6     4    10   ar
     7     5    11   ar
     8     6    12   ar
     9     7     8   ar
    10     7    13   ar
    11     8    14   ar
    12     9    15   ar
    13    10    15   ar
    14    11    16   ar
    15    12    16   ar
    16    13    17   ar
    17    14    18   ar
    18    15    20    1
    19    16    20    1
    20    17    18   ar
    21    17    21    1
    22    18    25    1
    23    19    20   am
    24    19    23    2
    25    19    25    1
    26    21    22    1
    27    21    24    2
    28     1    26    1
    29     2    27    1
    30     3    28    1
    31     4    29    1
    32     5    30    1
    33     6    31    1
    34     7    32    1
    35     8    33    1
    36     9    34    1
    37    10    35    1
    38    11    36    1
    39    12    37    1
    40    13    38    1
    41    14    39    1
