@<TRIPOS>MOLECULE
AH-034/10858038
 43 46 0 0 0
SMALL
USER_CHARGES

@<TRIPOS>ATOM
      1 C           1.6365    4.8073    6.2328 C.ar    1  LIG1       -0.0986
      2 C           2.8324    0.1532   -3.3255 C.ar    1  LIG1       -0.0946
      3 C           3.6994    1.1515   -2.8873 C.ar    1  LIG1       -0.0958
      4 C           2.9244    4.3378    5.9746 C.ar    1  LIG1       -0.0937
      5 C           0.7076    4.9011    5.1964 C.ar    1  LIG1       -0.0923
      6 C           1.5242    0.0988   -2.8411 C.ar    1  LIG1       -0.0847
      7 C           3.2622    2.0999   -1.9629 C.ar    1  LIG1       -0.0824
      8 C           3.2834    3.9622    4.6802 C.ar    1  LIG1       -0.0656
      9 C           1.0666    4.5255    3.9020 C.ar    1  LIG1       -0.0644
     10 C           1.0292    5.7477   -1.4155 C.ar    1  LIG1       -0.0771
     11 C           3.3785    6.1483   -1.0190 C.ar    1  LIG1       -0.0817
     12 C           0.9565    6.9191   -2.1692 C.ar    1  LIG1       -0.0689
     13 C           3.3060    7.3198   -1.7729 C.ar    1  LIG1       -0.0713
     14 C          -0.2381    1.0177   -1.4055 C.ar    1  LIG1       -0.0597
     15 C          -0.6134    1.9879   -0.4887 C.ar    1  LIG1       -0.0358
     16 C           1.0673    1.0455   -1.9098 C.ar    1  LIG1       -0.0686
     17 C           1.9480    2.0546   -1.4687 C.ar    1  LIG1       -0.0321
     18 C           2.3545    4.0560    3.6438 C.ar    1  LIG1        0.0388
     19 C           2.2401    5.3624   -0.8404 C.ar    1  LIG1       -0.0453
     20 C           2.0949    7.7052   -2.3479 C.ar    1  LIG1       -0.0156
     21 C           1.4583    2.9779   -0.5429 C.ar    1  LIG1        0.0211
     22 C           2.7367    3.6563    2.2659 C.2     1  LIG1        0.1879
     23 C           2.3203    4.0828   -0.0189 C.3     1  LIG1        0.1178
     24 N           0.2015    2.9680   -0.0441 N.ar    1  LIG1       -0.3773
     25 O           3.5659    2.7926    2.0247 O.2     1  LIG1       -0.4475
     26 O           2.0381    4.3807    1.3592 O.3     1  LIG1       -0.3055
     27 CL          2.0051    9.1500   -3.2779 Cl      1  LIG1       -0.1427
     28 H           1.3571    5.0998    7.2406 H       1  LIG1        0.1289
     29 H           3.1743   -0.5844   -4.0458 H       1  LIG1        0.1274
     30 H           4.7163    1.1918   -3.2666 H       1  LIG1        0.1255
     31 H           3.6476    4.2651    6.7816 H       1  LIG1        0.1223
     32 H          -0.2952    5.2663    5.3974 H       1  LIG1        0.1239
     33 H           0.8648   -0.6902   -3.1961 H       1  LIG1        0.1316
     34 H           3.9641    2.8652   -1.6412 H       1  LIG1        0.1291
     35 H           4.2897    3.5978    4.4902 H       1  LIG1        0.1441
     36 H           0.3346    4.6029    3.1021 H       1  LIG1        0.1440
     37 H           0.1377    5.1408   -1.2807 H       1  LIG1        0.1432
     38 H           4.3259    5.8550   -0.5745 H       1  LIG1        0.1326
     39 H           0.0062    7.2066   -2.6116 H       1  LIG1        0.1338
     40 H           4.2011    7.9223   -1.9035 H       1  LIG1        0.1339
     41 H          -0.9515    0.2610   -1.7172 H       1  LIG1        0.1358
     42 H          -1.6166    1.9999   -0.0752 H       1  LIG1        0.1954
     43 H           3.3759    3.7585   -0.0061 H       1  LIG1        0.1839
@<TRIPOS>BOND
     1     1     4   ar
     2     1     5   ar
     3     2     3   ar
     4     2     6   ar
     5     3     7   ar
     6     4     8   ar
     7     5     9   ar
     8     6    16   ar
     9     7    17   ar
    10     8    18   ar
    11     9    18   ar
    12    10    12   ar
    13    10    19   ar
    14    11    13   ar
    15    11    19   ar
    16    12    20   ar
    17    13    20   ar
    18    14    15   ar
    19    14    16   ar
    20    15    24   ar
    21    16    17   ar
    22    17    21   ar
    23    18    22    1
    24    19    23    1
    25    20    27    1
    26    21    23    1
    27    21    24   ar
    28    22    25    2
    29    22    26    1
    30    23    26    1
    31     1    28    1
    32     2    29    1
    33     3    30    1
    34     4    31    1
    35     5    32    1
    36     6    33    1
    37     7    34    1
    38     8    35    1
    39     9    36    1
    40    10    37    1
    41    11    38    1
    42    12    39    1
    43    13    40    1
    44    14    41    1
    45    15    42    1
    46    23    43    1
