@<TRIPOS>MOLECULE
AF-399/40826419
 43 46 0 0 0
SMALL
USER_CHARGES

@<TRIPOS>ATOM
      1 C           2.0949    7.7063   -2.3461 C.ar    1  LIG1       -0.1062
      2 C           2.8321    0.1522   -3.3252 C.ar    1  LIG1       -0.0948
      3 C           3.6992    1.1505   -2.8873 C.ar    1  LIG1       -0.0960
      4 C           0.9564    6.9206   -2.1674 C.ar    1  LIG1       -0.1043
      5 C           3.3062    7.3198   -1.7724 C.ar    1  LIG1       -0.1019
      6 C           1.5239    0.0980   -2.8408 C.ar    1  LIG1       -0.0849
      7 C           3.2621    2.0990   -1.9631 C.ar    1  LIG1       -0.0823
      8 C           3.2836    3.9628    4.6797 C.ar    1  LIG1       -0.0519
      9 C           1.0667    4.5254    3.9014 C.ar    1  LIG1       -0.0508
     10 C           1.0291    5.7484   -1.4149 C.ar    1  LIG1       -0.0941
     11 C           3.3789    6.1476   -1.0199 C.ar    1  LIG1       -0.0894
     12 C           2.9245    4.3383    5.9741 C.ar    1  LIG1       -0.0704
     13 C           0.7075    4.9010    5.1958 C.ar    1  LIG1       -0.0690
     14 C          -0.2383    1.0173   -1.4053 C.ar    1  LIG1       -0.0600
     15 C          -0.6135    1.9877   -0.4887 C.ar    1  LIG1       -0.0361
     16 C           1.0671    1.0449   -1.9097 C.ar    1  LIG1       -0.0688
     17 C           1.9480    2.0540   -1.4688 C.ar    1  LIG1       -0.0318
     18 C           2.3547    4.0564    3.6433 C.ar    1  LIG1        0.0489
     19 C           2.2404    5.3618   -0.8412 C.ar    1  LIG1       -0.0526
     20 C           1.6364    4.8074    6.2323 C.ar    1  LIG1       -0.0365
     21 C           1.4583    2.9776   -0.5432 C.ar    1  LIG1        0.0212
     22 C           2.7368    3.6563    2.2654 C.2     1  LIG1        0.1934
     23 C           2.3204    4.0825   -0.0194 C.3     1  LIG1        0.1163
     24 N           0.2016    2.9679   -0.0443 N.ar    1  LIG1       -0.3774
     25 O           3.5660    2.7926    2.0244 O.2     1  LIG1       -0.4435
     26 O           2.0383    4.3806    1.3587 O.3     1  LIG1       -0.3047
     27 I           1.1017    5.3665    8.1603 I       1  LIG1       -0.0893
     28 H           2.0385    8.6183   -2.9331 H       1  LIG1        0.1176
     29 H           3.1739   -0.5857   -4.0454 H       1  LIG1        0.1272
     30 H           4.7161    1.1906   -3.2667 H       1  LIG1        0.1251
     31 H           0.0134    7.2209   -2.6148 H       1  LIG1        0.1171
     32 H           4.1931    7.9308   -1.9123 H       1  LIG1        0.1169
     33 H           0.8645   -0.6911   -3.1956 H       1  LIG1        0.1314
     34 H           3.9641    2.8643   -1.6416 H       1  LIG1        0.1292
     35 H           4.2900    3.5988    4.4896 H       1  LIG1        0.1552
     36 H           0.3351    4.6024    3.1011 H       1  LIG1        0.1551
     37 H           0.1369    5.1425   -1.2808 H       1  LIG1        0.1201
     38 H           4.3269    5.8544   -0.5766 H       1  LIG1        0.1308
     39 H           3.6636    4.2574    6.7672 H       1  LIG1        0.1385
     40 H          -0.3014    5.2639    5.3751 H       1  LIG1        0.1399
     41 H          -0.9518    0.2606   -1.7168 H       1  LIG1        0.1354
     42 H          -1.6167    1.9999   -0.0752 H       1  LIG1        0.1951
     43 H           3.3760    3.7580   -0.0066 H       1  LIG1        0.1825
@<TRIPOS>BOND
     1     1     4   ar
     2     1     5   ar
     3     2     3   ar
     4     2     6   ar
     5     3     7   ar
     6     4    10   ar
     7     5    11   ar
     8     6    16   ar
     9     7    17   ar
    10     8    12   ar
    11     8    18   ar
    12     9    13   ar
    13     9    18   ar
    14    10    19   ar
    15    11    19   ar
    16    12    20   ar
    17    13    20   ar
    18    14    15   ar
    19    14    16   ar
    20    15    24   ar
    21    16    17   ar
    22    17    21   ar
    23    18    22    1
    24    19    23    1
    25    20    27    1
    26    21    23    1
    27    21    24   ar
    28    22    25    2
    29    22    26    1
    30    23    26    1
    31     1    28    1
    32     2    29    1
    33     3    30    1
    34     4    31    1
    35     5    32    1
    36     6    33    1
    37     7    34    1
    38     8    35    1
    39     9    36    1
    40    10    37    1
    41    11    38    1
    42    12    39    1
    43    13    40    1
    44    14    41    1
    45    15    42    1
    46    23    43    1
