@<TRIPOS>MOLECULE
AE-848/32614037
 42 45 0 0 0
SMALL
USER_CHARGES

@<TRIPOS>ATOM
      1 C           2.7667    7.6272   -2.3092 C.ar    1  LIG1       -0.1071
      2 C           0.5196    0.4324   -2.0135 C.ar    1  LIG1       -0.1035
      3 C           3.5180    6.4530   -2.3575 C.ar    1  LIG1       -0.1020
      4 C           1.5714    7.6615   -1.5909 C.ar    1  LIG1       -0.0988
      5 C           1.4901    1.2517   -2.5902 C.ar    1  LIG1       -0.0953
      6 C          -0.1527    0.8498   -0.8648 C.ar    1  LIG1       -0.0940
      7 C           2.4654    4.4702    6.0167 C.ar    1  LIG1       -0.0847
      8 C           3.5104    4.1559    5.1414 C.ar    1  LIG1       -0.0588
      9 C           3.0740    5.3129   -1.6877 C.ar    1  LIG1       -0.0678
     10 C           1.1274    6.5214   -0.9211 C.ar    1  LIG1       -0.0617
     11 C           1.7884    2.4884   -2.0181 C.ar    1  LIG1       -0.0592
     12 C           0.1458    2.0864   -0.2927 C.ar    1  LIG1       -0.0576
     13 C           0.8809    4.6774    4.1676 C.ar    1  LIG1       -0.0635
     14 C           1.9276    4.3662    3.3279 C.ar    1  LIG1        0.0231
     15 C           1.1648    4.7284    5.5348 C.ar    1  LIG1       -0.0994
     16 C           3.2144    4.1101    3.7953 C.ar    1  LIG1       -0.0292
     17 C           1.8787    5.3471   -0.9694 C.ar    1  LIG1       -0.0215
     18 C           1.1163    2.9057   -0.8692 C.ar    1  LIG1       -0.0149
     19 C           1.9932    4.2288    1.8854 C.2     1  LIG1        0.1558
     20 C           3.4181    3.8709    1.5265 C.2     1  LIG1        0.1813
     21 C           0.0768    5.0601    6.5021 C.3     1  LIG1       -0.0413
     22 N           1.0462    4.3742    1.0299 N.2     1  LIG1       -0.2535
     23 N           4.0835    3.8209    2.7389 N.am    1  LIG1       -0.2896
     24 N           1.4224    4.1764   -0.2812 N.pl3   1  LIG1       -0.2796
     25 O           3.7962    3.6874    0.3907 O.2     1  LIG1       -0.4316
     26 H           3.1125    8.5150   -2.8311 H       1  LIG1        0.1086
     27 H           0.2876   -0.5307   -2.4590 H       1  LIG1        0.1181
     28 H           4.4483    6.4265   -2.9168 H       1  LIG1        0.1233
     29 H           0.9866    8.5761   -1.5534 H       1  LIG1        0.1261
     30 H           2.0134    0.9266   -3.4843 H       1  LIG1        0.1230
     31 H          -0.9083    0.2116   -0.4158 H       1  LIG1        0.1237
     32 H           2.6657    4.5146    7.0850 H       1  LIG1        0.1407
     33 H           4.5084    3.9577    5.5152 H       1  LIG1        0.1340
     34 H           3.6666    4.4029   -1.7317 H       1  LIG1        0.1067
     35 H           0.1946    6.5600   -0.3643 H       1  LIG1        0.1241
     36 H           2.5464    3.1193   -2.4750 H       1  LIG1        0.1334
     37 H          -0.3847    2.4012    0.6025 H       1  LIG1        0.1351
     38 H          -0.1149    4.8735    3.7868 H       1  LIG1        0.1512
     39 H           0.0293    6.1432    6.6641 H       1  LIG1        0.0580
     40 H          -0.8988    4.7187    6.1343 H       1  LIG1        0.0557
     41 H           0.2426    4.5691    7.4692 H       1  LIG1        0.0555
     42 H           5.0672    3.6041    2.8465 H       1  LIG1        0.3373
@<TRIPOS>BOND
     1     1     3   ar
     2     1     4   ar
     3     2     5   ar
     4     2     6   ar
     5     3     9   ar
     6     4    10   ar
     7     5    11   ar
     8     6    12   ar
     9     7     8   ar
    10     7    15   ar
    11     8    16   ar
    12     9    17   ar
    13    10    17   ar
    14    11    18   ar
    15    12    18   ar
    16    13    14   ar
    17    13    15   ar
    18    14    16   ar
    19    14    19    1
    20    15    21    1
    21    16    23    1
    22    17    24    1
    23    18    24    1
    24    19    20    1
    25    19    22    2
    26    20    23   am
    27    20    25    2
    28    22    24    1
    29     1    26    1
    30     2    27    1
    31     3    28    1
    32     4    29    1
    33     5    30    1
    34     6    31    1
    35     7    32    1
    36     8    33    1
    37     9    34    1
    38    10    35    1
    39    11    36    1
    40    12    37    1
    41    13    38    1
    42    21    39    1
    43    21    40    1
    44    21    41    1
    45    23    42    1
