@<TRIPOS>MOLECULE
AF-399/15126026
 45 48 0 0 0
SMALL
USER_CHARGES

@<TRIPOS>ATOM
      1 C          -0.1822    0.9988   -1.6107 C.ar    1  LIG1       -0.1051
      2 C           2.0367    3.4226    6.1184 C.ar    1  LIG1       -0.0970
      3 C           0.9673    4.3081    6.2223 C.ar    1  LIG1       -0.1002
      4 C          -0.1987    1.4125   -0.2788 C.ar    1  LIG1       -0.1006
      5 C           0.9241    1.2765   -2.4137 C.ar    1  LIG1       -0.1064
      6 C           2.8878    3.4813    5.0152 C.ar    1  LIG1       -0.0793
      7 C           0.7497    5.2592    5.2252 C.ar    1  LIG1       -0.0964
      8 C           1.2236    5.5733   -1.4145 C.ar    1  LIG1       -0.0857
      9 C           3.2925    6.7039   -0.8865 C.ar    1  LIG1       -0.0898
     10 C           0.8910    2.1041    0.2502 C.ar    1  LIG1       -0.0904
     11 C           2.0139    1.9680   -1.8847 C.ar    1  LIG1       -0.0974
     12 C           1.0477    6.4099   -2.5166 C.ar    1  LIG1       -0.0698
     13 C           3.1166    7.5405   -1.9887 C.ar    1  LIG1       -0.0725
     14 C           2.6706    4.4348    4.0124 C.ar    1  LIG1       -0.0081
     15 C           1.6049    5.3417    4.1166 C.ar    1  LIG1       -0.0919
     16 C           2.3460    5.7204   -0.5993 C.ar    1  LIG1       -0.0883
     17 C           1.9973    2.3818   -0.5527 C.ar    1  LIG1       -0.0668
     18 C           1.9941    7.3935   -2.8037 C.ar    1  LIG1       -0.0153
     19 C           3.5753    4.4659    2.8327 C.2     1  LIG1        0.0877
     20 C           1.3305    6.3670    3.0510 C.3     1  LIG1       -0.0335
     21 C           2.5987    6.7193    2.2838 C.3     1  LIG1       -0.0304
     22 C           3.3053    5.4809    1.7338 C.3     1  LIG1        0.0481
     23 C           2.5386    4.8101    0.5978 C.3     1  LIG1        0.0241
     24 O           4.4904    3.6518    2.7345 O.2     1  LIG1       -0.4433
     25 S           3.3752    3.2571    0.1164 S.3     1  LIG1       -0.1829
     26 CL          1.7769    8.4253   -4.1635 Cl      1  LIG1       -0.1431
     27 H          -1.0311    0.4604   -2.0221 H       1  LIG1        0.1149
     28 H           2.2113    2.6887    6.8998 H       1  LIG1        0.1195
     29 H           0.3033    4.2596    7.0804 H       1  LIG1        0.1266
     30 H          -1.0601    1.1967    0.3466 H       1  LIG1        0.1227
     31 H           0.9363    0.9540   -3.4506 H       1  LIG1        0.1184
     32 H           3.7158    2.7797    4.9586 H       1  LIG1        0.1376
     33 H          -0.0964    5.9363    5.3161 H       1  LIG1        0.1203
     34 H           0.4817    4.8095   -1.1972 H       1  LIG1        0.1373
     35 H           4.1698    6.8248   -0.2565 H       1  LIG1        0.1292
     36 H           0.8597    2.4187    1.2905 H       1  LIG1        0.1238
     37 H           2.8669    2.1755   -2.5261 H       1  LIG1        0.1152
     38 H           0.1685    6.2834   -3.1429 H       1  LIG1        0.1349
     39 H           3.8623    8.3026   -2.2000 H       1  LIG1        0.1337
     40 H           0.5866    5.9844    2.3425 H       1  LIG1        0.0760
     41 H           0.9130    7.2635    3.5234 H       1  LIG1        0.0765
     42 H           2.3458    7.4059    1.4543 H       1  LIG1        0.0589
     43 H           3.2783    7.2814    2.9481 H       1  LIG1        0.0685
     44 H           4.3053    5.7712    1.3397 H       1  LIG1        0.1088
     45 H           1.5580    4.5147    0.9913 H       1  LIG1        0.1111
@<TRIPOS>BOND
     1     1     4   ar
     2     1     5   ar
     3     2     3   ar
     4     2     6   ar
     5     3     7   ar
     6     4    10   ar
     7     5    11   ar
     8     6    14   ar
     9     7    15   ar
    10     8    12   ar
    11     8    16   ar
    12     9    13   ar
    13     9    16   ar
    14    10    17   ar
    15    11    17   ar
    16    12    18   ar
    17    13    18   ar
    18    14    15   ar
    19    14    19    1
    20    15    20    1
    21    16    23    1
    22    17    25    1
    23    18    26    1
    24    19    22    1
    25    19    24    2
    26    20    21    1
    27    21    22    1
    28    22    23    1
    29    23    25    1
    30     1    27    1
    31     2    28    1
    32     3    29    1
    33     4    30    1
    34     5    31    1
    35     6    32    1
    36     7    33    1
    37     8    34    1
    38     9    35    1
    39    10    36    1
    40    11    37    1
    41    12    38    1
    42    13    39    1
    43    20    40    1
    44    20    41    1
    45    21    42    1
    46    21    43    1
    47    22    44    1
    48    23    45    1
