@<TRIPOS>MOLECULE
AQ-405/42300326
 41 44 0 0 0
SMALL
USER_CHARGES

@<TRIPOS>ATOM
      1 C           0.7284    1.1634   -2.3137 C.ar    1  LIG1       -0.0959
      2 C           2.2012    6.8226   -2.9028 C.ar    1  LIG1       -0.0955
      3 C          -0.3136    1.8790   -1.7240 C.ar    1  LIG1       -0.0931
      4 C           2.0216    1.2643   -1.8009 C.ar    1  LIG1       -0.0953
      5 C           3.3088    6.2108   -2.3159 C.ar    1  LIG1       -0.0922
      6 C           0.9741    6.8276   -2.2393 C.ar    1  LIG1       -0.0956
      7 C           1.7885    4.1662    5.8456 C.3     1  LIG1       -0.0527
      8 C          -0.0623    2.6958   -0.6215 C.ar    1  LIG1       -0.0860
      9 C           2.2730    2.0810   -0.6985 C.ar    1  LIG1       -0.0886
     10 C           3.1894    5.6039   -1.0656 C.ar    1  LIG1       -0.0853
     11 C           0.8548    6.2208   -0.9891 C.ar    1  LIG1       -0.0898
     12 C           1.5396    3.3620    4.7422 C.3     1  LIG1       -0.0253
     13 C           2.1326    5.4927    5.6557 C.3     1  LIG1       -0.0393
     14 C           1.3897    3.0988    2.3094 C.3     1  LIG1       -0.0067
     15 C           2.0772    5.7392    2.0327 C.3     1  LIG1        0.0242
     16 C           1.2310    2.7967   -0.1087 C.ar    1  LIG1       -0.0623
     17 C           1.9624    5.6089   -0.4021 C.ar    1  LIG1       -0.0615
     18 C           1.4919    3.6461    1.0382 C.3     1  LIG1       -0.0227
     19 C           1.8387    4.9780    0.8979 C.3     1  LIG1       -0.0084
     20 C           1.6359    3.8899    3.4439 C.3     1  LIG1        0.0207
     21 C           2.2212    5.9913    4.3645 C.3     1  LIG1       -0.0178
     22 C           2.6003    7.4352    4.2205 C.3     1  LIG1        0.0015
     23 N           1.9798    5.2137    3.2795 N.3     1  LIG1       -0.3379
     24 H           0.5321    0.5263   -3.1711 H       1  LIG1        0.1309
     25 H           2.2948    7.2965   -3.8754 H       1  LIG1        0.1313
     26 H          -1.3209    1.7992   -2.1221 H       1  LIG1        0.1264
     27 H           2.8331    0.7063   -2.2588 H       1  LIG1        0.1267
     28 H           4.2647    6.2082   -2.8315 H       1  LIG1        0.1275
     29 H           0.1116    7.3051   -2.6950 H       1  LIG1        0.1269
     30 H           1.7137    3.7569    6.8483 H       1  LIG1        0.1779
     31 H          -0.8853    3.2471   -0.1727 H       1  LIG1        0.1295
     32 H           3.2860    2.1493   -0.3093 H       1  LIG1        0.1279
     33 H           4.0622    5.1313   -0.6212 H       1  LIG1        0.1306
     34 H          -0.1079    6.2332   -0.4836 H       1  LIG1        0.1256
     35 H           1.2705    2.3201    4.8975 H       1  LIG1        0.1794
     36 H           2.3283    6.1270    6.5154 H       1  LIG1        0.1797
     37 H           1.1182    2.0513    2.4324 H       1  LIG1        0.1877
     38 H           2.3498    6.7862    1.9422 H       1  LIG1        0.2355
     39 H           3.6880    7.5308    4.1508 H       1  LIG1        0.0892
     40 H           2.1478    7.8698    3.3233 H       1  LIG1        0.0947
     41 H           2.2471    8.0186    5.0770 H       1  LIG1        0.0785
@<TRIPOS>BOND
     1     1     3   ar
     2     1     4   ar
     3     2     5   ar
     4     2     6   ar
     5     3     8   ar
     6     4     9   ar
     7     5    10   ar
     8     6    11   ar
     9     7    12    1
    10     7    13    1
    11     8    16   ar
    12     9    16   ar
    13    10    17   ar
    14    11    17   ar
    15    12    20    1
    16    13    21    1
    17    14    18    1
    18    14    20    1
    19    15    19    1
    20    15    23    1
    21    16    18    1
    22    17    19    1
    23    18    19    1
    24    20    23    1
    25    21    22    1
    26    21    23    1
    27     1    24    1
    28     2    25    1
    29     3    26    1
    30     4    27    1
    31     5    28    1
    32     6    29    1
    33     7    30    1
    34     8    31    1
    35     9    32    1
    36    10    33    1
    37    11    34    1
    38    12    35    1
    39    13    36    1
    40    14    37    1
    41    15    38    1
    42    22    39    1
    43    22    40    1
    44    22    41    1
