@<TRIPOS>MOLECULE
AG-205/13359041
 44 48 0 0 0
SMALL
USER_CHARGES

@<TRIPOS>ATOM
      1 C          -0.0879    1.0293   -2.7618 C.ar    1  LIG1       -0.0959
      2 C           1.5425    4.8684    6.6442 C.ar    1  LIG1       -0.0949
      3 C           1.7259    7.6744   -1.6828 C.ar    1  LIG1       -0.0813
      4 C           1.9084    6.5395   -2.4854 C.ar    1  LIG1       -0.0822
      5 C          -0.8536    1.8017   -1.8887 C.ar    1  LIG1       -0.0882
      6 C           1.2889    0.9161   -2.5682 C.ar    1  LIG1       -0.0866
      7 C           0.4885    4.9662    5.7357 C.ar    1  LIG1       -0.0876
      8 C           2.7958    4.4328    6.2141 C.ar    1  LIG1       -0.0853
      9 C           1.9178    7.5994   -0.3057 C.ar    1  LIG1       -0.0673
     10 C           2.2741    5.3124   -1.9187 C.ar    1  LIG1       -0.0709
     11 C          -0.2428    2.4612   -0.8220 C.ar    1  LIG1       -0.0577
     12 C           1.8998    1.5756   -1.5016 C.ar    1  LIG1       -0.0559
     13 C           0.6880    4.6284    4.3972 C.ar    1  LIG1       -0.0575
     14 C           2.9953    4.0950    4.8756 C.ar    1  LIG1       -0.0556
     15 C           2.2788    6.3717    0.2233 C.ar    1  LIG1        0.0258
     16 C           2.4452    5.2231   -0.5435 C.ar    1  LIG1       -0.0091
     17 C           1.1340    2.3481   -0.6286 C.ar    1  LIG1       -0.0178
     18 C           1.9414    4.1927    3.9671 C.ar    1  LIG1       -0.0176
     19 C           2.5794    6.0602    1.6088 C.2     1  LIG1        0.1726
     20 C           1.4603    2.8238    1.8540 C.2     1  LIG1        0.0219
     21 C           2.8233    4.0125    0.2811 C.3     1  LIG1        0.1348
     22 C           3.0265    4.6062    1.7124 C.3     1  LIG1        0.1970
     23 N           1.7597    3.0237    0.4645 N.am    1  LIG1       -0.2762
     24 N           2.1463    3.8454    2.5901 N.am    1  LIG1       -0.2647
     25 O           2.4821    6.8713    2.5121 O.2     1  LIG1       -0.4041
     26 O           4.0267    3.3872   -0.1479 O.3     1  LIG1       -0.4072
     27 O           4.3762    4.5284    2.1191 O.3     1  LIG1       -0.3974
     28 S           0.6273    1.5100    2.5054 S.2     1  LIG1       -0.2986
     29 H          -0.5632    0.5150   -3.5920 H       1  LIG1        0.1269
     30 H           1.3877    5.1321    7.6864 H       1  LIG1        0.1281
     31 H           1.4433    8.6182   -2.1406 H       1  LIG1        0.1381
     32 H           1.7644    6.6133   -3.5601 H       1  LIG1        0.1446
     33 H          -1.9257    1.8894   -2.0385 H       1  LIG1        0.1276
     34 H           1.8849    0.3138   -3.2478 H       1  LIG1        0.1276
     35 H          -0.4872    5.3061    6.0700 H       1  LIG1        0.1280
     36 H           3.6166    4.3577    6.9216 H       1  LIG1        0.1286
     37 H           1.7960    8.4772    0.3189 H       1  LIG1        0.1486
     38 H           2.4114    4.4432   -2.5543 H       1  LIG1        0.1366
     39 H          -0.8499    3.0603   -0.1479 H       1  LIG1        0.1365
     40 H           2.9736    1.4800   -1.3606 H       1  LIG1        0.1361
     41 H          -0.1408    4.7086    3.6982 H       1  LIG1        0.1371
     42 H           3.9765    3.7568    4.5517 H       1  LIG1        0.1349
     43 H           3.8888    3.1082   -1.0686 H       1  LIG1        0.3618
     44 H           4.4426    4.9595    2.9899 H       1  LIG1        0.3669
@<TRIPOS>BOND
     1     1     5   ar
     2     1     6   ar
     3     2     7   ar
     4     2     8   ar
     5     3     4   ar
     6     3     9   ar
     7     4    10   ar
     8     5    11   ar
     9     6    12   ar
    10     7    13   ar
    11     8    14   ar
    12     9    15   ar
    13    10    16   ar
    14    11    17   ar
    15    12    17   ar
    16    13    18   ar
    17    14    18   ar
    18    15    16   ar
    19    15    19    1
    20    16    21    1
    21    17    23    1
    22    18    24    1
    23    19    22    1
    24    19    25    2
    25    20    23    1
    26    20    24    1
    27    20    28    2
    28    21    22    1
    29    21    23    1
    30    21    26    1
    31    22    24    1
    32    22    27    1
    33     1    29    1
    34     2    30    1
    35     3    31    1
    36     4    32    1
    37     5    33    1
    38     6    34    1
    39     7    35    1
    40     8    36    1
    41     9    37    1
    42    10    38    1
    43    11    39    1
    44    12    40    1
    45    13    41    1
    46    14    42    1
    47    26    43    1
    48    27    44    1
