@<TRIPOS>MOLECULE
AE-848/08582021
 54 58 0 0 0
SMALL
USER_CHARGES

@<TRIPOS>ATOM
      1 C           1.5270    4.3246    6.5661 C.ar    1  LIG1       -0.1003
      2 C          -0.0157    1.0341   -1.6587 C.ar    1  LIG1       -0.1041
      3 C           2.8444    4.2082    6.1229 C.ar    1  LIG1       -0.0956
      4 C           0.4862    4.4208    5.6424 C.ar    1  LIG1       -0.0954
      5 C           1.3134    0.6133   -1.6142 C.ar    1  LIG1       -0.1028
      6 C          -0.3851    2.2419   -1.0667 C.ar    1  LIG1       -0.1028
      7 C           0.4199   10.9409   -7.0870 C.3     1  LIG1       -0.0483
      8 C           1.5145   11.6514   -7.5700 C.3     1  LIG1       -0.0328
      9 C           3.1211    4.1880    4.7559 C.ar    1  LIG1       -0.0767
     10 C           0.7629    4.4005    4.2755 C.ar    1  LIG1       -0.0754
     11 C           2.9212    6.3056   -2.9882 C.ar    1  LIG1       -0.0660
     12 C           1.2010    7.5184   -1.8019 C.ar    1  LIG1       -0.0631
     13 C           2.2731    1.4002   -0.9774 C.ar    1  LIG1       -0.0973
     14 C           0.5746    3.0288   -0.4300 C.ar    1  LIG1       -0.0978
     15 C           3.0980    5.4745   -1.8820 C.ar    1  LIG1       -0.0385
     16 C           1.3779    6.6872   -0.6957 C.ar    1  LIG1       -0.0350
     17 C           0.5346   10.2052   -5.9113 C.3     1  LIG1       -0.0054
     18 C           2.7057   11.6082   -6.8594 C.3     1  LIG1        0.0041
     19 C           2.0803    4.2841    3.8321 C.ar    1  LIG1       -0.0337
     20 C           1.9727    7.3277   -2.9481 C.ar    1  LIG1       -0.0219
     21 C           1.9038    2.6080   -0.3854 C.ar    1  LIG1       -0.0832
     22 C           2.3263    5.6652   -0.7359 C.ar    1  LIG1       -0.0092
     23 C           1.7505   10.1985   -5.2428 C.3     1  LIG1        0.0375
     24 C           2.3689    4.2630    2.4069 C.2     1  LIG1        0.0112
     25 C           1.7884    8.1942   -4.1013 C.2     1  LIG1        0.0004
     26 C           3.0526    3.0804    1.7774 C.3     1  LIG1        0.0347
     27 C           2.9313    3.4514    0.2969 C.3     1  LIG1        0.0245
     28 N           2.0962    5.2345    1.5939 N.2     1  LIG1       -0.3204
     29 N           1.9630    9.4864   -4.0501 N.2     1  LIG1       -0.3553
     30 N           2.7886   10.8917   -5.7300 N.3     1  LIG1       -0.3197
     31 N           2.5000    4.8489    0.3504 N.pl3   1  LIG1       -0.3143
     32 H           1.3116    4.3405    7.6305 H       1  LIG1        0.1250
     33 H          -0.7626    0.4220   -2.1557 H       1  LIG1        0.1198
     34 H           3.6546    4.1336    6.8423 H       1  LIG1        0.1234
     35 H          -0.5396    4.5111    5.9875 H       1  LIG1        0.1216
     36 H           1.6014   -0.3266   -2.0760 H       1  LIG1        0.1205
     37 H          -1.4196    2.5705   -1.1022 H       1  LIG1        0.1173
     38 H          -0.5229   10.9605   -7.6261 H       1  LIG1        0.1894
     39 H           1.4383   12.2288   -8.4849 H       1  LIG1        0.1711
     40 H           4.1513    4.0969    4.4215 H       1  LIG1        0.1316
     41 H          -0.0560    4.4762    3.5646 H       1  LIG1        0.1342
     42 H           3.5279    6.1480   -3.8763 H       1  LIG1        0.1526
     43 H           0.4591    8.3116   -1.7598 H       1  LIG1        0.1549
     44 H           3.3063    1.0643   -0.9475 H       1  LIG1        0.1216
     45 H           0.2776    3.9684    0.0286 H       1  LIG1        0.1151
     46 H           3.8400    4.6811   -1.9241 H       1  LIG1        0.1299
     47 H           0.7712    6.8446    0.1923 H       1  LIG1        0.1354
     48 H          -0.3166    9.6493   -5.5307 H       1  LIG1        0.1688
     49 H           3.6053   12.1276   -7.1593 H       1  LIG1        0.2538
     50 H           1.4837    7.7162   -5.0614 H       1  LIG1        0.2367
     51 H           4.0997    3.0767    2.0990 H       1  LIG1        0.1050
     52 H           2.5746    2.1373    2.0561 H       1  LIG1        0.1058
     53 H           3.8905    3.3416   -0.2198 H       1  LIG1        0.1406
     54 H           3.6715   10.8711   -5.2214 H       1  LIG1        0.4089
@<TRIPOS>BOND
     1     1     3   ar
     2     1     4   ar
     3     2     5   ar
     4     2     6   ar
     5     3     9   ar
     6     4    10   ar
     7     5    13   ar
     8     6    14   ar
     9     7     8    1
    10     7    17    1
    11     8    18    1
    12     9    19   ar
    13    10    19   ar
    14    11    15   ar
    15    11    20   ar
    16    12    16   ar
    17    12    20   ar
    18    13    21   ar
    19    14    21   ar
    20    15    22   ar
    21    16    22   ar
    22    17    23    1
    23    18    30    1
    24    19    24    1
    25    20    25    1
    26    21    27    1
    27    22    31    1
    28    23    29    1
    29    23    30    1
    30    24    26    1
    31    24    28    2
    32    25    29    2
    33    26    27    1
    34    27    31    1
    35    28    31    1
    36     1    32    1
    37     2    33    1
    38     3    34    1
    39     4    35    1
    40     5    36    1
    41     6    37    1
    42     7    38    1
    43     8    39    1
    44     9    40    1
    45    10    41    1
    46    11    42    1
    47    12    43    1
    48    13    44    1
    49    14    45    1
    50    15    46    1
    51    16    47    1
    52    17    48    1
    53    18    49    1
    54    25    50    1
    55    26    51    1
    56    26    52    1
    57    27    53    1
    58    30    54    1
