@<TRIPOS>MOLECULE
AG-690/37071298
 39 41 0 0 0
SMALL
USER_CHARGES

@<TRIPOS>ATOM
      1 C           1.8283    7.5730   -2.0619 C.ar    1  LIG1       -0.1047
      2 C           0.4336    4.7540    5.3224 C.ar    1  LIG1       -0.0996
      3 C           1.0793    7.2406   -0.9331 C.ar    1  LIG1       -0.1014
      4 C           2.8170    6.7041   -2.5235 C.ar    1  LIG1       -0.1031
      5 C           1.3052    4.4533    6.3691 C.ar    1  LIG1       -0.0999
      6 C           0.9175    4.8511    4.0177 C.ar    1  LIG1       -0.0635
      7 C           1.3190    6.0394   -0.2659 C.ar    1  LIG1       -0.0879
      8 C           3.0568    5.5028   -1.8563 C.ar    1  LIG1       -0.0913
      9 C           2.6608    4.2498    6.1110 C.ar    1  LIG1       -0.0704
     10 C           2.2731    4.6476    3.7598 C.ar    1  LIG1        0.0649
     11 C           2.3077    5.1704   -0.7275 C.ar    1  LIG1       -0.0517
     12 C           3.1448    4.3470    4.8064 C.ar    1  LIG1       -0.0628
     13 C           1.1047    2.2087    0.7138 C.2     1  LIG1       -0.0113
     14 C           2.7536    4.7580    2.3686 C.2     1  LIG1        0.1609
     15 C           1.7096    2.7247   -0.5572 C.3     1  LIG1        0.0522
     16 C           2.5697    3.8610   -0.0006 C.3     1  LIG1        0.0741
     17 C           0.2179    1.0088    0.7078 C.3     1  LIG1        0.0031
     18 N           1.3785    2.8732    1.7906 N.2     1  LIG1       -0.3188
     19 N           2.2090    3.8955    1.4267 N.am    1  LIG1       -0.2351
     20 N           4.5215    4.1391    4.5669 N.pl3   1  LIG1       -0.4096
     21 O           3.6106    5.6076    2.1315 O.2     1  LIG1       -0.4604
     22 O           3.9415    3.4765   -0.0825 O.3     1  LIG1       -0.4435
     23 H           1.6406    8.5077   -2.5821 H       1  LIG1        0.1193
     24 H          -0.6222    4.9119    5.5226 H       1  LIG1        0.1036
     25 H           0.3086    7.9165   -0.5743 H       1  LIG1        0.1196
     26 H           3.3996    6.9620   -3.4029 H       1  LIG1        0.1167
     27 H           0.9282    4.3784    7.3848 H       1  LIG1        0.1310
     28 H           0.2277    5.0874    3.2116 H       1  LIG1        0.1481
     29 H           0.7306    5.7888    0.6128 H       1  LIG1        0.1280
     30 H           3.8292    4.8320   -2.2230 H       1  LIG1        0.1161
     31 H           3.3301    4.0160    6.9349 H       1  LIG1        0.1122
     32 H           2.2893    1.9363   -1.0455 H       1  LIG1        0.1169
     33 H           0.8993    3.0591   -1.2131 H       1  LIG1        0.1200
     34 H           0.8138    0.1069    0.8495 H       1  LIG1        0.0886
     35 H          -0.3113    0.9432   -0.2435 H       1  LIG1        0.0856
     36 H          -0.5144    1.0851    1.5122 H       1  LIG1        0.0864
     37 H           5.1294    3.9734    5.3419 H       1  LIG1        0.2624
     38 H           4.8758    4.2551    3.6403 H       1  LIG1        0.2564
     39 H           4.4586    4.1885    0.3288 H       1  LIG1        0.3489
@<TRIPOS>BOND
     1     1     3   ar
     2     1     4   ar
     3     2     5   ar
     4     2     6   ar
     5     3     7   ar
     6     4     8   ar
     7     5     9   ar
     8     6    10   ar
     9     7    11   ar
    10     8    11   ar
    11     9    12   ar
    12    10    12   ar
    13    10    14    1
    14    11    16    1
    15    12    20    1
    16    13    15    1
    17    13    17    1
    18    13    18    2
    19    14    19   am
    20    14    21    2
    21    15    16    1
    22    16    19    1
    23    16    22    1
    24    18    19    1
    25     1    23    1
    26     2    24    1
    27     3    25    1
    28     4    26    1
    29     5    27    1
    30     6    28    1
    31     7    29    1
    32     8    30    1
    33     9    31    1
    34    15    32    1
    35    15    33    1
    36    17    34    1
    37    17    35    1
    38    17    36    1
    39    20    37    1
    40    20    38    1
    41    22    39    1
