@<TRIPOS>MOLECULE
AE-641/01983011
 42 44 0 0 0
SMALL
USER_CHARGES

@<TRIPOS>ATOM
      1 C           2.2372    7.9500   -1.7269 C.ar    1  LIG1       -0.1023
      2 C           3.3751    7.5999   -1.0002 C.ar    1  LIG1       -0.0991
      3 C           1.2862    6.9799   -2.0437 C.ar    1  LIG1       -0.0959
      4 C           1.0731    1.1110   -2.2877 C.ar    1  LIG1       -0.0883
      5 C           0.0190    0.8199   -1.4217 C.ar    1  LIG1       -0.0901
      6 C           3.5621    6.2798   -0.5903 C.ar    1  LIG1       -0.0766
      7 C           1.4732    5.6598   -1.6339 C.ar    1  LIG1       -0.0716
      8 C           1.9753    2.1268   -1.9715 C.ar    1  LIG1       -0.0634
      9 C          -0.1330    1.5448   -0.2398 C.ar    1  LIG1       -0.0651
     10 C           0.7077    4.5485    4.0290 C.ar    1  LIG1       -0.0627
     11 C           2.9205    3.6080    4.2646 C.ar    1  LIG1       -0.0654
     12 C           0.8118    5.1124    5.3005 C.ar    1  LIG1       -0.0538
     13 C           3.0248    4.1719    5.5361 C.ar    1  LIG1       -0.0620
     14 C           2.6111    5.3098   -0.9071 C.ar    1  LIG1        0.0128
     15 C           1.8232    2.8517   -0.7896 C.ar    1  LIG1        0.0419
     16 C           0.7690    2.5606    0.0763 C.ar    1  LIG1        0.0489
     17 C           1.7620    3.7963    3.5110 C.ar    1  LIG1       -0.0518
     18 C           1.9704    4.9241    6.0541 C.ar    1  LIG1       -0.0147
     19 C           2.8062    3.9334   -0.4797 C.2     1  LIG1        0.1249
     20 C           0.5836    3.2997    1.3184 C.2     1  LIG1        0.1244
     21 C           0.9570    6.2313    7.7629 C.3     1  LIG1        0.0221
     22 N           1.6561    3.2232    2.2186 N.am    1  LIG1       -0.3074
     23 O           3.8160    3.6168    0.1666 O.2     1  LIG1       -0.4378
     24 O          -0.4636    3.9140    1.5573 O.2     1  LIG1       -0.4584
     25 O           2.0722    5.4742    7.2949 O.3     1  LIG1       -0.4209
     26 H           2.0917    8.9778   -2.0461 H       1  LIG1        0.1229
     27 H           4.1156    8.3553   -0.7538 H       1  LIG1        0.1168
     28 H           0.4001    7.2525   -2.6095 H       1  LIG1        0.1191
     29 H           1.1916    0.5465   -3.2079 H       1  LIG1        0.1360
     30 H          -0.6834    0.0290   -1.6680 H       1  LIG1        0.1305
     31 H           4.4525    6.0180   -0.0244 H       1  LIG1        0.1266
     32 H           0.7256    4.9123   -1.8865 H       1  LIG1        0.1372
     33 H           2.7927    2.3444   -2.6544 H       1  LIG1        0.1372
     34 H          -0.9585    1.3088    0.4269 H       1  LIG1        0.1340
     35 H          -0.1999    4.7018    3.4504 H       1  LIG1        0.1366
     36 H           3.7485    3.0237    3.8711 H       1  LIG1        0.1434
     37 H          -0.0128    5.6974    5.6985 H       1  LIG1        0.1336
     38 H           3.9298    4.0216    6.1184 H       1  LIG1        0.1175
     39 H           1.1696    6.6132    8.7645 H       1  LIG1        0.0884
     40 H           0.0678    5.5963    7.7847 H       1  LIG1        0.0885
     41 H           0.7868    7.0702    7.0841 H       1  LIG1        0.1212
     42 H           2.4614    2.6877    1.9041 H       1  LIG1        0.3227
@<TRIPOS>BOND
     1     1     2   ar
     2     1     3   ar
     3     2     6   ar
     4     3     7   ar
     5     4     5   ar
     6     4     8   ar
     7     5     9   ar
     8     6    14   ar
     9     7    14   ar
    10     8    15   ar
    11     9    16   ar
    12    10    12   ar
    13    10    17   ar
    14    11    13   ar
    15    11    17   ar
    16    12    18   ar
    17    13    18   ar
    18    14    19    1
    19    15    16   ar
    20    15    19    1
    21    16    20    1
    22    17    22    1
    23    18    25    1
    24    19    23    2
    25    20    22   am
    26    20    24    2
    27    21    25    1
    28     1    26    1
    29     2    27    1
    30     3    28    1
    31     4    29    1
    32     5    30    1
    33     6    31    1
    34     7    32    1
    35     8    33    1
    36     9    34    1
    37    10    35    1
    38    11    36    1
    39    12    37    1
    40    13    38    1
    41    21    39    1
    42    21    40    1
    43    21    41    1
    44    22    42    1
