@<TRIPOS>MOLECULE
AE-848/12124244
 48 51 0 0 0
SMALL
USER_CHARGES

@<TRIPOS>ATOM
      1 C           1.7465    4.5585    6.3409 C.ar    1  LIG1       -0.1032
      2 C           0.0381    0.7599   -1.8709 C.ar    1  LIG1       -0.1097
      3 C           2.9084    5.0489    5.7450 C.ar    1  LIG1       -0.0984
      4 C           0.7039    4.0804    5.5472 C.ar    1  LIG1       -0.0991
      5 C           1.3564    0.4068   -1.5832 C.ar    1  LIG1       -0.1078
      6 C          -0.4169    2.0477   -1.5872 C.ar    1  LIG1       -0.1048
      7 C           2.3257    6.6268   -2.4653 C.ar    1  LIG1       -0.1012
      8 C           1.7949    7.5885   -1.6078 C.ar    1  LIG1       -0.0941
      9 C           3.0276    5.0613    4.3553 C.ar    1  LIG1       -0.0805
     10 C           0.8231    4.0928    4.1574 C.ar    1  LIG1       -0.0815
     11 C           2.2199    1.3413   -1.0117 C.ar    1  LIG1       -0.0984
     12 C           0.4466    2.9822   -1.0156 C.ar    1  LIG1       -0.0942
     13 C           2.6261    5.3515   -1.9848 C.ar    1  LIG1       -0.0925
     14 C           1.5703    7.2787   -0.2678 C.ar    1  LIG1       -0.0542
     15 C           1.9850    4.5833    3.5615 C.ar    1  LIG1       -0.0380
     16 C           1.7650    2.6291   -0.7278 C.ar    1  LIG1       -0.0882
     17 C           2.3958    5.0249   -0.6399 C.ar    1  LIG1       -0.0513
     18 C           1.8771    6.0037    0.2122 C.ar    1  LIG1        0.0207
     19 C           2.1086    4.5963    2.1131 C.2     1  LIG1        0.0260
     20 C           2.6248    3.5646    1.4086 C.2     1  LIG1       -0.0516
     21 C           2.6931    3.6347   -0.1128 C.3     1  LIG1        0.0023
     22 C           2.5939    0.0326    2.9798 C.3     1  LIG1       -0.0626
     23 C           2.0816    1.2890    2.2930 C.3     1  LIG1       -0.0420
     24 C           3.1788    2.3048    2.0279 C.3     1  LIG1       -0.0126
     25 O           1.6474    5.7748    1.5464 O.3     1  LIG1       -0.3579
     26 O           3.7360    2.7184    3.2626 O.3     1  LIG1       -0.4821
     27 H           1.6541    4.5475    7.4230 H       1  LIG1        0.1212
     28 H          -0.6337    0.0325   -2.3172 H       1  LIG1        0.1112
     29 H           3.7208    5.4201    6.3629 H       1  LIG1        0.1204
     30 H          -0.2003    3.6974    6.0110 H       1  LIG1        0.1210
     31 H           1.7112   -0.5955   -1.8051 H       1  LIG1        0.1115
     32 H          -1.4429    2.3232   -1.8121 H       1  LIG1        0.1140
     33 H           2.5041    6.8692   -3.5088 H       1  LIG1        0.1164
     34 H           1.5599    8.5803   -1.9829 H       1  LIG1        0.1298
     35 H           3.9394    5.4469    3.9053 H       1  LIG1        0.1291
     36 H           0.0016    3.7169    3.5522 H       1  LIG1        0.1282
     37 H           3.2455    1.0573   -0.7907 H       1  LIG1        0.1105
     38 H           0.0834    3.9831   -0.7979 H       1  LIG1        0.1192
     39 H           3.0371    4.6119   -2.6675 H       1  LIG1        0.1275
     40 H           1.1627    8.0352    0.3972 H       1  LIG1        0.1317
     41 H           3.7178    3.3831   -0.4159 H       1  LIG1        0.1119
     42 H           3.0655    0.2666    3.9393 H       1  LIG1        0.0320
     43 H           1.7657   -0.6568    3.1716 H       1  LIG1        0.0302
     44 H           3.3267   -0.4852    2.3527 H       1  LIG1        0.0386
     45 H           1.6175    1.0135    1.3379 H       1  LIG1        0.0579
     46 H           1.2808    1.7340    2.8971 H       1  LIG1        0.0585
     47 H           3.9650    1.9074    1.3867 H       1  LIG1        0.1110
     48 H           4.4267    3.3718    3.0590 H       1  LIG1        0.3248
@<TRIPOS>BOND
     1     1     3   ar
     2     1     4   ar
     3     2     5   ar
     4     2     6   ar
     5     3     9   ar
     6     4    10   ar
     7     5    11   ar
     8     6    12   ar
     9     7     8   ar
    10     7    13   ar
    11     8    14   ar
    12     9    15   ar
    13    10    15   ar
    14    11    16   ar
    15    12    16   ar
    16    13    17   ar
    17    14    18   ar
    18    15    19    1
    19    16    21    1
    20    17    18   ar
    21    17    21    1
    22    18    25    1
    23    19    20    2
    24    19    25    1
    25    20    21    1
    26    20    24    1
    27    22    23    1
    28    23    24    1
    29    24    26    1
    30     1    27    1
    31     2    28    1
    32     3    29    1
    33     4    30    1
    34     5    31    1
    35     6    32    1
    36     7    33    1
    37     8    34    1
    38     9    35    1
    39    10    36    1
    40    11    37    1
    41    12    38    1
    42    13    39    1
    43    14    40    1
    44    21    41    1
    45    22    42    1
    46    22    43    1
    47    22    44    1
    48    23    45    1
    49    23    46    1
    50    24    47    1
    51    26    48    1
