@<TRIPOS>MOLECULE
AE-848/12530640
 49 52 0 0 0
SMALL
USER_CHARGES

@<TRIPOS>ATOM
      1 C           2.2997    6.6369   -2.4890 C.ar    1  LIG1       -0.1015
      2 C           1.8681    7.6425   -1.6262 C.ar    1  LIG1       -0.0943
      3 C           1.4511    0.6062   -2.0608 C.ar    1  LIG1       -0.1040
      4 C           3.1025    4.3538    4.3744 C.ar    1  LIG1       -0.0691
      5 C           0.7438    4.8492    4.2066 C.ar    1  LIG1       -0.0797
      6 C           2.5441    5.3526   -2.0004 C.ar    1  LIG1       -0.0929
      7 C           2.2722    1.5715   -1.4783 C.ar    1  LIG1       -0.0964
      8 C           1.6862    7.3683   -0.2721 C.ar    1  LIG1       -0.0538
      9 C           0.0670    0.6812   -1.9044 C.ar    1  LIG1       -0.0756
     10 C           2.9941    4.3085    5.7643 C.ar    1  LIG1       -0.0524
     11 C           0.6354    4.8039    5.5965 C.ar    1  LIG1       -0.0656
     12 C           0.3252    2.6871   -0.5827 C.ar    1  LIG1       -0.0537
     13 C           1.9774    4.6243    3.5955 C.ar    1  LIG1       -0.0372
     14 C           1.7093    2.6120   -0.7392 C.ar    1  LIG1       -0.0845
     15 C           2.3537    5.0598   -0.6415 C.ar    1  LIG1       -0.0525
     16 C           1.9341    6.0839    0.2173 C.ar    1  LIG1        0.0202
     17 C           1.7605    4.5335    6.3753 C.ar    1  LIG1       -0.0117
     18 C          -0.4959    1.7217   -1.1653 C.ar    1  LIG1       -0.0168
     19 C           2.5036    3.6174    1.4007 C.2     1  LIG1       -0.0680
     20 C           2.0921    4.6723    2.1255 C.2     1  LIG1        0.0165
     21 C           2.6058    3.6654   -0.1029 C.3     1  LIG1       -0.0025
     22 C           1.1163    5.7093    9.7205 C.3     1  LIG1       -0.0346
     23 C          -2.3550    2.8849   -0.2454 C.3     1  LIG1        0.0224
     24 C           0.6585    5.3151    8.3324 C.3     1  LIG1        0.0141
     25 O           1.7511    5.8964    1.5682 O.3     1  LIG1       -0.3598
     26 O          -1.8466    1.7952   -1.0132 O.3     1  LIG1       -0.4201
     27 O           1.6547    4.4893    7.7316 O.3     1  LIG1       -0.4169
     28 H           2.4465    6.8525   -3.5433 H       1  LIG1        0.1157
     29 H           1.6768    8.6410   -2.0084 H       1  LIG1        0.1295
     30 H           1.8893   -0.2035   -2.6366 H       1  LIG1        0.1227
     31 H           4.0709    4.1762    3.9127 H       1  LIG1        0.1453
     32 H          -0.1423    5.0613    3.6129 H       1  LIG1        0.1376
     33 H           2.8833    4.5811   -2.6872 H       1  LIG1        0.1281
     34 H           3.3495    1.5045   -1.6052 H       1  LIG1        0.1109
     35 H           1.3579    8.1596    0.3964 H       1  LIG1        0.1320
     36 H          -0.5670   -0.0738   -2.3606 H       1  LIG1        0.1082
     37 H           3.8742    4.0974    6.3658 H       1  LIG1        0.1311
     38 H          -0.3282    4.9800    6.0668 H       1  LIG1        0.1150
     39 H          -0.1164    3.4970   -0.0068 H       1  LIG1        0.1287
     40 H           2.7721    2.6853    1.8936 H       1  LIG1        0.1119
     41 H           3.6530    3.3967   -0.3627 H       1  LIG1        0.1116
     42 H           1.2626    4.8261   10.3486 H       1  LIG1        0.0483
     43 H           2.0562    6.2688    9.6727 H       1  LIG1        0.0574
     44 H           0.3799    6.3642   10.1981 H       1  LIG1        0.0483
     45 H          -3.4452    2.8243   -0.2028 H       1  LIG1        0.0883
     46 H          -2.0495    3.8288   -0.7039 H       1  LIG1        0.1211
     47 H          -1.9493    2.8259    0.7674 H       1  LIG1        0.0883
     48 H           0.5140    6.2028    7.7095 H       1  LIG1        0.0953
     49 H          -0.2803    4.7554    8.3822 H       1  LIG1        0.0953
@<TRIPOS>BOND
     1     1     2   ar
     2     1     6   ar
     3     2     8   ar
     4     3     7   ar
     5     3     9   ar
     6     4    10   ar
     7     4    13   ar
     8     5    11   ar
     9     5    13   ar
    10     6    15   ar
    11     7    14   ar
    12     8    16   ar
    13     9    18   ar
    14    10    17   ar
    15    11    17   ar
    16    12    14   ar
    17    12    18   ar
    18    13    20    1
    19    14    21    1
    20    15    16   ar
    21    15    21    1
    22    16    25    1
    23    17    27    1
    24    18    26    1
    25    19    20    2
    26    19    21    1
    27    20    25    1
    28    22    24    1
    29    23    26    1
    30    24    27    1
    31     1    28    1
    32     2    29    1
    33     3    30    1
    34     4    31    1
    35     5    32    1
    36     6    33    1
    37     7    34    1
    38     8    35    1
    39     9    36    1
    40    10    37    1
    41    11    38    1
    42    12    39    1
    43    19    40    1
    44    21    41    1
    45    22    42    1
    46    22    43    1
    47    22    44    1
    48    23    45    1
    49    23    46    1
    50    23    47    1
    51    24    48    1
    52    24    49    1
