@<TRIPOS>MOLECULE
AE-641/11518859
 35 38 0 0 0
SMALL
USER_CHARGES

@<TRIPOS>ATOM
      1 C           1.8568    7.6453   -2.2752 C.ar    1  LIG1       -0.1087
      2 C           2.0151    4.4934    6.0920 C.ar    1  LIG1       -0.1056
      3 C           0.7573    6.8461   -1.9622 C.ar    1  LIG1       -0.1087
      4 C           3.1316    7.2767   -1.8456 C.ar    1  LIG1       -0.1025
      5 C           0.8900    5.2526    5.7779 C.ar    1  LIG1       -0.1030
      6 C           2.8001    3.9246    5.0826 C.ar    1  LIG1       -0.0918
      7 C           0.9325    5.6785   -1.2196 C.ar    1  LIG1       -0.1011
      8 C           3.3070    6.1091   -1.1030 C.ar    1  LIG1       -0.0908
      9 C           0.5136    5.4675    4.4492 C.ar    1  LIG1       -0.0775
     10 C           2.4423    4.1281    3.7348 C.ar    1  LIG1       -0.0706
     11 C           2.2074    5.3099   -0.7900 C.ar    1  LIG1       -0.1039
     12 C           2.9844    3.7161    2.4881 C.ar    1  LIG1       -0.0826
     13 C           1.3070    4.8947    3.4487 C.ar    1  LIG1       -0.0650
     14 C           2.1946    4.2477    1.4908 C.ar    1  LIG1       -0.0851
     15 C           4.1737    2.8838    2.1606 C.3     1  LIG1       -0.0553
     16 C           4.0911    2.3804    0.7039 C.3     1  LIG1       -0.1895
     17 C           2.3990    4.0390    0.0188 C.3     1  LIG1       -0.1373
     18 N           1.1717    4.9390    2.0769 N.ar    1  LIG1       -0.3653
     19 N           3.7454    3.4610   -0.2367 N.3     1  LIG1        0.3281
     20 H           1.7203    8.5537   -2.8547 H       1  LIG1        0.1145
     21 H           2.2880    4.3401    7.1328 H       1  LIG1        0.1055
     22 H          -0.2354    7.1323   -2.2976 H       1  LIG1        0.1136
     23 H           3.9881    7.8981   -2.0900 H       1  LIG1        0.1152
     24 H           0.2939    5.6843    6.5779 H       1  LIG1        0.1163
     25 H           3.6739    3.3340    5.3431 H       1  LIG1        0.1317
     26 H           0.0700    5.0621   -0.9803 H       1  LIG1        0.1131
     27 H           4.3039    5.8299   -0.7725 H       1  LIG1        0.1332
     28 H          -0.3637    6.0582    4.2072 H       1  LIG1        0.1235
     29 H           5.0791    3.4890    2.2919 H       1  LIG1        0.0772
     30 H           4.2429    2.0274    2.8401 H       1  LIG1        0.0750
     31 H           5.0558    1.9492    0.4151 H       1  LIG1        0.0591
     32 H           3.3490    1.5761    0.6198 H       1  LIG1        0.0253
     33 H           1.6455    3.3203   -0.3396 H       1  LIG1        0.0852
     34 H           0.4307    5.4197    1.5852 H       1  LIG1        0.3288
     35 H           4.4464    4.1977   -0.1415 H       1  LIG1       -0.0008
@<TRIPOS>BOND
     1     1     3   ar
     2     1     4   ar
     3     2     5   ar
     4     2     6   ar
     5     3     7   ar
     6     4     8   ar
     7     5     9   ar
     8     6    10   ar
     9     7    11   ar
    10     8    11   ar
    11     9    13   ar
    12    10    12   ar
    13    10    13   ar
    14    11    17    1
    15    12    14   ar
    16    12    15    1
    17    13    18   ar
    18    14    17    1
    19    14    18   ar
    20    15    16    1
    21    16    19    1
    22    17    19    1
    23     1    20    1
    24     2    21    1
    25     3    22    1
    26     4    23    1
    27     5    24    1
    28     6    25    1
    29     7    26    1
    30     8    27    1
    31     9    28    1
    32    15    29    1
    33    15    30    1
    34    16    31    1
    35    16    32    1
    36    17    33    1
    37    18    34    1
    38    19    35    1
