@<TRIPOS>MOLECULE
AN-212/13751240
 50 52 0 0 0
SMALL
USER_CHARGES

@<TRIPOS>ATOM
      1 C           1.8179    4.3696    2.5877 C.1     1  LIG1       -0.1965
      2 C           2.0910    4.1767    1.4336 C.1     1  LIG1       -0.1152
      3 C           0.1955    0.7210   -1.7985 C.ar    1  LIG1       -0.1027
      4 C           1.9801    7.5684   -2.2986 C.ar    1  LIG1       -0.1021
      5 C          -0.3726    1.4795   -0.7750 C.ar    1  LIG1       -0.1035
      6 C           1.4894    1.0009   -2.2384 C.ar    1  LIG1       -0.0964
      7 C           0.8833    7.0183   -1.6353 C.ar    1  LIG1       -0.1037
      8 C           3.2271    6.9486   -2.2173 C.ar    1  LIG1       -0.0987
      9 C           0.3531    2.5180   -0.1914 C.ar    1  LIG1       -0.0898
     10 C           2.2149    2.0395   -1.6547 C.ar    1  LIG1       -0.0785
     11 C           1.0335    5.8487   -0.8904 C.ar    1  LIG1       -0.0951
     12 C           3.3773    5.7790   -1.4723 C.ar    1  LIG1       -0.0872
     13 C           1.6468    2.7980   -0.6313 C.ar    1  LIG1       -0.0398
     14 C           2.2805    5.2290   -0.8089 C.ar    1  LIG1       -0.0490
     15 C          -0.5004    4.6905    5.6423 C.3     1  LIG1       -0.0600
     16 C           0.1396    3.5895    6.4772 C.3     1  LIG1       -0.0714
     17 C          -0.0517    4.6281    4.1843 C.3     1  LIG1       -0.0509
     18 C           1.6545    3.5797    6.3471 C.3     1  LIG1       -0.0978
     19 C           1.4786    4.6074    4.0076 C.3     1  LIG1       -0.0785
     20 C           2.1246    5.9445    4.4176 C.3     1  LIG1       -0.0435
     21 C           1.8955    2.0792    4.3578 C.3     1  LIG1       -0.0834
     22 C           2.4465    3.9419    0.0108 C.3     1  LIG1        0.0838
     23 N           2.0740    3.4878    4.8908 N.4     1  LIG1        0.4042
     24 O           3.8362    3.5746    0.0364 O.3     1  LIG1       -0.4308
     25 H          -0.3691   -0.0886   -2.2518 H       1  LIG1        0.1227
     26 H           1.8627    8.4784   -2.8797 H       1  LIG1        0.1233
     27 H          -1.3794    1.2609   -0.4316 H       1  LIG1        0.1181
     28 H           1.9324    0.4099   -3.0344 H       1  LIG1        0.1239
     29 H          -0.0880    7.5002   -1.6995 H       1  LIG1        0.1184
     30 H           4.0810    7.3760   -2.7345 H       1  LIG1        0.1249
     31 H          -0.0977    3.1039    0.6053 H       1  LIG1        0.1099
     32 H           3.2222    2.2504   -2.0041 H       1  LIG1        0.1374
     33 H           0.1733    5.4274   -0.3766 H       1  LIG1        0.1088
     34 H           4.3526    5.3031   -1.4145 H       1  LIG1        0.1307
     35 H          -1.5957    4.6122    5.7035 H       1  LIG1        0.0630
     36 H          -0.2382    5.6706    6.0652 H       1  LIG1        0.0515
     37 H          -0.1386    3.7218    7.5319 H       1  LIG1        0.0592
     38 H          -0.2604    2.6156    6.1677 H       1  LIG1        0.0751
     39 H          -0.5023    3.7415    3.7169 H       1  LIG1        0.0763
     40 H          -0.4717    5.4982    3.6596 H       1  LIG1        0.0864
     41 H           2.0705    4.5144    6.7490 H       1  LIG1        0.0909
     42 H           2.1089    2.7348    6.8842 H       1  LIG1        0.0859
     43 H           1.8944    6.1504    5.4581 H       1  LIG1        0.0777
     44 H           1.7305    6.7399    3.7929 H       1  LIG1        0.0660
     45 H           3.2001    5.8782    4.2883 H       1  LIG1        0.0626
     46 H           0.8261    1.8607    4.3436 H       1  LIG1        0.0831
     47 H           2.3163    2.0470    3.3510 H       1  LIG1        0.0826
     48 H           2.4261    1.3990    5.0269 H       1  LIG1        0.0776
     49 H           3.0989    3.6484    4.8855 H       1  LIG1        0.1787
     50 H           3.8884    2.7775    0.5799 H       1  LIG1        0.3515
@<TRIPOS>BOND
     1     1     2    3
     2     1    19    1
     3     2    22    1
     4     3     5   ar
     5     3     6   ar
     6     4     7   ar
     7     4     8   ar
     8     5     9   ar
     9     6    10   ar
    10     7    11   ar
    11     8    12   ar
    12     9    13   ar
    13    10    13   ar
    14    11    14   ar
    15    12    14   ar
    16    13    22    1
    17    14    22    1
    18    15    16    1
    19    15    17    1
    20    16    18    1
    21    17    19    1
    22    18    23    1
    23    19    20    1
    24    19    23    1
    25    21    23    1
    26    22    24    1
    27     3    25    1
    28     4    26    1
    29     5    27    1
    30     6    28    1
    31     7    29    1
    32     8    30    1
    33     9    31    1
    34    10    32    1
    35    11    33    1
    36    12    34    1
    37    15    35    1
    38    15    36    1
    39    16    37    1
    40    16    38    1
    41    17    39    1
    42    17    40    1
    43    18    41    1
    44    18    42    1
    45    20    43    1
    46    20    44    1
    47    20    45    1
    48    21    46    1
    49    21    47    1
    50    21    48    1
    51    23    49    1
    52    24    50    1
