@<TRIPOS>MOLECULE
AO-081/41195320
 37 40 0 0 0
SMALL
USER_CHARGES

@<TRIPOS>ATOM
      1 C           1.4936    0.4314   -0.9731 C.ar    1  LIG1       -0.0842
      2 C           3.3021    7.2819   -1.4947 C.ar    1  LIG1       -0.0895
      3 C           0.3063    0.5906   -1.6717 C.ar    1  LIG1       -0.0912
      4 C           2.1587    7.6397   -2.1951 C.ar    1  LIG1       -0.0884
      5 C           1.5578    3.9995    6.1798 C.ar    1  LIG1       -0.0965
      6 C           2.1423    1.5439   -0.4273 C.ar    1  LIG1       -0.0485
      7 C           3.3325    6.0855   -0.7752 C.ar    1  LIG1       -0.0626
      8 C          -0.2267    1.8644   -1.8319 C.ar    1  LIG1       -0.0744
      9 C           1.0537    6.7931   -2.1874 C.ar    1  LIG1       -0.0705
     10 C           2.8557    4.0909    5.6229 C.ar    1  LIG1       -0.0915
     11 C           0.7053    4.5567    5.2554 C.ar    1  LIG1       -0.0025
     12 C           1.6230    2.8452   -0.5643 C.ar    1  LIG1       -0.0017
     13 C           2.2166    5.2246   -0.7279 C.ar    1  LIG1       -0.0114
     14 C           0.4252    2.9863   -1.2920 C.ar    1  LIG1       -0.0052
     15 C           1.0830    5.5850   -1.4721 C.ar    1  LIG1       -0.0060
     16 C           2.7039    4.6974    4.3976 C.ar    1  LIG1        0.0043
     17 C           3.0438    3.8673    1.2312 C.2     1  LIG1        0.1594
     18 C           3.6711    5.0844    3.3166 C.3     1  LIG1        0.0304
     19 N           2.2949    3.9884    0.0198 N.am    1  LIG1       -0.2552
     20 N           3.0651    5.0345    2.0053 N.am    1  LIG1       -0.3052
     21 O           3.5535    2.8292    1.6594 O.2     1  LIG1       -0.4580
     22 O           1.3960    4.9845    4.1660 O.2     1  LIG1       -0.3851
     23 S          -0.3650    4.5636   -1.5086 S.3     1  LIG1       -0.1270
     24 H           1.9257   -0.5598   -0.8539 H       1  LIG1        0.1320
     25 H           4.1698    7.9348   -1.5022 H       1  LIG1        0.1357
     26 H          -0.1960   -0.2718   -2.1011 H       1  LIG1        0.1281
     27 H           2.1195    8.5850   -2.7315 H       1  LIG1        0.1315
     28 H           1.2787    3.5804    7.1356 H       1  LIG1        0.1153
     29 H           3.0760    1.3450    0.0857 H       1  LIG1        0.1519
     30 H           4.2558    5.8699   -0.2567 H       1  LIG1        0.1323
     31 H          -1.1520    1.9664   -2.3890 H       1  LIG1        0.1398
     32 H           0.1703    7.1019   -2.7364 H       1  LIG1        0.1457
     33 H           3.7844    3.7561    6.0626 H       1  LIG1        0.1232
     34 H          -0.3625    4.7159    5.2241 H       1  LIG1        0.2203
     35 H           4.0433    6.1021    3.4777 H       1  LIG1        0.1537
     36 H           4.5399    4.4178    3.3094 H       1  LIG1        0.1414
     37 H           2.6992    5.8911    1.6079 H       1  LIG1        0.3098
@<TRIPOS>BOND
     1     1     3   ar
     2     1     6   ar
     3     2     4   ar
     4     2     7   ar
     5     3     8   ar
     6     4     9   ar
     7     5    10   ar
     8     5    11   ar
     9     6    12   ar
    10     7    13   ar
    11     8    14   ar
    12     9    15   ar
    13    10    16   ar
    14    11    22   ar
    15    12    14   ar
    16    12    19    1
    17    13    15   ar
    18    13    19    1
    19    14    23    1
    20    15    23    1
    21    16    18    1
    22    16    22   ar
    23    17    19   am
    24    17    20   am
    25    17    21    2
    26    18    20    1
    27     1    24    1
    28     2    25    1
    29     3    26    1
    30     4    27    1
    31     5    28    1
    32     6    29    1
    33     7    30    1
    34     8    31    1
    35     9    32    1
    36    10    33    1
    37    11    34    1
    38    18    35    1
    39    18    36    1
    40    20    37    1
