@<TRIPOS>MOLECULE
AH-357/04340033
 36 38 0 0 0
SMALL
USER_CHARGES

@<TRIPOS>ATOM
      1 C           1.0642    4.5041    6.3835 C.ar    1  LIG1       -0.1008
      2 C           0.5511    4.9111    5.1520 C.ar    1  LIG1       -0.0992
      3 C           2.3641    4.0050    6.4669 C.ar    1  LIG1       -0.0962
      4 C           3.0146    7.2869   -2.2693 C.ar    1  LIG1       -0.0932
      5 C           1.6928    7.1706   -2.7312 C.ar    1  LIG1       -0.0909
      6 C           1.3377    4.8187    4.0038 C.ar    1  LIG1       -0.0846
      7 C           3.1507    3.9127    5.3187 C.ar    1  LIG1       -0.0802
      8 C           3.4814    6.4784   -1.2298 C.ar    1  LIG1       -0.0775
      9 C           0.8164    6.2440   -2.1622 C.ar    1  LIG1       -0.0632
     10 C           2.6375    4.3195    4.0871 C.ar    1  LIG1       -0.0137
     11 C           2.6072    5.5628   -0.6687 C.ar    1  LIG1       -0.0159
     12 C           1.2957    5.4516   -1.1333 C.ar    1  LIG1       -0.0319
     13 C           1.4661    3.8773    0.5566 C.2     1  LIG1        0.1509
     14 C           3.4683    4.2221    2.8744 C.2     1  LIG1        0.0865
     15 C           2.8340    4.5802    0.4440 C.3     1  LIG1        0.1295
     16 C          -0.7493    4.0787   -0.6206 C.3     1  LIG1       -0.0031
     17 C           3.2274    5.2359    1.7597 C.3     1  LIG1        0.0877
     18 N           0.6272    4.4574   -0.4062 N.am    1  LIG1       -0.3145
     19 O           1.2035    2.9741    1.3376 O.2     1  LIG1       -0.4353
     20 O           4.3362    3.3572    2.7404 O.2     1  LIG1       -0.4491
     21 O           3.7965    3.6211    0.0509 O.3     1  LIG1       -0.4421
     22 H           0.4517    4.5760    7.2775 H       1  LIG1        0.1266
     23 H          -0.4611    5.2994    5.0872 H       1  LIG1        0.1202
     24 H           2.7637    3.6885    7.4258 H       1  LIG1        0.1211
     25 H           3.6800    8.0141   -2.7267 H       1  LIG1        0.1212
     26 H           1.3504    7.8093   -3.5412 H       1  LIG1        0.1339
     27 H           0.9278    5.1386    3.0492 H       1  LIG1        0.1310
     28 H           4.1622    3.5221    5.3955 H       1  LIG1        0.1387
     29 H           4.5029    6.5706   -0.8774 H       1  LIG1        0.1403
     30 H          -0.2014    6.1606   -2.5262 H       1  LIG1        0.1270
     31 H          -0.8073    3.2771   -1.3616 H       1  LIG1        0.0954
     32 H          -1.3248    4.9349   -0.9826 H       1  LIG1        0.1068
     33 H          -1.1945    3.7269    0.3139 H       1  LIG1        0.1046
     34 H           2.4234    5.9131    2.0663 H       1  LIG1        0.1100
     35 H           4.1453    5.8117    1.6022 H       1  LIG1        0.1120
     36 H           3.9118    3.0079    0.7973 H       1  LIG1        0.3480
@<TRIPOS>BOND
     1     1     2   ar
     2     1     3   ar
     3     2     6   ar
     4     3     7   ar
     5     4     5   ar
     6     4     8   ar
     7     5     9   ar
     8     6    10   ar
     9     7    10   ar
    10     8    11   ar
    11     9    12   ar
    12    10    14    1
    13    11    12   ar
    14    11    15    1
    15    12    18    1
    16    13    15    1
    17    13    18   am
    18    13    19    2
    19    14    17    1
    20    14    20    2
    21    15    17    1
    22    15    21    1
    23    16    18    1
    24     1    22    1
    25     2    23    1
    26     3    24    1
    27     4    25    1
    28     5    26    1
    29     6    27    1
    30     7    28    1
    31     8    29    1
    32     9    30    1
    33    16    31    1
    34    16    32    1
    35    16    33    1
    36    17    34    1
    37    17    35    1
    38    21    36    1
