@<TRIPOS>MOLECULE
AK-968/12116499
 38 41 0 0 0
SMALL
USER_CHARGES

@<TRIPOS>ATOM
      1 C           1.2202    0.3974   -0.8777 C.ar    1  LIG1       -0.0968
      2 C           3.0682    7.4720   -1.3970 C.ar    1  LIG1       -0.0997
      3 C          -0.0491    0.7808   -1.3051 C.ar    1  LIG1       -0.0903
      4 C           1.7583    7.7005   -1.8123 C.ar    1  LIG1       -0.0893
      5 C           2.1917    1.3652   -0.6193 C.ar    1  LIG1       -0.0875
      6 C           3.4546    6.1995   -0.9744 C.ar    1  LIG1       -0.0956
      7 C           0.7457    4.6441    3.6786 C.ar    1  LIG1       -0.0530
      8 C          -0.3467    2.1314   -1.4788 C.ar    1  LIG1       -0.0502
      9 C           0.8352    6.6562   -1.8102 C.ar    1  LIG1       -0.0486
     10 C           0.6256    4.7763    5.0620 C.ar    1  LIG1       -0.0643
     11 C           3.0767    4.0635    3.9364 C.ar    1  LIG1       -0.0321
     12 C           1.9029    2.7277   -0.7872 C.ar    1  LIG1       -0.0281
     13 C           2.5334    5.1414   -0.9640 C.ar    1  LIG1       -0.0354
     14 C           1.9712    4.2876    3.1159 C.ar    1  LIG1       -0.0371
     15 C           0.6282    3.1007   -1.2261 C.ar    1  LIG1        0.0252
     16 C           1.2234    5.3800   -1.3928 C.ar    1  LIG1        0.0227
     17 C           1.7310    4.5523    5.8826 C.ar    1  LIG1       -0.0158
     18 C           2.9567    4.1958    5.3199 C.ar    1  LIG1       -0.0057
     19 C           3.2279    3.8080    0.9911 C.2     1  LIG1        0.1121
     20 C           2.9431    3.7740   -0.4824 C.3     1  LIG1        0.0937
     21 N           2.0923    4.1539    1.7124 N.am    1  LIG1       -0.3057
     22 O           4.3470    3.5470    1.4207 O.2     1  LIG1       -0.4617
     23 O           0.2527    4.4069   -1.4351 O.3     1  LIG1       -0.3558
     24 BR          1.4730    4.7551    7.7548 Br      1  LIG1       -0.0924
     25 BR          4.5153    3.8715    6.3586 Br      1  LIG1       -0.0808
     26 H           1.4534   -0.6549   -0.7434 H       1  LIG1        0.1196
     27 H           3.7885    8.2848   -1.3997 H       1  LIG1        0.1213
     28 H          -0.8059    0.0279   -1.5045 H       1  LIG1        0.1342
     29 H           1.4570    8.6913   -2.1392 H       1  LIG1        0.1362
     30 H           3.1764    1.0506   -0.2820 H       1  LIG1        0.1308
     31 H           4.4792    6.0381   -0.6486 H       1  LIG1        0.1250
     32 H          -0.1226    4.8211    3.0488 H       1  LIG1        0.1427
     33 H          -1.3379    2.4223   -1.8164 H       1  LIG1        0.1350
     34 H          -0.1840    6.8417   -2.1394 H       1  LIG1        0.1378
     35 H          -0.3385    5.0551    5.4799 H       1  LIG1        0.1504
     36 H           4.0283    3.7858    3.4877 H       1  LIG1        0.1639
     37 H           3.8680    3.4937   -1.0036 H       1  LIG1        0.1504
     38 H           1.2421    4.3339    1.1824 H       1  LIG1        0.3249
@<TRIPOS>BOND
     1     1     3   ar
     2     1     5   ar
     3     2     4   ar
     4     2     6   ar
     5     3     8   ar
     6     4     9   ar
     7     5    12   ar
     8     6    13   ar
     9     7    10   ar
    10     7    14   ar
    11     8    15   ar
    12     9    16   ar
    13    10    17   ar
    14    11    14   ar
    15    11    18   ar
    16    12    15   ar
    17    12    20    1
    18    13    16   ar
    19    13    20    1
    20    14    21    1
    21    15    23    1
    22    16    23    1
    23    17    18   ar
    24    17    24    1
    25    18    25    1
    26    19    20    1
    27    19    21   am
    28    19    22    2
    29     1    26    1
    30     2    27    1
    31     3    28    1
    32     4    29    1
    33     5    30    1
    34     6    31    1
    35     7    32    1
    36     8    33    1
    37     9    34    1
    38    10    35    1
    39    11    36    1
    40    20    37    1
    41    21    38    1
