@<TRIPOS>MOLECULE
AM-814/41093582
 39 42 0 0 0
SMALL
USER_CHARGES

@<TRIPOS>ATOM
      1 C          -0.1533    0.9091   -1.0783 C.ar    1  LIG1       -0.1018
      2 C           1.6437    7.6780   -1.5269 C.ar    1  LIG1       -0.0982
      3 C           0.7136    0.9335   -2.1654 C.ar    1  LIG1       -0.1032
      4 C           2.3564    7.0869   -2.5645 C.ar    1  LIG1       -0.0994
      5 C           0.0643    1.7583    0.0077 C.ar    1  LIG1       -0.0898
      6 C           1.4188    6.9721   -0.3456 C.ar    1  LIG1       -0.0794
      7 C           2.9178    3.9386    4.0917 C.ar    1  LIG1       -0.0770
      8 C           1.7946    1.8126   -2.1714 C.ar    1  LIG1       -0.0952
      9 C           2.8463    5.7890   -2.4209 C.ar    1  LIG1       -0.0915
     10 C           3.1285    4.6664    5.2628 C.ar    1  LIG1       -0.0596
     11 C           0.5336    4.2515    4.3262 C.ar    1  LIG1       -0.0492
     12 C           1.1572    2.6429    0.0248 C.ar    1  LIG1       -0.0587
     13 C           1.9002    5.6618   -0.1955 C.ar    1  LIG1        0.0081
     14 C           1.6203    3.7311    3.6234 C.ar    1  LIG1       -0.0660
     15 C           2.0240    2.6701   -1.0836 C.ar    1  LIG1       -0.0835
     16 C           2.6309    5.0634   -1.2370 C.ar    1  LIG1       -0.0737
     17 C           2.0418    5.1867    5.9656 C.ar    1  LIG1        0.0195
     18 C           0.7443    4.9792    5.4974 C.ar    1  LIG1        0.0227
     19 C           1.3899    3.5217    1.1906 C.2     1  LIG1        0.0230
     20 C           1.6546    4.9987    1.1110 C.2     1  LIG1        0.1181
     21 C           1.4059    2.9857    2.4242 C.2     1  LIG1       -0.0506
     22 C           3.1611    3.6572   -1.1339 C.3     1  LIG1       -0.0033
     23 O           1.6583    5.7049    2.1180 O.2     1  LIG1       -0.4351
     24 CL          2.3676    6.0783    7.4103 Cl      1  LIG1       -0.1217
     25 CL         -0.6422    5.5977    6.3246 Cl      1  LIG1       -0.1213
     26 H          -0.9993    0.2279   -1.0728 H       1  LIG1        0.1209
     27 H           1.2615    8.6886   -1.6364 H       1  LIG1        0.1232
     28 H           0.5539    0.2628   -3.0043 H       1  LIG1        0.1214
     29 H           2.5318    7.6346   -3.4855 H       1  LIG1        0.1281
     30 H          -0.6315    1.7172    0.8432 H       1  LIG1        0.1231
     31 H           0.8704    7.4629    0.4549 H       1  LIG1        0.1288
     32 H           3.7753    3.5395    3.5550 H       1  LIG1        0.1358
     33 H           2.4648    1.8183   -3.0274 H       1  LIG1        0.1191
     34 H           3.4030    5.3460   -3.2434 H       1  LIG1        0.1201
     35 H           4.1464    4.8184    5.6132 H       1  LIG1        0.1457
     36 H          -0.4778    4.0889    3.9585 H       1  LIG1        0.1531
     37 H           1.2725    1.9113    2.4978 H       1  LIG1        0.1566
     38 H           3.7946    3.5502   -0.2441 H       1  LIG1        0.0947
     39 H           3.8248    3.4388   -1.9804 H       1  LIG1        0.0963
@<TRIPOS>BOND
     1     1     3   ar
     2     1     5   ar
     3     2     4   ar
     4     2     6   ar
     5     3     8   ar
     6     4     9   ar
     7     5    12   ar
     8     6    13   ar
     9     7    10   ar
    10     7    14   ar
    11     8    15   ar
    12     9    16   ar
    13    10    17   ar
    14    11    14   ar
    15    11    18   ar
    16    12    15   ar
    17    12    19    1
    18    13    16   ar
    19    13    20    1
    20    14    21    1
    21    15    22    1
    22    16    22    1
    23    17    18   ar
    24    17    24    1
    25    18    25    1
    26    19    20    1
    27    19    21    2
    28    20    23    2
    29     1    26    1
    30     2    27    1
    31     3    28    1
    32     4    29    1
    33     5    30    1
    34     6    31    1
    35     7    32    1
    36     8    33    1
    37     9    34    1
    38    10    35    1
    39    11    36    1
    40    21    37    1
    41    22    38    1
    42    22    39    1
