@<TRIPOS>MOLECULE
AE-848/30690019
 33 35 0 0 0
SMALL
USER_CHARGES

@<TRIPOS>ATOM
      1 C           1.6946    7.1776   -2.7484 C.ar    1  LIG1       -0.1035
      2 C           1.6311    4.3373    6.2601 C.ar    1  LIG1       -0.1052
      3 C           3.0155    6.7314   -2.7075 C.ar    1  LIG1       -0.1026
      4 C           0.7373    6.6001   -1.9142 C.ar    1  LIG1       -0.1009
      5 C           2.8520    3.8966    5.7497 C.ar    1  LIG1       -0.0978
      6 C           0.5788    4.6335    5.3937 C.ar    1  LIG1       -0.0960
      7 C           3.3792    5.7079   -1.8325 C.ar    1  LIG1       -0.0986
      8 C           1.1009    5.5766   -1.0391 C.ar    1  LIG1       -0.0946
      9 C           3.0209    3.7523    4.3726 C.ar    1  LIG1       -0.0591
     10 C           0.7477    4.4892    4.0166 C.ar    1  LIG1       -0.0580
     11 C           2.4219    5.1304   -0.9982 C.ar    1  LIG1       -0.0705
     12 C           1.9687    4.0486    3.5061 C.ar    1  LIG1       -0.0082
     13 C           1.6856    3.0814    0.2016 C.2     1  LIG1        0.0125
     14 C           3.0737    4.5653    1.3259 C.2     1  LIG1        0.1569
     15 C           2.8090    4.0389   -0.0652 C.3     1  LIG1        0.1227
     16 C           1.0632    2.2543   -0.8714 C.3     1  LIG1        0.0092
     17 N           1.3278    3.0315    1.4455 N.2     1  LIG1       -0.3059
     18 N           2.1366    3.9050    2.1381 N.am    1  LIG1       -0.2339
     19 O           3.9139    5.3916    1.6416 O.2     1  LIG1       -0.4416
     20 H           1.4118    7.9754   -3.4289 H       1  LIG1        0.1203
     21 H           1.4990    4.4490    7.3324 H       1  LIG1        0.1145
     22 H           3.7613    7.1817   -3.3561 H       1  LIG1        0.1197
     23 H          -0.2910    6.9480   -1.9450 H       1  LIG1        0.1215
     24 H           3.6711    3.6651    6.4240 H       1  LIG1        0.1255
     25 H          -0.3721    4.9757    5.7917 H       1  LIG1        0.1247
     26 H           4.4108    5.3666   -1.8076 H       1  LIG1        0.1125
     27 H           0.3483    5.1325   -0.3931 H       1  LIG1        0.1259
     28 H           3.9769    3.4079    3.9862 H       1  LIG1        0.1402
     29 H          -0.0795    4.7230    3.3509 H       1  LIG1        0.1342
     30 H           3.6834    3.4954   -0.4320 H       1  LIG1        0.1620
     31 H           1.5871    1.3017   -0.9577 H       1  LIG1        0.0935
     32 H           1.1176    2.7802   -1.8258 H       1  LIG1        0.0897
     33 H           0.0149    2.0660   -0.6352 H       1  LIG1        0.0908
@<TRIPOS>BOND
     1     1     3   ar
     2     1     4   ar
     3     2     5   ar
     4     2     6   ar
     5     3     7   ar
     6     4     8   ar
     7     5     9   ar
     8     6    10   ar
     9     7    11   ar
    10     8    11   ar
    11     9    12   ar
    12    10    12   ar
    13    11    15    1
    14    12    18    1
    15    13    15    1
    16    13    16    1
    17    13    17    2
    18    14    15    1
    19    14    18   am
    20    14    19    2
    21    17    18    1
    22     1    20    1
    23     2    21    1
    24     3    22    1
    25     4    23    1
    26     5    24    1
    27     6    25    1
    28     7    26    1
    29     8    27    1
    30     9    28    1
    31    10    29    1
    32    15    30    1
    33    16    31    1
    34    16    32    1
    35    16    33    1
