@<TRIPOS>MOLECULE
AG-690/37071102
 47 49 0 0 0
SMALL
USER_CHARGES

@<TRIPOS>ATOM
      1 C           0.8811    0.5436   -2.4293 C.ar    1  LIG1       -0.1095
      2 C           2.1095    7.1067   -2.7431 C.ar    1  LIG1       -0.1080
      3 C          -0.1881    0.5727   -1.5341 C.ar    1  LIG1       -0.1059
      4 C           1.9159    1.4713   -2.3102 C.ar    1  LIG1       -0.1082
      5 C           3.3364    6.6923   -2.2247 C.ar    1  LIG1       -0.1065
      6 C           0.9459    6.9527   -1.9894 C.ar    1  LIG1       -0.1063
      7 C          -0.2228    1.5297   -0.5199 C.ar    1  LIG1       -0.0967
      8 C           1.8813    2.4283   -1.2961 C.ar    1  LIG1       -0.1017
      9 C           3.3996    6.1237   -0.9525 C.ar    1  LIG1       -0.1008
     10 C           1.0092    6.3842   -0.7172 C.ar    1  LIG1       -0.1001
     11 C           0.7722    4.0835    5.6405 C.ar    1  LIG1       -0.0436
     12 C           2.7287    5.4960    5.5228 C.ar    1  LIG1       -0.0572
     13 C           1.1811    3.4205    4.4835 C.ar    1  LIG1        0.0032
     14 C           3.1377    4.8329    4.3657 C.ar    1  LIG1       -0.0075
     15 C           0.8121    2.4575   -0.4008 C.ar    1  LIG1       -0.0865
     16 C           2.2360    5.9696   -0.1988 C.ar    1  LIG1       -0.0880
     17 C           1.5458    5.1213    6.1601 C.ar    1  LIG1       -0.0037
     18 C           2.3640    3.7950    3.8461 C.ar    1  LIG1        0.2889
     19 C          -0.0720    5.3338    7.8902 C.3     1  LIG1        0.0276
     20 C           0.7752    3.4880    0.6905 C.3     1  LIG1        0.0564
     21 C           2.3033    5.3575    1.1705 C.3     1  LIG1        0.0587
     22 N           2.1383    3.8822    1.1286 N.3     1  LIG1       -0.1548
     23 O           4.3248    3.0929    2.2871 O.2     1  LIG1       -0.0776
     24 O           2.2945    1.6276    2.4092 O.2     1  LIG1       -0.0776
     25 O           1.1470    5.7681    7.2894 O.3     1  LIG1       -0.4100
     26 S           2.8830    2.9539    2.3766 S.O2    1  LIG1       -0.0397
     27 H           0.9085   -0.2025   -3.2181 H       1  LIG1        0.1138
     28 H           2.0606    7.5506   -3.7331 H       1  LIG1        0.1140
     29 H          -0.9934   -0.1504   -1.6260 H       1  LIG1        0.1144
     30 H           2.7491    1.4482   -3.0063 H       1  LIG1        0.1123
     31 H           4.2425    6.8131   -2.8110 H       1  LIG1        0.1155
     32 H          -0.0092    7.2762   -2.3923 H       1  LIG1        0.1139
     33 H          -1.0600    1.5450    0.1729 H       1  LIG1        0.1319
     34 H           2.6919    3.1474   -1.2111 H       1  LIG1        0.1164
     35 H           4.3598    5.8035   -0.5567 H       1  LIG1        0.1177
     36 H           0.0975    6.2680   -0.1372 H       1  LIG1        0.1181
     37 H          -0.1499    3.7866    6.1331 H       1  LIG1        0.1346
     38 H           3.3355    6.3036    5.9227 H       1  LIG1        0.1171
     39 H           0.5707    2.6134    4.0873 H       1  LIG1        0.1589
     40 H           4.0606    5.1329    3.8769 H       1  LIG1        0.1512
     41 H          -0.2731    5.9324    8.7820 H       1  LIG1        0.0922
     42 H           0.0092    4.2773    8.1583 H       1  LIG1        0.0917
     43 H          -0.8872    5.4645    7.1748 H       1  LIG1        0.1249
     44 H           0.2556    4.3909    0.3516 H       1  LIG1        0.1290
     45 H           0.2373    3.1128    1.5674 H       1  LIG1        0.1256
     46 H           3.2667    5.5758    1.6441 H       1  LIG1        0.1298
     47 H           1.5218    5.7635    1.8213 H       1  LIG1        0.1370
@<TRIPOS>BOND
     1     1     3   ar
     2     1     4   ar
     3     2     5   ar
     4     2     6   ar
     5     3     7   ar
     6     4     8   ar
     7     5     9   ar
     8     6    10   ar
     9     7    15   ar
    10     8    15   ar
    11     9    16   ar
    12    10    16   ar
    13    11    13   ar
    14    11    17   ar
    15    12    14   ar
    16    12    17   ar
    17    13    18   ar
    18    14    18   ar
    19    15    20    1
    20    16    21    1
    21    17    25    1
    22    18    26    1
    23    19    25    1
    24    20    22    1
    25    21    22    1
    26    22    26    1
    27    23    26    2
    28    24    26    2
    29     1    27    1
    30     2    28    1
    31     3    29    1
    32     4    30    1
    33     5    31    1
    34     6    32    1
    35     7    33    1
    36     8    34    1
    37     9    35    1
    38    10    36    1
    39    11    37    1
    40    12    38    1
    41    13    39    1
    42    14    40    1
    43    19    41    1
    44    19    42    1
    45    19    43    1
    46    20    44    1
    47    20    45    1
    48    21    46    1
    49    21    47    1
