@<TRIPOS>MOLECULE
AK-968/41927440
 34 36 0 0 0
SMALL
USER_CHARGES

@<TRIPOS>ATOM
      1 C           1.9719    7.6323   -2.3167 C.ar    1  LIG1       -0.1027
      2 C           0.2342    0.8844   -0.8887 C.ar    1  LIG1       -0.0932
      3 C           0.9196    6.9390   -1.7187 C.ar    1  LIG1       -0.0983
      4 C           3.2772    7.1538   -2.2013 C.ar    1  LIG1       -0.0949
      5 C           0.9802    1.4387   -1.9287 C.ar    1  LIG1       -0.1007
      6 C           0.3240    1.4194    0.3964 C.ar    1  LIG1       -0.0543
      7 C           1.1725    5.7674   -1.0053 C.ar    1  LIG1       -0.0637
      8 C           3.5300    5.9822   -1.4880 C.ar    1  LIG1       -0.0593
      9 C           1.8163    2.5281   -1.6838 C.ar    1  LIG1       -0.0599
     10 C           2.9234    4.7096    4.8593 C.ar    1  LIG1       -0.0365
     11 C           2.1662    4.8341    6.0486 C.ar    1  LIG1       -0.0496
     12 C           1.1601    2.5088    0.6414 C.ar    1  LIG1       -0.0004
     13 C           2.4777    5.2889   -0.8899 C.ar    1  LIG1        0.0073
     14 C           1.9063    3.0631   -0.3987 C.ar    1  LIG1        0.0387
     15 C           2.1071    4.0761    3.9514 C.ar    1  LIG1        0.1341
     16 C           0.9412    4.2679    5.7825 C.ar    1  LIG1        0.0820
     17 C           2.3322    3.6716    2.5531 C.2     1  LIG1        0.1688
     18 N           1.2401    3.0331    1.9336 N.am    1  LIG1       -0.2806
     19 O           3.4168    3.8608    2.0064 O.2     1  LIG1       -0.4408
     20 O           0.8971    3.8036    4.5063 O.2     1  LIG1       -0.3390
     21 O           2.7294    4.1275   -0.1807 O.3     1  LIG1       -0.3664
     22 BR         -0.4970    4.1457    7.0109 Br      1  LIG1        0.0075
     23 H           1.7754    8.5443   -2.8727 H       1  LIG1        0.1203
     24 H          -0.4171    0.0365   -1.0798 H       1  LIG1        0.1223
     25 H          -0.0967    7.3115   -1.8082 H       1  LIG1        0.1243
     26 H           4.0961    7.6942   -2.6675 H       1  LIG1        0.1266
     27 H           0.9095    1.0226   -2.9294 H       1  LIG1        0.1240
     28 H          -0.2624    0.9788    1.1988 H       1  LIG1        0.1551
     29 H           0.3486    5.2328   -0.5405 H       1  LIG1        0.1253
     30 H           4.5490    5.6152   -1.3999 H       1  LIG1        0.1320
     31 H           2.3945    2.9551   -2.4988 H       1  LIG1        0.1220
     32 H           3.9379    5.0416    4.6903 H       1  LIG1        0.1618
     33 H           2.4825    5.2833    6.9796 H       1  LIG1        0.1491
     34 H           0.3937    2.9412    2.5057 H       1  LIG1        0.3385
@<TRIPOS>BOND
     1     1     3   ar
     2     1     4   ar
     3     2     5   ar
     4     2     6   ar
     5     3     7   ar
     6     4     8   ar
     7     5     9   ar
     8     6    12   ar
     9     7    13   ar
    10     8    13   ar
    11     9    14   ar
    12    10    11   ar
    13    10    15   ar
    14    11    16   ar
    15    12    14   ar
    16    12    18    1
    17    13    21    1
    18    14    21    1
    19    15    17    1
    20    15    20   ar
    21    16    20   ar
    22    16    22    1
    23    17    18   am
    24    17    19    2
    25     1    23    1
    26     2    24    1
    27     3    25    1
    28     4    26    1
    29     5    27    1
    30     6    28    1
    31     7    29    1
    32     8    30    1
    33     9    31    1
    34    10    32    1
    35    11    33    1
    36    18    34    1
