@<TRIPOS>MOLECULE
AE-641/00605062
 56 59 0 0 0
SMALL
USER_CHARGES

@<TRIPOS>ATOM
      1 C           0.2547    0.6398   -1.7994 C.ar    1  LIG1       -0.1033
      2 C           1.6311    0.7366   -1.9150 C.ar    1  LIG1       -0.0982
      3 C           3.3101    7.0729   -2.0527 C.ar    1  LIG1       -0.0995
      4 C           2.0821    7.6481   -2.3119 C.ar    1  LIG1       -0.0971
      5 C          -0.4408    1.6166   -1.0951 C.ar    1  LIG1       -0.1041
      6 C           2.3059    1.8033   -1.3173 C.ar    1  LIG1       -0.0856
      7 C           3.3762    5.8976   -1.3050 C.ar    1  LIG1       -0.0854
      8 C           0.9285    7.0407   -1.8245 C.ar    1  LIG1       -0.0888
      9 C           0.2281    2.6996   -0.4865 C.ar    1  LIG1       -0.0931
     10 C           1.6306    2.7987   -0.5713 C.ar    1  LIG1       -0.0674
     11 C           2.2222    5.2528   -0.7875 C.ar    1  LIG1       -0.0634
     12 C           0.9647    5.8447   -1.0640 C.ar    1  LIG1       -0.0627
     13 C          -0.6024    3.7241    0.2208 C.3     1  LIG1        0.0063
     14 C           1.4847    3.1606    3.7250 C.3     1  LIG1       -0.0728
     15 C           2.7027    3.7610    4.4141 C.3     1  LIG1       -0.0733
     16 C           1.7336    2.9544    2.2347 C.3     1  LIG1       -0.0542
     17 C           3.1403    5.0575    3.7410 C.3     1  LIG1       -0.0714
     18 C           2.1680    4.2544    1.5359 C.3     1  LIG1       -0.0325
     19 C           3.4053    4.8672    2.2375 C.3     1  LIG1       -0.0742
     20 C           2.4169    3.9706    0.0385 C.3     1  LIG1        0.0152
     21 C           6.1695    5.6944    2.2895 C.3     1  LIG1       -0.0940
     22 C           5.4858    8.0477    1.8480 C.3     1  LIG1       -0.0940
     23 C           3.8250    6.2060    1.6238 C.3     1  LIG1       -0.1053
     24 N           5.0299    6.6876    2.3265 N.4     1  LIG1        0.4081
     25 O           3.8055    3.5576    0.0227 O.3     1  LIG1       -0.4668
     26 S          -0.7012    5.3252   -0.6143 S.3     1  LIG1       -0.2056
     27 H          -0.2762   -0.1954   -2.2443 H       1  LIG1        0.1256
     28 H           2.1872   -0.0181   -2.4621 H       1  LIG1        0.1281
     29 H           4.2196    7.5305   -2.4291 H       1  LIG1        0.1259
     30 H           2.0150    8.5664   -2.8873 H       1  LIG1        0.1308
     31 H          -1.5232    1.5265   -1.0139 H       1  LIG1        0.1153
     32 H           3.3854    1.8312   -1.4441 H       1  LIG1        0.1355
     33 H           4.3713    5.4959   -1.1404 H       1  LIG1        0.1572
     34 H          -0.0204    7.5295   -2.0496 H       1  LIG1        0.1263
     35 H          -1.5963    3.3492    0.4780 H       1  LIG1        0.1011
     36 H          -0.1564    3.9386    1.2011 H       1  LIG1        0.1192
     37 H           1.2315    2.2024    4.1924 H       1  LIG1        0.0403
     38 H           0.6209    3.8224    3.8633 H       1  LIG1        0.0463
     39 H           2.4732    3.9522    5.4684 H       1  LIG1        0.0489
     40 H           3.5296    3.0404    4.3930 H       1  LIG1        0.0442
     41 H           2.5046    2.1848    2.1003 H       1  LIG1        0.0607
     42 H           0.8178    2.5690    1.7704 H       1  LIG1        0.0724
     43 H           2.3645    5.8203    3.8877 H       1  LIG1        0.0526
     44 H           4.0462    5.4281    4.2360 H       1  LIG1        0.0360
     45 H           1.3358    4.9701    1.6130 H       1  LIG1        0.0901
     46 H           4.2493    4.1722    2.1288 H       1  LIG1        0.0698
     47 H           6.4460    5.5422    1.2445 H       1  LIG1        0.0843
     48 H           7.0001    6.1174    2.8578 H       1  LIG1        0.0767
     49 H           5.8176    4.7650    2.7415 H       1  LIG1        0.0736
     50 H           5.7435    7.9607    0.7909 H       1  LIG1        0.0770
     51 H           4.6609    8.7474    1.9947 H       1  LIG1        0.0797
     52 H           6.3556    8.3363    2.4413 H       1  LIG1        0.0785
     53 H           3.0442    6.9512    1.7517 H       1  LIG1        0.0980
     54 H           4.0770    6.0870    0.5733 H       1  LIG1        0.0807
     55 H           4.7946    6.8074    3.3292 H       1  LIG1        0.1548
     56 H           4.3017    4.2924    0.4055 H       1  LIG1        0.3334
@<TRIPOS>BOND
     1     1     2   ar
     2     1     5   ar
     3     2     6   ar
     4     3     4   ar
     5     3     7   ar
     6     4     8   ar
     7     5     9   ar
     8     6    10   ar
     9     7    11   ar
    10     8    12   ar
    11     9    10   ar
    12     9    13    1
    13    10    20    1
    14    11    12   ar
    15    11    20    1
    16    12    26    1
    17    13    26    1
    18    14    15    1
    19    14    16    1
    20    15    17    1
    21    16    18    1
    22    17    19    1
    23    18    19    1
    24    18    20    1
    25    19    23    1
    26    20    25    1
    27    21    24    1
    28    22    24    1
    29    23    24    1
    30     1    27    1
    31     2    28    1
    32     3    29    1
    33     4    30    1
    34     5    31    1
    35     6    32    1
    36     7    33    1
    37     8    34    1
    38    13    35    1
    39    13    36    1
    40    14    37    1
    41    14    38    1
    42    15    39    1
    43    15    40    1
    44    16    41    1
    45    16    42    1
    46    17    43    1
    47    17    44    1
    48    18    45    1
    49    19    46    1
    50    21    47    1
    51    21    48    1
    52    21    49    1
    53    22    50    1
    54    22    51    1
    55    22    52    1
    56    23    53    1
    57    23    54    1
    58    24    55    1
    59    25    56    1
