@<TRIPOS>MOLECULE
AN-212/13751034
 52 53 0 0 0
SMALL
USER_CHARGES

@<TRIPOS>ATOM
      1 C           1.7928    4.3880    2.5751 C.1     1  LIG1       -0.1979
      2 C           2.0885    4.1819    1.4288 C.1     1  LIG1       -0.1101
      3 C           0.1959    0.7204   -1.7971 C.ar    1  LIG1       -0.1024
      4 C           1.9792    7.5700   -2.2986 C.ar    1  LIG1       -0.1023
      5 C          -0.3738    1.4830   -0.7775 C.ar    1  LIG1       -0.0989
      6 C           1.4914    0.9967   -2.2341 C.ar    1  LIG1       -0.1036
      7 C           1.1695    7.3420   -1.1860 C.ar    1  LIG1       -0.1014
      8 C           2.9397    6.6278   -2.6670 C.ar    1  LIG1       -0.0974
      9 C           0.3520    2.5220   -0.1950 C.ar    1  LIG1       -0.0870
     10 C           2.2172    2.0357   -1.6516 C.ar    1  LIG1       -0.0940
     11 C           1.3202    6.1720   -0.4416 C.ar    1  LIG1       -0.0873
     12 C           3.0905    5.4579   -1.9226 C.ar    1  LIG1       -0.0801
     13 C           1.6475    2.7983   -0.6320 C.ar    1  LIG1       -0.0444
     14 C           2.2807    5.2299   -0.8099 C.ar    1  LIG1       -0.0358
     15 C           0.4200    3.6845    6.1522 C.3     1  LIG1       -0.0614
     16 C           1.8513    2.2529    4.6728 C.3     1  LIG1       -0.0598
     17 C           0.9328    7.0399    3.4541 C.3     1  LIG1       -0.0853
     18 C          -0.8798    5.3418    3.2761 C.3     1  LIG1       -0.0860
     19 C           4.6237    4.6097    0.5930 C.3     1  LIG1        0.0169
     20 C           1.4101    4.6504    3.9680 C.3     1  LIG1       -0.0634
     21 C           0.8507    3.4146    4.7053 C.3     1  LIG1       -0.0649
     22 C           2.4473    3.9425    0.0088 C.3     1  LIG1        0.1049
     23 N           0.3895    5.7388    3.9825 N.4     1  LIG1        0.4107
     24 O           3.8360    3.5735    0.0365 O.3     1  LIG1       -0.4143
     25 H          -0.3690   -0.0894   -2.2496 H       1  LIG1        0.1231
     26 H           1.8607    8.4804   -2.8789 H       1  LIG1        0.1229
     27 H          -1.3821    1.2673   -0.4363 H       1  LIG1        0.1239
     28 H           1.9356    0.4025   -3.0271 H       1  LIG1        0.1190
     29 H           0.4209    8.0750   -0.8996 H       1  LIG1        0.1197
     30 H           3.5695    6.8044   -3.5338 H       1  LIG1        0.1228
     31 H          -0.1000    3.1110    0.5987 H       1  LIG1        0.1299
     32 H           3.2259    2.2438   -1.9986 H       1  LIG1        0.1131
     33 H           0.6850    6.0030    0.4239 H       1  LIG1        0.1162
     34 H           3.8414    4.7295   -2.2170 H       1  LIG1        0.1350
     35 H           1.2573    4.0265    6.7689 H       1  LIG1        0.0274
     36 H           0.0260    2.7701    6.6098 H       1  LIG1        0.0451
     37 H          -0.3723    4.4370    6.2021 H       1  LIG1        0.0549
     38 H           2.7716    2.5225    5.2023 H       1  LIG1        0.0510
     39 H           1.4346    1.3667    5.1627 H       1  LIG1        0.0431
     40 H           2.1248    1.9804    3.6483 H       1  LIG1        0.0430
     41 H           1.2111    6.8861    2.4099 H       1  LIG1        0.0790
     42 H           0.1464    7.7917    3.5443 H       1  LIG1        0.0832
     43 H           1.8029    7.3079    4.0566 H       1  LIG1        0.0815
     44 H          -0.6349    5.1566    2.2285 H       1  LIG1        0.0803
     45 H          -1.2607    4.4382    3.7559 H       1  LIG1        0.0825
     46 H          -1.5883    6.1666    3.3735 H       1  LIG1        0.0770
     47 H           5.6731    4.3053    0.6028 H       1  LIG1        0.0694
     48 H           4.2846    4.8199    1.6105 H       1  LIG1        0.0856
     49 H           4.5130    5.5080   -0.0189 H       1  LIG1        0.1189
     50 H           2.2670    5.0524    4.5207 H       1  LIG1        0.1492
     51 H          -0.0423    3.0783    4.1602 H       1  LIG1        0.0726
     52 H           0.1340    5.9081    4.9678 H       1  LIG1        0.1760
@<TRIPOS>BOND
     1     1     2    3
     2     1    20    1
     3     2    22    1
     4     3     5   ar
     5     3     6   ar
     6     4     7   ar
     7     4     8   ar
     8     5     9   ar
     9     6    10   ar
    10     7    11   ar
    11     8    12   ar
    12     9    13   ar
    13    10    13   ar
    14    11    14   ar
    15    12    14   ar
    16    13    22    1
    17    14    22    1
    18    15    21    1
    19    16    21    1
    20    17    23    1
    21    18    23    1
    22    19    24    1
    23    20    21    1
    24    20    23    1
    25    22    24    1
    26     3    25    1
    27     4    26    1
    28     5    27    1
    29     6    28    1
    30     7    29    1
    31     8    30    1
    32     9    31    1
    33    10    32    1
    34    11    33    1
    35    12    34    1
    36    15    35    1
    37    15    36    1
    38    15    37    1
    39    16    38    1
    40    16    39    1
    41    16    40    1
    42    17    41    1
    43    17    42    1
    44    17    43    1
    45    18    44    1
    46    18    45    1
    47    18    46    1
    48    19    47    1
    49    19    48    1
    50    19    49    1
    51    20    50    1
    52    21    51    1
    53    23    52    1
