@<TRIPOS>MOLECULE
AK-968/41018853
 45 47 0 0 0
SMALL
USER_CHARGES

@<TRIPOS>ATOM
      1 C           0.3747    0.5967   -1.9169 C.ar    1  LIG1       -0.1081
      2 C           2.2040    7.5760   -2.3320 C.ar    1  LIG1       -0.1060
      3 C           1.7057    0.9494   -2.1391 C.ar    1  LIG1       -0.1024
      4 C          -0.4098    1.3492   -1.0427 C.ar    1  LIG1       -0.1065
      5 C           3.1737    6.5861   -2.4918 C.ar    1  LIG1       -0.1044
      6 C           1.1857    7.4098   -1.3934 C.ar    1  LIG1       -0.1044
      7 C           1.6115    4.6832    6.6158 C.ar    1  LIG1       -0.1063
      8 C           0.8638    5.3845    5.6701 C.ar    1  LIG1       -0.0982
      9 C           2.2524    2.0547   -1.4871 C.ar    1  LIG1       -0.0919
     10 C           0.1370    2.4545   -0.3908 C.ar    1  LIG1       -0.0973
     11 C           3.1249    5.4299   -1.7129 C.ar    1  LIG1       -0.0989
     12 C           1.1370    6.2537   -0.6145 C.ar    1  LIG1       -0.0984
     13 C           2.6040    3.7950    6.2011 C.ar    1  LIG1       -0.0991
     14 C           1.1083    5.1978    4.3095 C.ar    1  LIG1       -0.0668
     15 C           1.4681    2.8073   -0.6129 C.ar    1  LIG1       -0.0684
     16 C           2.1066    5.2637   -0.7742 C.ar    1  LIG1       -0.0748
     17 C           2.8485    3.6082    4.8407 C.ar    1  LIG1       -0.0847
     18 C           2.1007    4.3096    3.8948 C.ar    1  LIG1       -0.0530
     19 C           1.4141    4.2606    1.4699 C.2     1  LIG1        0.1102
     20 C           5.3159    3.2358    4.5962 C.3     1  LIG1       -0.0637
     21 C           3.9177    2.6504    4.4254 C.3     1  LIG1       -0.0447
     22 C           2.0521    3.9891    0.0848 C.3     1  LIG1        0.0873
     23 N           2.3335    4.1340    2.5100 N.am    1  LIG1       -0.3095
     24 O           0.2237    4.5437    1.5726 O.2     1  LIG1       -0.4677
     25 H          -0.0513   -0.2632   -2.4256 H       1  LIG1        0.1145
     26 H           2.2429    8.4767   -2.9377 H       1  LIG1        0.1170
     27 H           2.3162    0.3643   -2.8205 H       1  LIG1        0.1148
     28 H          -1.4465    1.0755   -0.8703 H       1  LIG1        0.1143
     29 H           3.9672    6.7157   -3.2218 H       1  LIG1        0.1175
     30 H           0.4313    8.1808   -1.2679 H       1  LIG1        0.1182
     31 H           1.4209    4.8278    7.6750 H       1  LIG1        0.1123
     32 H           0.0904    6.0756    5.9930 H       1  LIG1        0.1191
     33 H           3.2906    2.3221   -1.6662 H       1  LIG1        0.1235
     34 H          -0.4817    3.0349    0.2886 H       1  LIG1        0.1178
     35 H           3.8845    4.6638   -1.8443 H       1  LIG1        0.1176
     36 H           0.3398    6.1328    0.1143 H       1  LIG1        0.1208
     37 H           3.1807    3.2530    6.9459 H       1  LIG1        0.1210
     38 H           0.5190    5.7506    3.5825 H       1  LIG1        0.1392
     39 H           5.4253    4.1662    4.0287 H       1  LIG1        0.0300
     40 H           6.0750    2.5313    4.2420 H       1  LIG1        0.0365
     41 H           5.5239    3.4577    5.6485 H       1  LIG1        0.0375
     42 H           3.8418    1.7189    5.0070 H       1  LIG1        0.0633
     43 H           3.7758    2.3527    3.3750 H       1  LIG1        0.0567
     44 H           3.1145    3.7662    0.3230 H       1  LIG1        0.1434
     45 H           3.2908    3.8952    2.2600 H       1  LIG1        0.3228
@<TRIPOS>BOND
     1     1     3   ar
     2     1     4   ar
     3     2     5   ar
     4     2     6   ar
     5     3     9   ar
     6     4    10   ar
     7     5    11   ar
     8     6    12   ar
     9     7     8   ar
    10     7    13   ar
    11     8    14   ar
    12     9    15   ar
    13    10    15   ar
    14    11    16   ar
    15    12    16   ar
    16    13    17   ar
    17    14    18   ar
    18    15    22    1
    19    16    22    1
    20    17    18   ar
    21    17    21    1
    22    18    23    1
    23    19    22    1
    24    19    23   am
    25    19    24    2
    26    20    21    1
    27     1    25    1
    28     2    26    1
    29     3    27    1
    30     4    28    1
    31     5    29    1
    32     6    30    1
    33     7    31    1
    34     8    32    1
    35     9    33    1
    36    10    34    1
    37    11    35    1
    38    12    36    1
    39    13    37    1
    40    14    38    1
    41    20    39    1
    42    20    40    1
    43    20    41    1
    44    21    42    1
    45    21    43    1
    46    22    44    1
    47    23    45    1
