@<TRIPOS>MOLECULE
AP-518/42402964
 53 56 0 0 0
SMALL
USER_CHARGES

@<TRIPOS>ATOM
      1 C          -0.1764    4.8291   10.2364 C.ar    1  LIG1       -0.1067
      2 C           2.0120    7.5562   -2.1109 C.ar    1  LIG1       -0.1087
      3 C          -1.0273    5.0164    9.1471 C.ar    1  LIG1       -0.1036
      4 C           1.1759    4.5590   10.0266 C.ar    1  LIG1       -0.1034
      5 C           2.9567    6.6172   -2.5245 C.ar    1  LIG1       -0.1062
      6 C           1.1756    7.2749   -1.0305 C.ar    1  LIG1       -0.1050
      7 C          -0.5260    4.9335    7.8482 C.ar    1  LIG1       -0.0925
      8 C           1.6772    4.4761    8.7277 C.ar    1  LIG1       -0.0922
      9 C           2.6983    4.3077    6.0807 C.ar    1  LIG1       -0.0819
     10 C           0.4948    4.7650    5.2019 C.ar    1  LIG1       -0.0768
     11 C           3.1993    4.2250    4.7816 C.ar    1  LIG1       -0.0691
     12 C           0.9959    4.6823    3.9027 C.ar    1  LIG1       -0.0609
     13 C           3.0650    5.3966   -1.8580 C.ar    1  LIG1       -0.0946
     14 C           1.2838    6.0544   -0.3641 C.ar    1  LIG1       -0.0928
     15 C           2.2050    1.5171   -1.1322 C.ar    1  LIG1       -0.0897
     16 C           0.1752    2.8002   -0.8664 C.ar    1  LIG1       -0.0836
     17 C           1.4763    0.4880   -1.7287 C.ar    1  LIG1       -0.0688
     18 C          -0.5534    1.7711   -1.4629 C.ar    1  LIG1       -0.0582
     19 C           0.8263    4.6634    7.6383 C.ar    1  LIG1       -0.0788
     20 C           1.3460    4.5776    6.2909 C.ar    1  LIG1       -0.0749
     21 C           2.3481    4.4123    3.6926 C.ar    1  LIG1        0.0232
     22 C           2.2285    5.1152   -0.7777 C.ar    1  LIG1       -0.0733
     23 C           1.5544    2.6732   -0.7010 C.ar    1  LIG1       -0.0716
     24 C           0.0971    0.6151   -1.8941 C.ar    1  LIG1       -0.0152
     25 C           2.8705    4.3261    2.3382 C.2     1  LIG1        0.1053
     26 C           0.1151   -1.5418   -2.8958 C.3     1  LIG1        0.0232
     27 C           2.3454    3.7907   -0.0540 C.3     1  LIG1        0.0125
     28 N           1.9732    3.9439    1.3341 N.am    1  LIG1       -0.3282
     29 O           4.0691    4.5652    2.1073 O.2     1  LIG1       -0.4771
     30 O          -0.6135   -0.3886   -2.4772 O.3     1  LIG1       -0.4188
     31 H          -0.5667    4.8955   11.2478 H       1  LIG1        0.1169
     32 H           1.9288    8.5071   -2.6292 H       1  LIG1        0.1134
     33 H          -2.0800    5.2284    9.3103 H       1  LIG1        0.1175
     34 H           1.8393    4.4145   10.8744 H       1  LIG1        0.1179
     35 H           3.6087    6.8364   -3.3649 H       1  LIG1        0.1136
     36 H           0.4407    8.0064   -0.7075 H       1  LIG1        0.1155
     37 H          -1.2021    5.0822    7.0094 H       1  LIG1        0.1232
     38 H           2.7338    4.2655    8.5798 H       1  LIG1        0.1239
     39 H           3.3745    4.1593    6.9194 H       1  LIG1        0.1280
     40 H          -0.5617    4.9762    5.3493 H       1  LIG1        0.1300
     41 H           4.2548    4.0141    4.6294 H       1  LIG1        0.1285
     42 H           0.3237    4.8300    3.0612 H       1  LIG1        0.1459
     43 H           3.8039    4.6708   -2.1874 H       1  LIG1        0.1145
     44 H           0.6278    5.8439    0.4764 H       1  LIG1        0.1200
     45 H           3.2791    1.4096   -1.0074 H       1  LIG1        0.1313
     46 H          -0.3402    3.6975   -0.5333 H       1  LIG1        0.1283
     47 H           1.9890   -0.4101   -2.0628 H       1  LIG1        0.1140
     48 H          -1.6272    1.8763   -1.5891 H       1  LIG1        0.1294
     49 H          -0.5711   -2.2644   -3.3440 H       1  LIG1        0.1218
     50 H           0.6193   -1.9877   -2.0347 H       1  LIG1        0.0891
     51 H           0.8601   -1.2420   -3.6367 H       1  LIG1        0.0891
     52 H           3.4002    3.4882   -0.0235 H       1  LIG1        0.1551
     53 H           1.0214    3.6990    1.5865 H       1  LIG1        0.3013
@<TRIPOS>BOND
     1     1     3   ar
     2     1     4   ar
     3     2     5   ar
     4     2     6   ar
     5     3     7   ar
     6     4     8   ar
     7     5    13   ar
     8     6    14   ar
     9     7    19   ar
    10     8    19   ar
    11     9    11   ar
    12     9    20   ar
    13    10    12   ar
    14    10    20   ar
    15    11    21   ar
    16    12    21   ar
    17    13    22   ar
    18    14    22   ar
    19    15    17   ar
    20    15    23   ar
    21    16    18   ar
    22    16    23   ar
    23    17    24   ar
    24    18    24   ar
    25    19    20    1
    26    21    25    1
    27    22    27    1
    28    23    27    1
    29    24    30    1
    30    25    28   am
    31    25    29    2
    32    26    30    1
    33    27    28    1
    34     1    31    1
    35     2    32    1
    36     3    33    1
    37     4    34    1
    38     5    35    1
    39     6    36    1
    40     7    37    1
    41     8    38    1
    42     9    39    1
    43    10    40    1
    44    11    41    1
    45    12    42    1
    46    13    43    1
    47    14    44    1
    48    15    45    1
    49    16    46    1
    50    17    47    1
    51    18    48    1
    52    26    49    1
    53    26    50    1
    54    26    51    1
    55    27    52    1
    56    28    53    1
