@<TRIPOS>MOLECULE
AK-968/12116530
 38 41 0 0 0
SMALL
USER_CHARGES

@<TRIPOS>ATOM
      1 C           1.2202    0.3975   -0.8773 C.ar    1  LIG1       -0.0968
      2 C           3.0682    7.4721   -1.3974 C.ar    1  LIG1       -0.0996
      3 C          -0.0490    0.7809   -1.3048 C.ar    1  LIG1       -0.0904
      4 C           1.7583    7.7005   -1.8128 C.ar    1  LIG1       -0.0893
      5 C           2.1917    1.3653   -0.6189 C.ar    1  LIG1       -0.0874
      6 C           3.4545    6.1997   -0.9746 C.ar    1  LIG1       -0.0955
      7 C          -0.3466    2.1314   -1.4787 C.ar    1  LIG1       -0.0503
      8 C           0.8352    6.6562   -1.8107 C.ar    1  LIG1       -0.0487
      9 C           0.7456    4.6448    3.6788 C.ar    1  LIG1       -0.0274
     10 C           3.0764    4.0634    3.9363 C.ar    1  LIG1       -0.0343
     11 C           1.7312    4.5515    5.8828 C.ar    1  LIG1       -0.0410
     12 C           1.9029    2.7279   -0.7870 C.ar    1  LIG1       -0.0280
     13 C           2.5334    5.1415   -0.9642 C.ar    1  LIG1       -0.0353
     14 C           1.9710    4.2883    3.1158 C.ar    1  LIG1       -0.0349
     15 C           0.6282    3.1008   -1.2260 C.ar    1  LIG1        0.0252
     16 C           1.2234    5.3800   -1.3931 C.ar    1  LIG1        0.0227
     17 C           0.6257    4.7764    5.0624 C.ar    1  LIG1        0.0074
     18 C           2.9565    4.1949    5.3197 C.ar    1  LIG1        0.0030
     19 C           3.2278    3.8084    0.9912 C.2     1  LIG1        0.1126
     20 C           2.9431    3.7742   -0.4823 C.3     1  LIG1        0.0939
     21 N           2.0922    4.1544    1.7123 N.am    1  LIG1       -0.3050
     22 O           4.3468    3.5475    1.4209 O.2     1  LIG1       -0.4617
     23 O           0.2528    4.4070   -1.4353 O.3     1  LIG1       -0.3558
     24 CL         -0.8865    5.2157    5.7573 Cl      1  LIG1       -0.1243
     25 CL          4.3206    3.9183    6.3319 Cl      1  LIG1       -0.1263
     26 H           1.4535   -0.6547   -0.7428 H       1  LIG1        0.1195
     27 H           3.7885    8.2849   -1.4001 H       1  LIG1        0.1215
     28 H          -0.8059    0.0279   -1.5041 H       1  LIG1        0.1341
     29 H           1.4570    8.6913   -2.1398 H       1  LIG1        0.1362
     30 H           3.1764    1.0508   -0.2816 H       1  LIG1        0.1308
     31 H           4.4792    6.0383   -0.6488 H       1  LIG1        0.1252
     32 H          -1.3378    2.4223   -1.8164 H       1  LIG1        0.1349
     33 H          -0.1839    6.8416   -2.1399 H       1  LIG1        0.1377
     34 H          -0.1153    4.8189    3.0368 H       1  LIG1        0.1601
     35 H           4.0311    3.7849    3.4948 H       1  LIG1        0.1455
     36 H           1.6375    4.6540    6.9618 H       1  LIG1        0.1455
     37 H           3.8680    3.4939   -1.0034 H       1  LIG1        0.1505
     38 H           1.2420    4.3343    1.1823 H       1  LIG1        0.3255
@<TRIPOS>BOND
     1     1     3   ar
     2     1     5   ar
     3     2     4   ar
     4     2     6   ar
     5     3     7   ar
     6     4     8   ar
     7     5    12   ar
     8     6    13   ar
     9     7    15   ar
    10     8    16   ar
    11     9    14   ar
    12     9    17   ar
    13    10    14   ar
    14    10    18   ar
    15    11    17   ar
    16    11    18   ar
    17    12    15   ar
    18    12    20    1
    19    13    16   ar
    20    13    20    1
    21    14    21    1
    22    15    23    1
    23    16    23    1
    24    17    24    1
    25    18    25    1
    26    19    20    1
    27    19    21   am
    28    19    22    2
    29     1    26    1
    30     2    27    1
    31     3    28    1
    32     4    29    1
    33     5    30    1
    34     6    31    1
    35     7    32    1
    36     8    33    1
    37     9    34    1
    38    10    35    1
    39    11    36    1
    40    20    37    1
    41    21    38    1
