@<TRIPOS>MOLECULE
AG-690/11741337
 37 39 0 0 0
SMALL
USER_CHARGES

@<TRIPOS>ATOM
      1 C           1.8550    7.5855   -2.2095 C.ar    1  LIG1       -0.1021
      2 C           1.1113    7.2548   -1.0768 C.ar    1  LIG1       -0.1006
      3 C           2.8404    6.7151   -2.6755 C.ar    1  LIG1       -0.0993
      4 C           0.9772    4.8633    3.9079 C.ar    1  LIG1       -0.0535
      5 C           3.2264    4.3609    4.6329 C.ar    1  LIG1       -0.0541
      6 C           1.3529    6.0537   -0.4100 C.ar    1  LIG1       -0.0904
      7 C           3.0820    5.5139   -2.0087 C.ar    1  LIG1       -0.0866
      8 C           0.5296    4.7607    5.2250 C.ar    1  LIG1       -0.0709
      9 C           2.7789    4.2583    5.9500 C.ar    1  LIG1       -0.0743
     10 C           2.3255    4.6634    3.6118 C.ar    1  LIG1        0.0471
     11 C           2.3382    5.1832   -0.8760 C.ar    1  LIG1       -0.0494
     12 C           1.4305    4.4582    6.2460 C.ar    1  LIG1       -0.0384
     13 C           1.1389    2.2239    0.5733 C.2     1  LIG1        0.1441
     14 C           2.7992    4.7723    2.2181 C.2     1  LIG1        0.1747
     15 C           1.7380    2.7384   -0.7010 C.3     1  LIG1        0.0811
     16 C           2.6022    3.8740   -0.1495 C.3     1  LIG1        0.0824
     17 C           0.2506    1.0251    0.5726 C.3     1  LIG1        0.4019
     18 N           1.4189    2.8888    1.6483 N.2     1  LIG1       -0.2747
     19 N           2.2488    3.9099    1.2796 N.am    1  LIG1       -0.2177
     20 O           3.6560    5.6206    1.9761 O.2     1  LIG1       -0.4361
     21 O           3.9732    3.4877   -0.2381 O.3     1  LIG1       -0.4379
     22 F           0.0981    0.5317   -0.6753 F       1  LIG1       -0.1603
     23 F           0.7585    0.0390    1.3431 F       1  LIG1       -0.1597
     24 F          -0.9782    1.3230    1.0476 F       1  LIG1       -0.1595
     25 I           0.7637    4.3055    8.2077 I       1  LIG1       -0.0909
     26 H           1.6658    8.5201   -2.7293 H       1  LIG1        0.1222
     27 H           0.3433    7.9319   -0.7145 H       1  LIG1        0.1195
     28 H           3.4189    6.9717   -3.5580 H       1  LIG1        0.1216
     29 H           0.2666    5.0993    3.1198 H       1  LIG1        0.1520
     30 H           4.2792    4.2032    4.4133 H       1  LIG1        0.1671
     31 H           0.7686    5.8044    0.4719 H       1  LIG1        0.1158
     32 H           3.8517    4.8420   -2.3789 H       1  LIG1        0.1307
     33 H          -0.5252    4.9204    5.4338 H       1  LIG1        0.1376
     34 H           3.4976    4.0216    6.7305 H       1  LIG1        0.1361
     35 H           2.3143    1.9489   -1.1918 H       1  LIG1        0.1330
     36 H           0.9248    3.0733   -1.3531 H       1  LIG1        0.1354
     37 H           4.4932    4.1994    0.1702 H       1  LIG1        0.3543
@<TRIPOS>BOND
     1     1     2   ar
     2     1     3   ar
     3     2     6   ar
     4     3     7   ar
     5     4     8   ar
     6     4    10   ar
     7     5     9   ar
     8     5    10   ar
     9     6    11   ar
    10     7    11   ar
    11     8    12   ar
    12     9    12   ar
    13    10    14    1
    14    11    16    1
    15    12    25    1
    16    13    15    1
    17    13    17    1
    18    13    18    2
    19    14    19   am
    20    14    20    2
    21    15    16    1
    22    16    19    1
    23    16    21    1
    24    17    22    1
    25    17    23    1
    26    17    24    1
    27    18    19    1
    28     1    26    1
    29     2    27    1
    30     3    28    1
    31     4    29    1
    32     5    30    1
    33     6    31    1
    34     7    32    1
    35     8    33    1
    36     9    34    1
    37    15    35    1
    38    15    36    1
    39    21    37    1
