@<TRIPOS>MOLECULE
AG-690/10678060
 46 49 0 0 0
SMALL
USER_CHARGES

@<TRIPOS>ATOM
      1 C           0.6172    0.7522   -2.3859 C.ar    1  LIG1       -0.1046
      2 C           1.9243    0.9117   -1.9261 C.ar    1  LIG1       -0.0976
      3 C          -0.4105    1.5281   -1.8496 C.ar    1  LIG1       -0.1023
      4 C           2.2039    1.8471   -0.9299 C.ar    1  LIG1       -0.0792
      5 C          -0.1308    2.4636   -0.8533 C.ar    1  LIG1       -0.0859
      6 C           0.9753    5.3158    4.8102 C.ar    1  LIG1       -0.0643
      7 C           2.6903    3.6143    4.7801 C.ar    1  LIG1       -0.0751
      8 C           2.9335    5.3265   -1.5547 C.ar    1  LIG1       -0.0774
      9 C           1.1882    6.8263   -0.8185 C.ar    1  LIG1       -0.0656
     10 C           1.0287    5.3450    6.2036 C.ar    1  LIG1       -0.0926
     11 C           2.7436    3.6435    6.1737 C.ar    1  LIG1       -0.0989
     12 C           3.0937    6.0830   -2.7157 C.ar    1  LIG1       -0.0676
     13 C           1.3485    7.5827   -1.9794 C.ar    1  LIG1       -0.0538
     14 C           1.9806    5.6981   -0.6061 C.ar    1  LIG1       -0.0386
     15 C           1.1763    2.6230   -0.3934 C.ar    1  LIG1       -0.0543
     16 C           1.8063    4.4504    4.0984 C.ar    1  LIG1       -0.0167
     17 C           1.9128    4.5088    6.8855 C.ar    1  LIG1       -0.1148
     18 C           2.3013    7.2110   -2.9280 C.ar    1  LIG1       -0.0160
     19 C           1.8147    4.9195    0.5889 C.ar    1  LIG1       -0.0037
     20 C           1.4656    3.5904    0.6355 C.ar    1  LIG1       -0.0200
     21 C           1.7511    4.4201    2.6570 C.ar    1  LIG1        0.0145
     22 C           1.9693    4.5398    8.3753 C.3     1  LIG1       -0.0424
     23 C           1.6143    9.0903   -4.2134 C.3     1  LIG1        0.0226
     24 N           1.9913    5.4301    1.8506 N.ar    1  LIG1       -0.3627
     25 N           1.4293    3.2847    1.9668 N.ar    1  LIG1       -0.3270
     26 O           2.4576    7.9495   -4.0605 O.3     1  LIG1       -0.4195
     27 H           0.3996    0.0242   -3.1621 H       1  LIG1        0.1181
     28 H           2.7243    0.3072   -2.3438 H       1  LIG1        0.1207
     29 H          -1.4282    1.4048   -2.2085 H       1  LIG1        0.1180
     30 H           3.2284    1.9614   -0.5839 H       1  LIG1        0.1308
     31 H          -0.9431    3.0600   -0.4447 H       1  LIG1        0.1186
     32 H           0.2806    5.9736    4.2932 H       1  LIG1        0.1438
     33 H           3.3447    2.9345    4.2395 H       1  LIG1        0.1189
     34 H           3.5588    4.4499   -1.4036 H       1  LIG1        0.1323
     35 H           0.4408    7.1288   -0.0889 H       1  LIG1        0.1436
     36 H           0.3774    6.0220    6.7502 H       1  LIG1        0.1236
     37 H           3.4357    2.9884    6.6962 H       1  LIG1        0.1205
     38 H           3.8375    5.7890   -3.4511 H       1  LIG1        0.1114
     39 H           0.7274    8.4600   -2.1390 H       1  LIG1        0.1283
     40 H           1.2608    3.8178    8.7996 H       1  LIG1        0.0582
     41 H           2.9753    4.2960    8.7411 H       1  LIG1        0.0541
     42 H           1.7238    5.5372    8.7628 H       1  LIG1        0.0549
     43 H           1.8425    9.5890   -5.1586 H       1  LIG1        0.1206
     44 H           1.7745    9.7773   -3.3787 H       1  LIG1        0.0884
     45 H           0.5718    8.7635   -4.2189 H       1  LIG1        0.0884
     46 H           1.2048    2.3833    2.3684 H       1  LIG1        0.3498
@<TRIPOS>BOND
     1     1     2   ar
     2     1     3   ar
     3     2     4   ar
     4     3     5   ar
     5     4    15   ar
     6     5    15   ar
     7     6    10   ar
     8     6    16   ar
     9     7    11   ar
    10     7    16   ar
    11     8    12   ar
    12     8    14   ar
    13     9    13   ar
    14     9    14   ar
    15    10    17   ar
    16    11    17   ar
    17    12    18   ar
    18    13    18   ar
    19    14    19    1
    20    15    20    1
    21    16    21    1
    22    17    22    1
    23    18    26    1
    24    19    20   ar
    25    19    24   ar
    26    20    25   ar
    27    21    24   ar
    28    21    25   ar
    29    23    26    1
    30     1    27    1
    31     2    28    1
    32     3    29    1
    33     4    30    1
    34     5    31    1
    35     6    32    1
    36     7    33    1
    37     8    34    1
    38     9    35    1
    39    10    36    1
    40    11    37    1
    41    12    38    1
    42    13    39    1
    43    22    40    1
    44    22    41    1
    45    22    42    1
    46    23    43    1
    47    23    44    1
    48    23    45    1
    49    25    46    1
