@<TRIPOS>MOLECULE
AM-814/41095073
 43 46 0 0 0
SMALL
USER_CHARGES

@<TRIPOS>ATOM
      1 C           0.9366    0.4657   -1.8949 C.ar    1  LIG1       -0.0963
      2 C           1.4426    5.1244    6.0544 C.ar    1  LIG1       -0.0737
      3 C          -0.0693    1.3735   -2.2255 C.ar    1  LIG1       -0.0951
      4 C           1.9158    0.8175   -0.9657 C.ar    1  LIG1       -0.0988
      5 C           2.5074    4.2606    6.3105 C.ar    1  LIG1       -0.0713
      6 C           0.8906    5.1908    4.7751 C.ar    1  LIG1       -0.0607
      7 C          -0.0963    2.6332   -1.6271 C.ar    1  LIG1       -0.0927
      8 C           1.8888    2.0772   -0.3672 C.ar    1  LIG1       -0.0990
      9 C           2.8604    5.2960   -1.2181 C.ar    1  LIG1       -0.0825
     10 C           3.4934    6.2846   -1.9755 C.ar    1  LIG1       -0.0472
     11 C           3.0202    3.4632    5.2874 C.ar    1  LIG1       -0.0463
     12 C           0.7749    6.5524   -1.2425 C.ar    1  LIG1       -0.0411
     13 C           1.4034    4.3935    3.7519 C.ar    1  LIG1        0.0136
     14 C           0.8828    2.9851   -0.6979 C.ar    1  LIG1       -0.0797
     15 C           1.5090    5.4292   -0.8538 C.ar    1  LIG1       -0.0651
     16 C           2.7463    7.3836   -2.3465 C.ar    1  LIG1        0.0409
     17 C           1.4235    7.5140   -1.9899 C.ar    1  LIG1        0.0419
     18 C           2.4683    3.5296    4.0080 C.ar    1  LIG1       -0.0131
     19 C           0.8057    4.4794    2.4083 C.2     1  LIG1        0.0254
     20 C           1.9986    9.2500   -3.1462 C.3     1  LIG1        0.1184
     21 C           0.8542    4.3600   -0.0445 C.3     1  LIG1        0.0266
     22 N           1.4400    4.2776    1.3127 N.2     1  LIG1       -0.3168
     23 O           3.1900    8.4397   -3.0811 O.3     1  LIG1       -0.3710
     24 O           0.8736    8.6681   -2.4563 O.3     1  LIG1       -0.3720
     25 O           2.9819    2.7412    3.0220 O.3     1  LIG1       -0.4284
     26 H           0.9568   -0.5155   -2.3599 H       1  LIG1        0.1303
     27 H           1.0435    5.7454    6.8514 H       1  LIG1        0.1437
     28 H          -0.8324    1.0994   -2.9483 H       1  LIG1        0.1294
     29 H           2.6985    0.1105   -0.7072 H       1  LIG1        0.1264
     30 H           2.9371    4.2098    7.3066 H       1  LIG1        0.1607
     31 H           0.0607    5.8674    4.5872 H       1  LIG1        0.1650
     32 H          -0.8838    3.3342   -1.8910 H       1  LIG1        0.1295
     33 H           2.6559    2.3426    0.3556 H       1  LIG1        0.1132
     34 H           3.4243    4.4184   -0.9113 H       1  LIG1        0.1255
     35 H           4.5350    6.1856   -2.2588 H       1  LIG1        0.1501
     36 H           3.8497    2.7923    5.4937 H       1  LIG1        0.1482
     37 H          -0.2682    6.6672   -0.9680 H       1  LIG1        0.1525
     38 H          -0.2643    4.7357    2.3267 H       1  LIG1        0.3089
     39 H           2.2148   10.2284   -2.7022 H       1  LIG1        0.2113
     40 H           1.7289    9.3932   -4.1990 H       1  LIG1        0.1764
     41 H          -0.2005    4.6241    0.1505 H       1  LIG1        0.1778
     42 H           2.4313    4.0380    1.3386 H       1  LIG1        0.3616
     43 H           3.7115    2.2045    3.3688 H       1  LIG1        0.3738
@<TRIPOS>BOND
     1     1     3   ar
     2     1     4   ar
     3     2     5   ar
     4     2     6   ar
     5     3     7   ar
     6     4     8   ar
     7     5    11   ar
     8     6    13   ar
     9     7    14   ar
    10     8    14   ar
    11     9    10   ar
    12     9    15   ar
    13    10    16   ar
    14    11    18   ar
    15    12    15   ar
    16    12    17   ar
    17    13    18   ar
    18    13    19    1
    19    14    21    1
    20    15    21    1
    21    16    17   ar
    22    16    23    1
    23    17    24    1
    24    18    25    1
    25    19    22    2
    26    20    23    1
    27    20    24    1
    28    21    22    1
    29     1    26    1
    30     2    27    1
    31     3    28    1
    32     4    29    1
    33     5    30    1
    34     6    31    1
    35     7    32    1
    36     8    33    1
    37     9    34    1
    38    10    35    1
    39    11    36    1
    40    12    37    1
    41    19    38    1
    42    20    39    1
    43    20    40    1
    44    21    41    1
    45    22    42    1
    46    25    43    1
