@<TRIPOS>MOLECULE
AE-641/10659006
 31 33 0 0 0
SMALL
USER_CHARGES

@<TRIPOS>ATOM
      1 C           1.9145    7.5841   -2.3044 C.ar    1  LIG1       -0.0914
      2 C           3.1293    6.9118   -2.3929 C.ar    1  LIG1       -0.0971
      3 C           1.3666    0.7885   -1.7961 C.ar    1  LIG1       -0.0977
      4 C          -0.0100    0.8654   -1.6467 C.ar    1  LIG1       -0.0936
      5 C           0.9075    7.0918   -1.4766 C.ar    1  LIG1       -0.0616
      6 C           3.3402    5.7482   -1.6511 C.ar    1  LIG1       -0.0891
      7 C           2.1733    1.8016   -1.2845 C.ar    1  LIG1       -0.0800
      8 C          -0.5799    1.9636   -1.0010 C.ar    1  LIG1       -0.0604
      9 C           1.1128    5.9174   -0.7376 C.ar    1  LIG1        0.0399
     10 C           2.3394    5.2446   -0.8052 C.ar    1  LIG1       -0.0441
     11 C           1.6164    2.9086   -0.6141 C.ar    1  LIG1       -0.0290
     12 C           0.2121    3.0155   -0.4968 C.ar    1  LIG1       -0.0198
     13 C           0.0184    5.4723    0.1565 C.2     1  LIG1        0.1353
     14 C           2.5130    3.9740   -0.0184 C.3     1  LIG1        0.0285
     15 C          -1.6927    3.8583    0.8430 C.3     1  LIG1        0.0010
     16 N          -0.4255    4.1313    0.1567 N.am    1  LIG1       -0.3035
     17 O          -0.5147    6.3672    0.8189 O.2     1  LIG1       -0.4716
     18 O           3.8838    3.5866    0.0607 O.3     1  LIG1       -0.4679
     19 H           1.7506    8.4894   -2.8811 H       1  LIG1        0.1267
     20 H           3.9160    7.2928   -3.0387 H       1  LIG1        0.1281
     21 H           1.8141   -0.0552   -2.3144 H       1  LIG1        0.1204
     22 H          -0.6443    0.0713   -2.0292 H       1  LIG1        0.1287
     23 H          -0.0306    7.6363   -1.4138 H       1  LIG1        0.1399
     24 H           4.2970    5.2394   -1.7362 H       1  LIG1        0.1254
     25 H           3.2496    1.7253   -1.4208 H       1  LIG1        0.1318
     26 H          -1.6592    1.9592   -0.8796 H       1  LIG1        0.1286
     27 H           2.2043    4.1601    1.0250 H       1  LIG1        0.1362
     28 H          -1.5040    3.5762    1.8821 H       1  LIG1        0.0914
     29 H          -2.2227    3.0406    0.3471 H       1  LIG1        0.1110
     30 H          -2.3290    4.7473    0.8298 H       1  LIG1        0.1004
     31 H           4.3489    4.3142    0.5003 H       1  LIG1        0.3335
@<TRIPOS>BOND
     1     1     2   ar
     2     1     5   ar
     3     2     6   ar
     4     3     4   ar
     5     3     7   ar
     6     4     8   ar
     7     5     9   ar
     8     6    10   ar
     9     7    11   ar
    10     8    12   ar
    11     9    10   ar
    12     9    13    1
    13    10    14    1
    14    11    12   ar
    15    11    14    1
    16    12    16    1
    17    13    16   am
    18    13    17    2
    19    14    18    1
    20    15    16    1
    21     1    19    1
    22     2    20    1
    23     3    21    1
    24     4    22    1
    25     5    23    1
    26     6    24    1
    27     7    25    1
    28     8    26    1
    29    14    27    1
    30    15    28    1
    31    15    29    1
    32    15    30    1
    33    18    31    1
