@<TRIPOS>MOLECULE
AK-968/11987012
 52 55 0 0 0
SMALL
USER_CHARGES

@<TRIPOS>ATOM
      1 C           3.0946    4.0875    4.8121 C.ar    1  LIG1       -0.0645
      2 C           0.9187    4.9957    4.2852 C.ar    1  LIG1       -0.0763
      3 C           3.2527    5.6750   -1.7330 C.ar    1  LIG1       -0.0948
      4 C           1.5068    6.0764   -0.1120 C.ar    1  LIG1       -0.0852
      5 C           2.2949    1.5751   -1.1740 C.ar    1  LIG1       -0.0298
      6 C           2.8954    4.3914    6.1587 C.ar    1  LIG1       -0.0513
      7 C           0.7194    5.2996    5.6319 C.ar    1  LIG1       -0.0652
      8 C           2.7799    6.7361   -2.5051 C.ar    1  LIG1       -0.0710
      9 C           1.0339    7.1375   -0.8841 C.ar    1  LIG1       -0.0583
     10 C           1.7374    0.7662   -2.1641 C.ar    1  LIG1       -0.0597
     11 C          -0.4420    1.7000   -1.6999 C.ar    1  LIG1       -0.0456
     12 C           2.1062    4.3897    3.8752 C.ar    1  LIG1       -0.0350
     13 C           2.6162    5.3452   -0.5364 C.ar    1  LIG1       -0.0789
     14 C           1.4840    2.4465   -0.4467 C.ar    1  LIG1        0.0063
     15 C           1.6705    7.4673   -2.0807 C.ar    1  LIG1       -0.0159
     16 C           1.7078    4.9975    6.5687 C.ar    1  LIG1       -0.0121
     17 C           0.3691    0.8287   -2.4271 C.ar    1  LIG1       -0.0263
     18 C           0.1156    2.5089   -0.7096 C.ar    1  LIG1        0.0237
     19 C           2.3136    4.0727    2.4712 C.2     1  LIG1        0.0072
     20 C           3.4650    4.6704    1.7103 C.3     1  LIG1        0.0276
     21 C           3.1229    4.2091    0.2911 C.3     1  LIG1        0.0165
     22 C           0.1688    4.8753    9.8196 C.3     1  LIG1       -0.0347
     23 C           1.9089    8.7869   -4.0448 C.3     1  LIG1        0.0232
     24 C           0.1688    5.2772    8.3601 C.3     1  LIG1        0.0138
     25 N           1.5696    3.2601    1.7896 N.2     1  LIG1       -0.3254
     26 N           2.0635    3.2257    0.5197 N.pl3   1  LIG1       -0.3223
     27 O           1.2100    8.5034   -2.8336 O.3     1  LIG1       -0.4187
     28 O           1.5132    5.2944    7.8826 O.3     1  LIG1       -0.4173
     29 BR         -0.3863   -0.2704   -3.7668 Br      1  LIG1       -0.0988
     30 BR         -1.0328    3.6768    0.2499 Br      1  LIG1       -0.0787
     31 H           4.0239    3.6150    4.5044 H       1  LIG1        0.1470
     32 H           0.1421    5.2350    3.5631 H       1  LIG1        0.1366
     33 H           4.1176    5.1107   -2.0712 H       1  LIG1        0.1260
     34 H           1.0043    5.8265    0.8189 H       1  LIG1        0.1337
     35 H           3.3627    1.5171   -0.9781 H       1  LIG1        0.1528
     36 H           3.6691    4.1538    6.8837 H       1  LIG1        0.1299
     37 H          -0.2076    5.7720    5.9453 H       1  LIG1        0.1132
     38 H           3.2803    6.9884   -3.4362 H       1  LIG1        0.1104
     39 H           0.1696    7.7034   -0.5480 H       1  LIG1        0.1284
     40 H           2.3833    0.0924   -2.7214 H       1  LIG1        0.1468
     41 H          -1.5090    1.7459   -1.9068 H       1  LIG1        0.1535
     42 H           3.5210    5.7547    1.8404 H       1  LIG1        0.0966
     43 H           4.3909    4.2048    2.0648 H       1  LIG1        0.0971
     44 H           3.9928    3.7623   -0.2017 H       1  LIG1        0.1328
     45 H           0.5980    3.8780    9.9496 H       1  LIG1        0.0480
     46 H           0.7460    5.5892   10.4165 H       1  LIG1        0.0481
     47 H          -0.8504    4.8763   10.2200 H       1  LIG1        0.0570
     48 H           1.4387    9.6353   -4.5478 H       1  LIG1        0.0887
     49 H           1.8873    7.9075   -4.6934 H       1  LIG1        0.0888
     50 H           2.9457    9.0362   -3.8068 H       1  LIG1        0.1219
     51 H          -0.2617    6.2755    8.2369 H       1  LIG1        0.0951
     52 H          -0.4076    4.5626    7.7650 H       1  LIG1        0.0950
@<TRIPOS>BOND
     1     1     6   ar
     2     1    12   ar
     3     2     7   ar
     4     2    12   ar
     5     3     8   ar
     6     3    13   ar
     7     4     9   ar
     8     4    13   ar
     9     5    10   ar
    10     5    14   ar
    11     6    16   ar
    12     7    16   ar
    13     8    15   ar
    14     9    15   ar
    15    10    17   ar
    16    11    17   ar
    17    11    18   ar
    18    12    19    1
    19    13    21    1
    20    14    18   ar
    21    14    26    1
    22    15    27    1
    23    16    28    1
    24    17    29    1
    25    18    30    1
    26    19    20    1
    27    19    25    2
    28    20    21    1
    29    21    26    1
    30    22    24    1
    31    23    27    1
    32    24    28    1
    33    25    26    1
    34     1    31    1
    35     2    32    1
    36     3    33    1
    37     4    34    1
    38     5    35    1
    39     6    36    1
    40     7    37    1
    41     8    38    1
    42     9    39    1
    43    10    40    1
    44    11    41    1
    45    20    42    1
    46    20    43    1
    47    21    44    1
    48    22    45    1
    49    22    46    1
    50    22    47    1
    51    23    48    1
    52    23    49    1
    53    23    50    1
    54    24    51    1
    55    24    52    1
