@<TRIPOS>MOLECULE
AE-477/13519075
 41 44 0 0 0
SMALL
USER_CHARGES

@<TRIPOS>ATOM
      1 C           1.9376    4.6174    6.2010 C.ar    1  LIG1       -0.1063
      2 C           1.8552    7.7411   -2.0277 C.ar    1  LIG1       -0.1073
      3 C           0.7896    5.0402    5.5310 C.ar    1  LIG1       -0.1041
      4 C           2.9714    4.0032    5.4941 C.ar    1  LIG1       -0.1025
      5 C           1.0196    6.6443   -2.2382 C.ar    1  LIG1       -0.1061
      6 C           3.0011    7.6047   -1.2439 C.ar    1  LIG1       -0.1050
      7 C           0.8609    1.2203   -2.1357 C.ar    1  LIG1       -0.1038
      8 C           0.0189    0.7314   -1.1413 C.ar    1  LIG1       -0.0959
      9 C           0.6753    4.8488    4.1540 C.ar    1  LIG1       -0.0944
     10 C           2.8572    3.8118    4.1171 C.ar    1  LIG1       -0.0917
     11 C           1.3296    5.4111   -1.6649 C.ar    1  LIG1       -0.0991
     12 C           3.3111    6.3715   -0.6706 C.ar    1  LIG1       -0.0962
     13 C           1.7577    2.2493   -1.8466 C.ar    1  LIG1       -0.0947
     14 C           0.0680    1.2757    0.1404 C.ar    1  LIG1       -0.0574
     15 C           1.7091    4.2345    3.4471 C.ar    1  LIG1       -0.0704
     16 C           2.4754    5.2747   -0.8810 C.ar    1  LIG1       -0.0790
     17 C           1.8252    2.8061   -0.5564 C.ar    1  LIG1       -0.0402
     18 C           0.9566    2.3159    0.4315 C.ar    1  LIG1        0.0040
     19 C           2.9598    4.0574    1.2791 C.3     1  LIG1        0.0158
     20 C           1.5856    4.0261    1.9513 C.3     1  LIG1        0.0517
     21 C           2.8167    3.9195   -0.2504 C.3     1  LIG1        0.0177
     22 O           0.9240    2.7737    1.7233 O.3     1  LIG1       -0.3963
     23 O           4.1090    3.5162   -0.7379 O.3     1  LIG1       -0.4662
     24 H           2.0269    4.7678    7.2729 H       1  LIG1        0.1173
     25 H           1.6144    8.7010   -2.4753 H       1  LIG1        0.1162
     26 H          -0.0151    5.5194    6.0811 H       1  LIG1        0.1177
     27 H           3.8658    3.6750    6.0152 H       1  LIG1        0.1173
     28 H           0.1280    6.7501   -2.8493 H       1  LIG1        0.1160
     29 H           3.6524    8.4582   -1.0807 H       1  LIG1        0.1169
     30 H           0.8227    0.7990   -3.1360 H       1  LIG1        0.1127
     31 H          -0.6765   -0.0723   -1.3641 H       1  LIG1        0.1294
     32 H          -0.2229    5.1811    3.6404 H       1  LIG1        0.1207
     33 H           3.6676    3.3323    3.5746 H       1  LIG1        0.1257
     34 H           0.6726    4.5621   -1.8341 H       1  LIG1        0.1149
     35 H           4.2058    6.2747   -0.0613 H       1  LIG1        0.1249
     36 H           2.4094    2.6138   -2.6371 H       1  LIG1        0.1222
     37 H          -0.5951    0.8882    0.9099 H       1  LIG1        0.1285
     38 H           3.5102    4.9722    1.5377 H       1  LIG1        0.0887
     39 H           3.5715    3.2237    1.6559 H       1  LIG1        0.0877
     40 H           0.9354    4.8384    1.5678 H       1  LIG1        0.1371
     41 H           4.3024    2.6600   -0.3267 H       1  LIG1        0.3336
@<TRIPOS>BOND
     1     1     3   ar
     2     1     4   ar
     3     2     5   ar
     4     2     6   ar
     5     3     9   ar
     6     4    10   ar
     7     5    11   ar
     8     6    12   ar
     9     7     8   ar
    10     7    13   ar
    11     8    14   ar
    12     9    15   ar
    13    10    15   ar
    14    11    16   ar
    15    12    16   ar
    16    13    17   ar
    17    14    18   ar
    18    15    20    1
    19    16    21    1
    20    17    18   ar
    21    17    21    1
    22    18    22    1
    23    19    20    1
    24    19    21    1
    25    20    22    1
    26    21    23    1
    27     1    24    1
    28     2    25    1
    29     3    26    1
    30     4    27    1
    31     5    28    1
    32     6    29    1
    33     7    30    1
    34     8    31    1
    35     9    32    1
    36    10    33    1
    37    11    34    1
    38    12    35    1
    39    13    36    1
    40    14    37    1
    41    19    38    1
    42    19    39    1
    43    20    40    1
    44    23    41    1
