@<TRIPOS>MOLECULE
AM-814/41094610
 37 39 0 0 0
SMALL
USER_CHARGES

@<TRIPOS>ATOM
      1 C           1.9824    7.5802   -2.2883 C.ar    1  LIG1       -0.1075
      2 C           0.1854    0.7101   -1.7893 C.ar    1  LIG1       -0.1077
      3 C           1.0992    7.2909   -1.2481 C.ar    1  LIG1       -0.1028
      4 C           3.0136    6.6923   -2.5949 C.ar    1  LIG1       -0.1030
      5 C           1.5066    0.9321   -2.1773 C.ar    1  LIG1       -0.1040
      6 C          -0.4068    1.5306   -0.8291 C.ar    1  LIG1       -0.1036
      7 C           1.2473    6.1139   -0.5144 C.ar    1  LIG1       -0.0833
      8 C           3.1618    5.5153   -1.8613 C.ar    1  LIG1       -0.0836
      9 C           2.2357    1.9746   -1.6052 C.ar    1  LIG1       -0.0870
     10 C           0.3223    2.5729   -0.2570 C.ar    1  LIG1       -0.0863
     11 C           2.2786    5.2260   -0.8211 C.ar    1  LIG1       -0.0303
     12 C           1.6435    2.7950   -0.6450 C.ar    1  LIG1       -0.0344
     13 C           3.1790    4.2243    2.1365 C.3     1  LIG1        0.0300
     14 C           4.1148    3.2864    1.4129 C.3     1  LIG1        0.0289
     15 C           2.4416    3.9367   -0.0179 C.3     1  LIG1        0.1097
     16 C           2.8739    3.8265    3.5662 C.3     1  LIG1       -0.0313
     17 C           5.5829    3.5113    1.7117 C.3     1  LIG1       -0.0325
     18 O           1.9926    4.1503    1.3419 O.3     1  LIG1       -0.4076
     19 O           3.8428    3.5771    0.0395 O.3     1  LIG1       -0.4090
     20 H           1.8661    8.4961   -2.8603 H       1  LIG1        0.1160
     21 H          -0.3826   -0.1008   -2.2359 H       1  LIG1        0.1159
     22 H           0.2956    7.9815   -1.0099 H       1  LIG1        0.1160
     23 H           3.7007    6.9167   -3.4054 H       1  LIG1        0.1158
     24 H           1.9675    0.2941   -2.9257 H       1  LIG1        0.1155
     25 H          -1.4358    1.3586   -0.5275 H       1  LIG1        0.1155
     26 H           0.5546    5.8968    0.2943 H       1  LIG1        0.1273
     27 H           3.9682    4.8296   -2.1071 H       1  LIG1        0.1265
     28 H           3.2646    2.1401   -1.9135 H       1  LIG1        0.1252
     29 H          -0.1473    3.2070    0.4904 H       1  LIG1        0.1264
     30 H           3.5362    5.2608    2.1002 H       1  LIG1        0.1138
     31 H           3.8498    2.2365    1.5869 H       1  LIG1        0.1154
     32 H           2.5177    2.7942    3.6068 H       1  LIG1        0.0509
     33 H           2.1025    4.4767    3.9864 H       1  LIG1        0.0575
     34 H           3.7716    3.9085    4.1843 H       1  LIG1        0.0528
     35 H           5.8511    4.5566    1.5394 H       1  LIG1        0.0551
     36 H           6.2034    2.8832    1.0677 H       1  LIG1        0.0511
     37 H           5.8020    3.2639    2.7535 H       1  LIG1        0.0483
@<TRIPOS>BOND
     1     1     3   ar
     2     1     4   ar
     3     2     5   ar
     4     2     6   ar
     5     3     7   ar
     6     4     8   ar
     7     5     9   ar
     8     6    10   ar
     9     7    11   ar
    10     8    11   ar
    11     9    12   ar
    12    10    12   ar
    13    11    15    1
    14    12    15    1
    15    13    14    1
    16    13    16    1
    17    13    18    1
    18    14    17    1
    19    14    19    1
    20    15    18    1
    21    15    19    1
    22     1    20    1
    23     2    21    1
    24     3    22    1
    25     4    23    1
    26     5    24    1
    27     6    25    1
    28     7    26    1
    29     8    27    1
    30     9    28    1
    31    10    29    1
    32    13    30    1
    33    14    31    1
    34    16    32    1
    35    16    33    1
    36    16    34    1
    37    17    35    1
    38    17    36    1
    39    17    37    1
