@<TRIPOS>MOLECULE
AE-406/41056508
 46 48 0 0 0
SMALL
USER_CHARGES

@<TRIPOS>ATOM
      1 C           0.5646    0.9562   -2.4900 C.ar    1  LIG1       -0.1067
      2 C           1.7554    7.4144   -2.4195 C.ar    1  LIG1       -0.1069
      3 C           1.7862    0.8736   -1.8219 C.ar    1  LIG1       -0.1008
      4 C          -0.4736    1.7181   -1.9537 C.ar    1  LIG1       -0.1026
      5 C           2.9511    6.7296   -2.6365 C.ar    1  LIG1       -0.1022
      6 C           0.9519    7.0861   -1.3276 C.ar    1  LIG1       -0.0997
      7 C           1.9698    1.5529   -0.6175 C.ar    1  LIG1       -0.0795
      8 C          -0.2901    2.3974   -0.7494 C.ar    1  LIG1       -0.0826
      9 C           3.3431    5.7164   -1.7616 C.ar    1  LIG1       -0.0769
     10 C           1.3439    6.0729   -0.4528 C.ar    1  LIG1       -0.0740
     11 C           0.9315    2.3147   -0.0812 C.ar    1  LIG1       -0.0417
     12 C           2.5395    5.3880   -0.6698 C.ar    1  LIG1        0.0087
     13 C           1.1229    3.0249    1.1780 C.ar    1  LIG1       -0.0049
     14 C           2.0593    3.9773    1.3945 C.ar    1  LIG1        0.0834
     15 C           1.2984    4.2577    3.7030 C.ar    1  LIG1       -0.0102
     16 C           2.1612    4.6366    2.7261 C.ar    1  LIG1       -0.0058
     17 C           0.2664    3.2002    3.4508 C.ar    1  LIG1        0.0176
     18 C           2.9543    4.3162    0.2557 C.2     1  LIG1        0.1159
     19 C           1.9772    2.4440    6.7470 C.3     1  LIG1       -0.0761
     20 C           1.2806    4.8366    5.0946 C.3     1  LIG1       -0.0489
     21 C           3.0257    3.1985    5.9442 C.3     1  LIG1       -0.0760
     22 C           2.6375    4.6675    5.7590 C.3     1  LIG1       -0.0698
     23 N           0.2610    2.6598    2.1868 N.ar    1  LIG1       -0.3073
     24 O           3.0809    5.5009    2.7656 O.3     1  LIG1       -0.4761
     25 O          -0.5182    2.8507    4.3304 O.2     1  LIG1       -0.6056
     26 O           3.9921    3.6961    0.0979 O.2     1  LIG1       -0.4527
     27 H           0.4220    0.4284   -3.4284 H       1  LIG1        0.1148
     28 H           1.4502    8.2032   -3.1007 H       1  LIG1        0.1171
     29 H           2.5951    0.2814   -2.2399 H       1  LIG1        0.1175
     30 H          -1.4244    1.7835   -2.4744 H       1  LIG1        0.1161
     31 H           3.5766    6.9852   -3.4868 H       1  LIG1        0.1126
     32 H           0.0211    7.6195   -1.1586 H       1  LIG1        0.1145
     33 H           2.9277    1.4788   -0.1083 H       1  LIG1        0.1336
     34 H          -1.1088    2.9871   -0.3441 H       1  LIG1        0.1258
     35 H           4.2768    5.1892   -1.9400 H       1  LIG1        0.1326
     36 H           0.7098    5.8255    0.3946 H       1  LIG1        0.1361
     37 H           0.9974    2.4969    6.2614 H       1  LIG1        0.0225
     38 H           1.8841    2.8577    7.7563 H       1  LIG1        0.0264
     39 H           2.2554    1.3892    6.8365 H       1  LIG1        0.0264
     40 H           0.4879    4.3452    5.6576 H       1  LIG1        0.0528
     41 H           1.0426    5.8957    4.9902 H       1  LIG1        0.0479
     42 H           3.9894    3.1231    6.4599 H       1  LIG1        0.0337
     43 H           3.1426    2.7185    4.9657 H       1  LIG1        0.0331
     44 H           3.4129    5.1817    5.1774 H       1  LIG1        0.0371
     45 H           2.5969    5.1529    6.7418 H       1  LIG1        0.0395
     46 H          -0.4276    1.9402    1.9830 H       1  LIG1        0.3410
@<TRIPOS>BOND
     1     1     3   ar
     2     1     4   ar
     3     2     5   ar
     4     2     6   ar
     5     3     7   ar
     6     4     8   ar
     7     5     9   ar
     8     6    10   ar
     9     7    11   ar
    10     8    11   ar
    11     9    12   ar
    12    10    12   ar
    13    11    13    1
    14    12    18    1
    15    13    14   ar
    16    13    23   ar
    17    14    16   ar
    18    14    18    1
    19    15    16   ar
    20    15    17   ar
    21    15    20    1
    22    16    24    1
    23    17    23   ar
    24    17    25    2
    25    18    26    2
    26    19    21    1
    27    20    22    1
    28    21    22    1
    29     1    27    1
    30     2    28    1
    31     3    29    1
    32     4    30    1
    33     5    31    1
    34     6    32    1
    35     7    33    1
    36     8    34    1
    37     9    35    1
    38    10    36    1
    39    19    37    1
    40    19    38    1
    41    19    39    1
    42    20    40    1
    43    20    41    1
    44    21    42    1
    45    21    43    1
    46    22    44    1
    47    22    45    1
    48    23    46    1
