@<TRIPOS>MOLECULE
AP-518/41793835
 67 69 0 0 0
SMALL
USER_CHARGES

@<TRIPOS>ATOM
      1 C           2.0170    7.6170   -2.0732 C.ar    1  LIG1       -0.1088
      2 C           2.9751    6.6907   -2.4847 C.ar    1  LIG1       -0.1065
      3 C           1.1793    7.3229   -0.9973 C.ar    1  LIG1       -0.1048
      4 C           3.0956    5.4701   -1.8203 C.ar    1  LIG1       -0.0948
      5 C           1.2998    6.1023   -0.3329 C.ar    1  LIG1       -0.0923
      6 C           2.2806    1.5786   -1.1070 C.ar    1  LIG1       -0.0931
      7 C           0.2339    2.8358   -0.8474 C.ar    1  LIG1       -0.0801
      8 C           1.5675    0.5419   -1.7090 C.ar    1  LIG1       -0.0708
      9 C          -0.4792    1.7991   -1.4494 C.ar    1  LIG1       -0.0562
     10 C           3.2153    4.2838    4.8168 C.ar    1  LIG1       -0.0602
     11 C           1.0101    4.7171    3.9301 C.ar    1  LIG1       -0.0689
     12 C           1.3516    4.6086    6.3194 C.ar    1  LIG1       -0.0871
     13 C           2.3664    4.4644    3.7249 C.ar    1  LIG1        0.0239
     14 C           2.2580    5.1759   -0.7445 C.ar    1  LIG1       -0.0731
     15 C           1.6138    2.7255   -0.6762 C.ar    1  LIG1       -0.0715
     16 C           2.7079    4.3560    6.1141 C.ar    1  LIG1       -0.0974
     17 C           0.5026    4.7891    5.2275 C.ar    1  LIG1       -0.1024
     18 C           0.1876    0.6522   -1.8802 C.ar    1  LIG1       -0.0150
     19 C           2.8959    4.3878    2.3724 C.2     1  LIG1        0.1059
     20 C           5.0817    3.8943    6.8197 C.3     1  LIG1       -0.0617
     21 C           3.1672    2.9486    8.1525 C.3     1  LIG1       -0.0618
     22 C           3.7057    5.3730    8.2695 C.3     1  LIG1       -0.0618
     23 C          -1.7033    5.2247    4.0916 C.3     1  LIG1       -0.0619
     24 C          -1.1629    6.3665    6.2689 C.3     1  LIG1       -0.0621
     25 C          -1.7271    3.9456    6.2236 C.3     1  LIG1       -0.0619
     26 C          -1.9161   -0.1807   -2.6126 C.3     1  LIG1        0.0232
     27 C           2.3880    3.8513   -0.0232 C.3     1  LIG1        0.0127
     28 C           3.6440    4.1569    7.3177 C.3     1  LIG1       -0.0606
     29 C          -0.9479    5.0582    5.4466 C.3     1  LIG1       -0.0617
     30 N           2.0079    3.9966    1.3636 N.am    1  LIG1       -0.3282
     31 O           4.0924    4.6424    2.1475 O.2     1  LIG1       -0.4768
     32 O          -0.5078   -0.3589   -2.4688 O.3     1  LIG1       -0.4187
     33 H           1.9242    8.5679   -2.5897 H       1  LIG1        0.1133
     34 H           3.6281    6.9199   -3.3217 H       1  LIG1        0.1130
     35 H           0.4340    8.0444   -0.6759 H       1  LIG1        0.1158
     36 H           3.8449    4.7543   -2.1481 H       1  LIG1        0.1135
     37 H           0.6428    5.8818    0.5042 H       1  LIG1        0.1207
     38 H           3.3555    1.4841   -0.9776 H       1  LIG1        0.1224
     39 H          -0.2939    3.7258   -0.5147 H       1  LIG1        0.1370
     40 H           2.0927   -0.3491   -2.0428 H       1  LIG1        0.1127
     41 H          -1.5537    1.8912   -1.5803 H       1  LIG1        0.1307
     42 H           4.2732    4.0858    4.6587 H       1  LIG1        0.1454
     43 H           0.3465    4.8583    3.0799 H       1  LIG1        0.1265
     44 H           0.9562    4.6654    7.3310 H       1  LIG1        0.1293
     45 H           5.7706    3.7487    7.6600 H       1  LIG1        0.0389
     46 H           5.1465    2.9975    6.1938 H       1  LIG1        0.0392
     47 H           5.4535    4.7376    6.2257 H       1  LIG1        0.0389
     48 H           3.8066    2.7684    9.0236 H       1  LIG1        0.0377
     49 H           2.1496    3.1052    8.5292 H       1  LIG1        0.0408
     50 H           3.1631    2.0313    7.5520 H       1  LIG1        0.0383
     51 H           4.3843    5.1830    9.1097 H       1  LIG1        0.0384
     52 H           4.0727    6.2694    7.7560 H       1  LIG1        0.0408
     53 H           2.7219    5.6022    8.6957 H       1  LIG1        0.0377
     54 H          -2.7731    5.4235    4.2247 H       1  LIG1        0.0381
     55 H          -1.2945    6.0537    3.5036 H       1  LIG1        0.0404
     56 H          -1.6056    4.3141    3.4887 H       1  LIG1        0.0383
     57 H          -2.2274    6.5676    6.4320 H       1  LIG1        0.0378
     58 H          -0.6892    6.3287    7.2568 H       1  LIG1        0.0399
     59 H          -0.7444    7.2255    5.7310 H       1  LIG1        0.0373
     60 H          -2.7878    4.1890    6.3593 H       1  LIG1        0.0384
     61 H          -1.6825    2.9907    5.6868 H       1  LIG1        0.0404
     62 H          -1.3008    3.7963    7.2225 H       1  LIG1        0.0382
     63 H          -2.3480   -1.0601   -3.0965 H       1  LIG1        0.0889
     64 H          -2.1119    0.7116   -3.2126 H       1  LIG1        0.1218
     65 H          -2.3617   -0.0567   -1.6227 H       1  LIG1        0.0888
     66 H           3.4464    3.5618    0.0114 H       1  LIG1        0.1554
     67 H           1.0580    3.7394    1.6112 H       1  LIG1        0.3004
@<TRIPOS>BOND
     1     1     2   ar
     2     1     3   ar
     3     2     4   ar
     4     3     5   ar
     5     4    14   ar
     6     5    14   ar
     7     6     8   ar
     8     6    15   ar
     9     7     9   ar
    10     7    15   ar
    11     8    18   ar
    12     9    18   ar
    13    10    13   ar
    14    10    16   ar
    15    11    13   ar
    16    11    17   ar
    17    12    16   ar
    18    12    17   ar
    19    13    19    1
    20    14    27    1
    21    15    27    1
    22    16    28    1
    23    17    29    1
    24    18    32    1
    25    19    30   am
    26    19    31    2
    27    20    28    1
    28    21    28    1
    29    22    28    1
    30    23    29    1
    31    24    29    1
    32    25    29    1
    33    26    32    1
    34    27    30    1
    35     1    33    1
    36     2    34    1
    37     3    35    1
    38     4    36    1
    39     5    37    1
    40     6    38    1
    41     7    39    1
    42     8    40    1
    43     9    41    1
    44    10    42    1
    45    11    43    1
    46    12    44    1
    47    20    45    1
    48    20    46    1
    49    20    47    1
    50    21    48    1
    51    21    49    1
    52    21    50    1
    53    22    51    1
    54    22    52    1
    55    22    53    1
    56    23    54    1
    57    23    55    1
    58    23    56    1
    59    24    57    1
    60    24    58    1
    61    24    59    1
    62    25    60    1
    63    25    61    1
    64    25    62    1
    65    26    63    1
    66    26    64    1
    67    26    65    1
    68    27    66    1
    69    30    67    1
