@<TRIPOS>MOLECULE
AG-670/34887046
 49 50 0 0 0
SMALL
USER_CHARGES

@<TRIPOS>ATOM
      1 C           2.2062    3.5464    3.8536 C.1     1  LIG1       -0.2111
      2 C           2.7740    3.9914    2.8934 C.1     1  LIG1       -0.1372
      3 C           2.1816    7.5321   -2.4341 C.ar    1  LIG1       -0.1065
      4 C           0.3243    0.6096   -2.0776 C.ar    1  LIG1       -0.1059
      5 C           0.9876    7.2152   -1.7864 C.ar    1  LIG1       -0.1042
      6 C           3.2960    6.7063   -2.2859 C.ar    1  LIG1       -0.1054
      7 C          -0.5346    1.5307   -1.4782 C.ar    1  LIG1       -0.1028
      8 C           1.7053    0.7885   -1.9967 C.ar    1  LIG1       -0.1038
      9 C           0.9079    6.0725   -0.9904 C.ar    1  LIG1       -0.0961
     10 C           3.2163    5.5636   -1.4899 C.ar    1  LIG1       -0.0987
     11 C          -0.0126    2.6309   -0.7979 C.ar    1  LIG1       -0.0912
     12 C           2.2273    1.8888   -1.3164 C.ar    1  LIG1       -0.0937
     13 C           2.0223    5.2467   -0.8421 C.ar    1  LIG1       -0.0724
     14 C           1.3684    2.8099   -0.7170 C.ar    1  LIG1       -0.0661
     15 C          -1.2699    3.0412    4.1858 C.3     1  LIG1       -0.0683
     16 C           2.7071    0.3672    5.3005 C.3     1  LIG1       -0.0685
     17 C           1.5170    3.0091    5.0237 C.3     1  LIG1       -0.0455
     18 C           3.4667    4.5347    1.7257 C.3     1  LIG1        0.0809
     19 C          -0.2981    2.0210    3.6345 C.3     1  LIG1       -0.1002
     20 C           1.7147    0.6677    4.1986 C.3     1  LIG1       -0.1015
     21 C           1.9366    4.0059    0.0222 C.3     1  LIG1        0.0471
     22 N           0.7895    1.7710    4.6503 N.4     1  LIG1        0.4064
     23 O           3.2067    3.7190    0.5921 O.3     1  LIG1       -0.4121
     24 H           2.2430    8.4212   -3.0550 H       1  LIG1        0.1179
     25 H          -0.0822   -0.2478   -2.6061 H       1  LIG1        0.1183
     26 H           0.1195    7.8574   -1.9026 H       1  LIG1        0.1156
     27 H           4.2254    6.9521   -2.7909 H       1  LIG1        0.1178
     28 H          -1.6100    1.3909   -1.5402 H       1  LIG1        0.1163
     29 H           2.3744    0.0710   -2.4623 H       1  LIG1        0.1188
     30 H          -0.0265    5.8335   -0.4894 H       1  LIG1        0.1216
     31 H           4.0897    4.9262   -1.3801 H       1  LIG1        0.1179
     32 H          -0.6895    3.3436   -0.3341 H       1  LIG1        0.1234
     33 H           3.3046    2.0201   -1.2586 H       1  LIG1        0.1194
     34 H          -1.7429    2.6595    5.0957 H       1  LIG1        0.0461
     35 H          -0.7609    3.9777    4.4363 H       1  LIG1        0.0463
     36 H          -2.0605    3.2663    3.4623 H       1  LIG1        0.0656
     37 H           3.3172    1.2509    5.5109 H       1  LIG1        0.0487
     38 H           2.1965    0.0804    6.2257 H       1  LIG1        0.0454
     39 H           3.3798   -0.4486    5.0157 H       1  LIG1        0.0639
     40 H           2.2146    2.7365    5.8200 H       1  LIG1        0.1420
     41 H           0.7716    3.7064    5.4155 H       1  LIG1        0.1426
     42 H           3.1219    5.5502    1.5087 H       1  LIG1        0.1528
     43 H           4.5476    4.5604    1.8941 H       1  LIG1        0.1524
     44 H           0.1895    2.3780    2.7232 H       1  LIG1        0.0895
     45 H          -0.7852    1.0610    3.4425 H       1  LIG1        0.0880
     46 H           1.0909   -0.2004    3.9682 H       1  LIG1        0.0834
     47 H           2.2127    1.0179    3.2903 H       1  LIG1        0.0879
     48 H           1.2938    4.2243    0.8847 H       1  LIG1        0.1434
     49 H           0.3135    1.4161    5.4974 H       1  LIG1        0.1720
@<TRIPOS>BOND
     1     1     2    3
     2     1    17    1
     3     2    18    1
     4     3     5   ar
     5     3     6   ar
     6     4     7   ar
     7     4     8   ar
     8     5     9   ar
     9     6    10   ar
    10     7    11   ar
    11     8    12   ar
    12     9    13   ar
    13    10    13   ar
    14    11    14   ar
    15    12    14   ar
    16    13    21    1
    17    14    21    1
    18    15    19    1
    19    16    20    1
    20    17    22    1
    21    18    23    1
    22    19    22    1
    23    20    22    1
    24    21    23    1
    25     3    24    1
    26     4    25    1
    27     5    26    1
    28     6    27    1
    29     7    28    1
    30     8    29    1
    31     9    30    1
    32    10    31    1
    33    11    32    1
    34    12    33    1
    35    15    34    1
    36    15    35    1
    37    15    36    1
    38    16    37    1
    39    16    38    1
    40    16    39    1
    41    17    40    1
    42    17    41    1
    43    18    42    1
    44    18    43    1
    45    19    44    1
    46    19    45    1
    47    20    46    1
    48    20    47    1
    49    21    48    1
    50    22    49    1
