@<TRIPOS>MOLECULE
AE-641/14965058
 37 40 0 0 0
SMALL
USER_CHARGES

@<TRIPOS>ATOM
      1 C           3.0022    4.0652    3.9859 C.ar    1  LIG1       -0.1090
      2 C           3.2307    2.8722    3.3002 C.ar    1  LIG1       -0.1049
      3 C           2.6091    5.2068    3.2874 C.ar    1  LIG1       -0.1088
      4 C           0.1204    0.5712   -1.7537 C.ar    1  LIG1       -0.1072
      5 C           1.4799    0.6435   -2.0296 C.ar    1  LIG1       -0.1037
      6 C           3.2932    7.1825   -2.0731 C.ar    1  LIG1       -0.0992
      7 C           2.0556    7.7549   -2.3009 C.ar    1  LIG1       -0.0988
      8 C           3.0662    2.8208    1.9161 C.ar    1  LIG1       -0.0972
      9 C           2.4446    5.1554    1.9032 C.ar    1  LIG1       -0.1022
     10 C          -0.4907    1.5826   -1.0154 C.ar    1  LIG1       -0.1030
     11 C           2.2268    1.7248   -1.5630 C.ar    1  LIG1       -0.0912
     12 C           3.3681    5.9474   -1.4338 C.ar    1  LIG1       -0.0883
     13 C           0.9036    7.0904   -1.8836 C.ar    1  LIG1       -0.0872
     14 C           2.6732    3.9624    1.2176 C.ar    1  LIG1       -0.0908
     15 C           0.2517    2.6763   -0.5371 C.ar    1  LIG1       -0.0893
     16 C           1.6280    2.7519   -0.8076 C.ar    1  LIG1       -0.0792
     17 C           2.2129    5.2416   -1.0050 C.ar    1  LIG1       -0.0698
     18 C           0.9512    5.8365   -1.2278 C.ar    1  LIG1       -0.0562
     19 C          -0.4466    3.7706    0.2093 C.3     1  LIG1        0.0090
     20 C           2.4922    3.9067   -0.3058 C.3     1  LIG1        0.0103
     21 S          -0.6941    5.2390   -0.8145 S.3     1  LIG1       -0.1978
     22 H           3.1290    4.1046    5.0638 H       1  LIG1        0.1127
     23 H           3.5357    1.9828    3.8440 H       1  LIG1        0.1154
     24 H           2.4300    6.1355    3.8211 H       1  LIG1        0.1147
     25 H          -0.4665   -0.2666   -2.1174 H       1  LIG1        0.1162
     26 H           1.9612   -0.1397   -2.6078 H       1  LIG1        0.1199
     27 H           4.1991    7.6907   -2.3886 H       1  LIG1        0.1233
     28 H           1.9793    8.7163   -2.7996 H       1  LIG1        0.1233
     29 H           3.2467    1.8870    1.3901 H       1  LIG1        0.1190
     30 H           2.1382    6.0499    1.3674 H       1  LIG1        0.1139
     31 H          -1.5585    1.5160   -0.8205 H       1  LIG1        0.1128
     32 H           3.2897    1.7588   -1.7921 H       1  LIG1        0.1242
     33 H           4.3582    5.5263   -1.2658 H       1  LIG1        0.1209
     34 H          -0.0505    7.5797   -2.0803 H       1  LIG1        0.1269
     35 H          -1.4433    3.4291    0.5137 H       1  LIG1        0.1165
     36 H           0.0507    4.0286    1.1464 H       1  LIG1        0.0964
     37 H           3.5335    3.6076   -0.6281 H       1  LIG1        0.1082
@<TRIPOS>BOND
     1     1     2   ar
     2     1     3   ar
     3     2     8   ar
     4     3     9   ar
     5     4     5   ar
     6     4    10   ar
     7     5    11   ar
     8     6     7   ar
     9     6    12   ar
    10     7    13   ar
    11     8    14   ar
    12     9    14   ar
    13    10    15   ar
    14    11    16   ar
    15    12    17   ar
    16    13    18   ar
    17    14    20    1
    18    15    16   ar
    19    15    19    1
    20    16    20    1
    21    17    18   ar
    22    17    20    1
    23    18    21    1
    24    19    21    1
    25     1    22    1
    26     2    23    1
    27     3    24    1
    28     4    25    1
    29     5    26    1
    30     6    27    1
    31     7    28    1
    32     8    29    1
    33     9    30    1
    34    10    31    1
    35    11    32    1
    36    12    33    1
    37    13    34    1
    38    19    35    1
    39    19    36    1
    40    20    37    1
