@<TRIPOS>MOLECULE
AJ-292/14407012
 44 48 0 0 0
SMALL
USER_CHARGES

@<TRIPOS>ATOM
      1 C           1.4537    5.4370    5.8750 C.ar    1  LIG1       -0.0902
      2 C           1.6405    4.1332    6.3633 C.ar    1  LIG1       -0.0887
      3 C           1.3539    7.4348   -1.7623 C.ar    1  LIG1       -0.0881
      4 C           2.1071    6.6910   -2.6570 C.ar    1  LIG1       -0.0920
      5 C          -0.3660    2.2813   -1.0597 C.ar    1  LIG1       -0.1016
      6 C           1.6433    5.7312    4.5185 C.ar    1  LIG1       -0.0723
      7 C           2.0198    3.1047    5.5034 C.ar    1  LIG1       -0.0678
      8 C           0.6480    2.8231   -0.2700 C.ar    1  LIG1       -0.0909
      9 C           1.4037    7.1338   -0.4016 C.ar    1  LIG1       -0.0606
     10 C          -0.0924    1.2064   -1.9055 C.ar    1  LIG1       -0.0723
     11 C           2.9085    5.6535   -2.1862 C.ar    1  LIG1       -0.0774
     12 C           2.2095    1.2150   -1.1718 C.ar    1  LIG1       -0.0435
     13 C           2.0200    4.7084    3.6595 C.ar    1  LIG1       -0.0210
     14 C           2.1979    3.4311    4.1720 C.ar    1  LIG1        0.0167
     15 C           1.9358    2.2900   -0.3260 C.ar    1  LIG1       -0.0679
     16 C           2.2027    6.0833    0.1043 C.ar    1  LIG1       -0.0496
     17 C           1.1954    0.6733   -1.9615 C.ar    1  LIG1       -0.0098
     18 C           2.9581    5.3337   -0.8151 C.ar    1  LIG1       -0.0296
     19 C           2.2902    4.6994    2.2141 C.2     1  LIG1       -0.0249
     20 C           2.5868    2.5794    3.0636 C.2     1  LIG1        0.1090
     21 C           2.6280    3.4453    1.8522 C.2     1  LIG1        0.0355
     22 C           3.0401    2.8804    0.5337 C.3     1  LIG1        0.0418
     23 C           0.3789   -0.8814   -3.5653 C.3     1  LIG1        0.0227
     24 N           2.1204    5.8498    1.4927 N.pl3   1  LIG1       -0.3565
     25 O           2.8254    1.3912    3.1274 O.2     1  LIG1       -0.4350
     26 O           1.4622   -0.3761   -2.7864 O.3     1  LIG1       -0.4181
     27 S           4.1161    4.0460   -0.3710 S.3     1  LIG1       -0.1740
     28 H           1.1585    6.2283    6.5597 H       1  LIG1        0.1289
     29 H           1.4872    3.9277    7.4192 H       1  LIG1        0.1267
     30 H           0.7266    8.2467   -2.1182 H       1  LIG1        0.1318
     31 H           2.0787    6.9197   -3.7181 H       1  LIG1        0.1249
     32 H          -1.3686    2.6962   -1.0157 H       1  LIG1        0.1236
     33 H           1.4942    6.7472    4.1682 H       1  LIG1        0.1403
     34 H           2.1669    2.0957    5.8702 H       1  LIG1        0.1503
     35 H           0.4255    3.6609    0.3856 H       1  LIG1        0.1176
     36 H           0.7952    7.7284    0.2786 H       1  LIG1        0.1356
     37 H          -0.8865    0.7889   -2.5181 H       1  LIG1        0.1111
     38 H           3.5014    5.0964   -2.9097 H       1  LIG1        0.1421
     39 H           3.2126    0.7975   -1.2177 H       1  LIG1        0.1365
     40 H           3.7327    2.0089    0.7427 H       1  LIG1        0.1250
     41 H           0.7279   -1.7160   -4.1782 H       1  LIG1        0.0882
     42 H          -0.0141   -0.0860   -4.2037 H       1  LIG1        0.1209
     43 H          -0.4094   -1.2300   -2.8940 H       1  LIG1        0.0882
     44 H           1.7479    6.6350    2.0172 H       1  LIG1        0.3146
@<TRIPOS>BOND
     1     1     2   ar
     2     1     6   ar
     3     2     7   ar
     4     3     4   ar
     5     3     9   ar
     6     4    11   ar
     7     5     8   ar
     8     5    10   ar
     9     6    13   ar
    10     7    14   ar
    11     8    15   ar
    12     9    16   ar
    13    10    17   ar
    14    11    18   ar
    15    12    15   ar
    16    12    17   ar
    17    13    14   ar
    18    13    19    1
    19    14    20    1
    20    15    22    1
    21    16    18   ar
    22    16    24    1
    23    17    26    1
    24    18    27    1
    25    19    21    2
    26    19    24    1
    27    20    21    1
    28    20    25    2
    29    21    22    1
    30    22    27    1
    31    23    26    1
    32     1    28    1
    33     2    29    1
    34     3    30    1
    35     4    31    1
    36     5    32    1
    37     6    33    1
    38     7    34    1
    39     8    35    1
    40     9    36    1
    41    10    37    1
    42    11    38    1
    43    12    39    1
    44    22    40    1
    45    23    41    1
    46    23    42    1
    47    23    43    1
    48    24    44    1
