@<TRIPOS>MOLECULE
AG-670/36127049
 40 42 0 0 0
SMALL
USER_CHARGES

@<TRIPOS>ATOM
      1 C           3.8504    2.6520    4.4440 C.1     1  LIG1        0.0614
      2 C           0.3814    0.6121   -1.8821 C.ar    1  LIG1       -0.1076
      3 C           2.1955    7.5580   -2.3941 C.ar    1  LIG1       -0.1052
      4 C           1.5994    4.6485    6.6231 C.ar    1  LIG1       -0.0864
      5 C           1.7133    0.9618   -2.1042 C.ar    1  LIG1       -0.1061
      6 C          -0.4045    1.3728   -1.0164 C.ar    1  LIG1       -0.1020
      7 C           3.1851    6.5822   -2.5118 C.ar    1  LIG1       -0.1041
      8 C           1.1655    7.3986   -1.4671 C.ar    1  LIG1       -0.1039
      9 C           0.8671    5.3709    5.6810 C.ar    1  LIG1       -0.0844
     10 C           2.5831    3.7527    6.2042 C.ar    1  LIG1       -0.0478
     11 C           2.2594    2.0721   -1.4604 C.ar    1  LIG1       -0.0972
     12 C           0.1417    2.4832   -0.3727 C.ar    1  LIG1       -0.0918
     13 C           3.1447    5.4467   -1.7026 C.ar    1  LIG1       -0.0994
     14 C           1.1252    6.2632   -0.6578 C.ar    1  LIG1       -0.0987
     15 C           1.1184    5.1972    4.3200 C.ar    1  LIG1       -0.0478
     16 C           2.8343    3.5790    4.8432 C.ar    1  LIG1        0.0816
     17 C           1.4736    2.8329   -0.5946 C.ar    1  LIG1       -0.0684
     18 C           2.1148    5.2873   -0.7755 C.ar    1  LIG1       -0.0755
     19 C           2.1019    4.3013    3.9011 C.ar    1  LIG1       -0.0045
     20 C           1.4160    4.3041    1.4754 C.2     1  LIG1        0.1157
     21 C           2.0699    4.0462    0.1093 C.3     1  LIG1        0.0882
     22 N           4.6738    1.9010    4.1207 N.1     1  LIG1       -0.3747
     23 N           2.3305    4.1490    2.5296 N.am    1  LIG1       -0.2970
     24 O           0.2314    4.6089    1.5822 O.2     1  LIG1       -0.4608
     25 H          -0.0441   -0.2517   -2.3846 H       1  LIG1        0.1150
     26 H           2.2279    8.4427   -3.0233 H       1  LIG1        0.1180
     27 H           1.4037    4.7840    7.6828 H       1  LIG1        0.1246
     28 H           2.3249    0.3702   -2.7791 H       1  LIG1        0.1147
     29 H          -1.4418    1.1015   -0.8441 H       1  LIG1        0.1152
     30 H           3.9879    6.7067   -3.2327 H       1  LIG1        0.1179
     31 H           0.3954    8.1587   -1.3744 H       1  LIG1        0.1188
     32 H           0.1014    6.0686    6.0073 H       1  LIG1        0.1375
     33 H           3.1449    3.1977    6.9520 H       1  LIG1        0.1479
     34 H           3.2983    2.3370   -1.6393 H       1  LIG1        0.1184
     35 H          -0.4781    3.0699    0.3002 H       1  LIG1        0.1243
     36 H           3.9200    4.6914   -1.8013 H       1  LIG1        0.1181
     37 H           0.3188    6.1474    0.0616 H       1  LIG1        0.1210
     38 H           0.5407    5.7662    3.5959 H       1  LIG1        0.1516
     39 H           3.1186    3.7983    0.3369 H       1  LIG1        0.1463
     40 H           3.2875    3.9009    2.2595 H       1  LIG1        0.3272
@<TRIPOS>BOND
     1     1    16    1
     2     1    22    3
     3     2     5   ar
     4     2     6   ar
     5     3     7   ar
     6     3     8   ar
     7     4     9   ar
     8     4    10   ar
     9     5    11   ar
    10     6    12   ar
    11     7    13   ar
    12     8    14   ar
    13     9    15   ar
    14    10    16   ar
    15    11    17   ar
    16    12    17   ar
    17    13    18   ar
    18    14    18   ar
    19    15    19   ar
    20    16    19   ar
    21    17    21    1
    22    18    21    1
    23    19    23    1
    24    20    21    1
    25    20    23   am
    26    20    24    2
    27     2    25    1
    28     3    26    1
    29     4    27    1
    30     5    28    1
    31     6    29    1
    32     7    30    1
    33     8    31    1
    34     9    32    1
    35    10    33    1
    36    11    34    1
    37    12    35    1
    38    13    36    1
    39    14    37    1
    40    15    38    1
    41    21    39    1
    42    23    40    1
