@<TRIPOS>MOLECULE
AK-823/41252359
 41 43 0 0 0
SMALL
USER_CHARGES

@<TRIPOS>ATOM
      1 C           2.5770    6.9577   -2.2986 C.ar    1  LIG1       -0.1059
      2 C           1.4454    4.6562    6.4511 C.ar    1  LIG1       -0.1080
      3 C           3.3661    5.9199   -1.8029 C.ar    1  LIG1       -0.1026
      4 C           1.2650    7.1117   -1.8503 C.ar    1  LIG1       -0.1044
      5 C           2.8047    4.7650    6.1583 C.ar    1  LIG1       -0.1070
      6 C           0.5205    4.4939    5.4196 C.ar    1  LIG1       -0.1047
      7 C           2.8433    5.0359   -0.8591 C.ar    1  LIG1       -0.0942
      8 C           0.7423    6.2277   -0.9066 C.ar    1  LIG1       -0.0959
      9 C           3.2394    4.7115    4.8339 C.ar    1  LIG1       -0.0997
     10 C           0.9550    4.4404    4.0953 C.ar    1  LIG1       -0.0962
     11 C           1.5313    5.1898   -0.4109 C.ar    1  LIG1       -0.0762
     12 C           2.3145    4.5492    3.8024 C.ar    1  LIG1       -0.0819
     13 C           1.6353    2.3415    1.8018 C.2     1  LIG1        0.2245
     14 C           0.6398    2.5190   -1.3115 C.2     1  LIG1       -0.0922
     15 C           1.2864    1.3717   -1.5623 C.2     1  LIG1       -0.1320
     16 C           0.9643    4.2323    0.6114 C.3     1  LIG1        0.0397
     17 C           0.2666    2.9808    0.0594 C.3     1  LIG1        0.0792
     18 C           1.6587    0.9098   -2.9323 C.3     1  LIG1       -0.0531
     19 C           2.7816    4.4919    2.3766 C.3     1  LIG1        0.0154
     20 N           1.9113    3.6715    1.5521 N.am    1  LIG1       -0.3013
     21 O           2.1691    1.6098    2.6248 O.2     1  LIG1       -0.4302
     22 O           0.6117    1.9286    0.9875 O.3     1  LIG1       -0.3020
     23 H           2.9846    7.6469   -3.0325 H       1  LIG1        0.1165
     24 H           1.1073    4.6965    7.4825 H       1  LIG1        0.1156
     25 H           4.3879    5.8006   -2.1509 H       1  LIG1        0.1164
     26 H           0.6507    7.9203   -2.2353 H       1  LIG1        0.1172
     27 H           3.5251    4.8903    6.9614 H       1  LIG1        0.1139
     28 H          -0.5379    4.4081    5.6473 H       1  LIG1        0.1155
     29 H           3.4654    4.2300   -0.4786 H       1  LIG1        0.1182
     30 H          -0.2810    6.3553   -0.5632 H       1  LIG1        0.1206
     31 H           4.3005    4.7973    4.6151 H       1  LIG1        0.1169
     32 H           0.2273    4.3139    3.2981 H       1  LIG1        0.1244
     33 H           0.3590    3.1685   -2.1363 H       1  LIG1        0.1106
     34 H           1.5670    0.7219   -0.7375 H       1  LIG1        0.1023
     35 H           0.1865    4.8328    1.2164 H       1  LIG1        0.1480
     36 H          -0.8146    3.0866    0.1066 H       1  LIG1        0.1672
     37 H           0.8501    0.3043   -3.3535 H       1  LIG1        0.0500
     38 H           1.8506    1.7442   -3.6142 H       1  LIG1        0.0491
     39 H           2.5614    0.2934   -2.8849 H       1  LIG1        0.0465
     40 H           2.8120    5.4959    1.9396 H       1  LIG1        0.1411
     41 H           3.7931    4.0777    2.3109 H       1  LIG1        0.1388
@<TRIPOS>BOND
     1     1     3   ar
     2     1     4   ar
     3     2     5   ar
     4     2     6   ar
     5     3     7   ar
     6     4     8   ar
     7     5     9   ar
     8     6    10   ar
     9     7    11   ar
    10     8    11   ar
    11     9    12   ar
    12    10    12   ar
    13    11    16    1
    14    12    19    1
    15    13    20   am
    16    13    21    2
    17    13    22    1
    18    14    15    2
    19    14    17    1
    20    15    18    1
    21    16    17    1
    22    16    20    1
    23    17    22    1
    24    19    20    1
    25     1    23    1
    26     2    24    1
    27     3    25    1
    28     4    26    1
    29     5    27    1
    30     6    28    1
    31     7    29    1
    32     8    30    1
    33     9    31    1
    34    10    32    1
    35    14    33    1
    36    15    34    1
    37    16    35    1
    38    17    36    1
    39    18    37    1
    40    18    38    1
    41    18    39    1
    42    19    40    1
    43    19    41    1
