@<TRIPOS>MOLECULE
AO-854/43462661
 42 44 0 0 0
SMALL
USER_CHARGES

@<TRIPOS>ATOM
      1 C           1.2696    4.1756    6.2892 C.ar    1  LIG1       -0.1093
      2 C           2.6146    7.1469   -2.7166 C.ar    1  LIG1       -0.1058
      3 C           0.8571    5.2764    5.5385 C.ar    1  LIG1       -0.1056
      4 C           2.2388    3.3097    5.7826 C.ar    1  LIG1       -0.1084
      5 C           1.2800    6.7475   -2.6478 C.ar    1  LIG1       -0.1048
      6 C           3.4833    6.8615   -1.6632 C.ar    1  LIG1       -0.1045
      7 C           2.0918    2.4397   -1.4216 C.ar    1  LIG1       -0.0541
      8 C           1.4134    5.5112    4.2811 C.ar    1  LIG1       -0.0966
      9 C           2.7951    3.5444    4.5253 C.ar    1  LIG1       -0.1013
     10 C           0.8139    6.0626   -1.5255 C.ar    1  LIG1       -0.0999
     11 C           3.0173    6.1766   -0.5410 C.ar    1  LIG1       -0.1002
     12 C           1.3203    1.8694   -2.4340 C.ar    1  LIG1       -0.0284
     13 C           0.5248    1.6295    0.2292 C.ar    1  LIG1        0.0030
     14 C           1.6941    2.3197   -0.0899 C.ar    1  LIG1        0.0419
     15 C           2.3825    4.6452    3.7745 C.ar    1  LIG1       -0.0855
     16 C           1.6826    5.7771   -0.4721 C.ar    1  LIG1       -0.0906
     17 C           0.1509    1.1791   -2.1149 C.ar    1  LIG1        0.1267
     18 C          -0.2469    1.0591   -0.7833 C.ar    1  LIG1        0.1325
     19 C           2.4984    2.9148    0.9657 C.2     1  LIG1        0.1273
     20 C           2.9815    4.8971    2.4210 C.3     1  LIG1        0.0084
     21 C           1.1816    5.0401    0.7362 C.3     1  LIG1        0.0053
     22 N           2.2309    4.2380    1.3615 N.am    1  LIG1       -0.3335
     23 O           3.3776    2.2039    1.4702 O.2     1  LIG1       -0.4647
     24 F          -0.5894    0.6307   -3.0870 F       1  LIG1       -0.2501
     25 F          -1.3694    0.3957   -0.4771 F       1  LIG1       -0.2522
     26 H           0.8373    3.9937    7.2688 H       1  LIG1        0.1140
     27 H           2.9776    7.6791   -3.5910 H       1  LIG1        0.1177
     28 H           0.1032    5.9514    5.9333 H       1  LIG1        0.1141
     29 H           2.5611    2.4531    6.3673 H       1  LIG1        0.1127
     30 H           0.6037    6.9688   -3.4683 H       1  LIG1        0.1175
     31 H           4.5227    7.1714   -1.7169 H       1  LIG1        0.1178
     32 H           3.0010    2.9758   -1.6810 H       1  LIG1        0.1499
     33 H           1.0856    6.3712    3.7031 H       1  LIG1        0.1253
     34 H           3.5494    2.8643    4.1386 H       1  LIG1        0.1148
     35 H          -0.2275    5.7554   -1.4805 H       1  LIG1        0.1191
     36 H           3.7013    5.9586    0.2751 H       1  LIG1        0.1166
     37 H           1.6296    1.9622   -3.4709 H       1  LIG1        0.1515
     38 H           0.2055    1.5300    1.2632 H       1  LIG1        0.1662
     39 H           3.0028    5.9703    2.2019 H       1  LIG1        0.1306
     40 H           4.0140    4.5352    2.3747 H       1  LIG1        0.1315
     41 H           0.8013    5.7421    1.4864 H       1  LIG1        0.1371
     42 H           0.3582    4.3678    0.4731 H       1  LIG1        0.1138
@<TRIPOS>BOND
     1     1     3   ar
     2     1     4   ar
     3     2     5   ar
     4     2     6   ar
     5     3     8   ar
     6     4     9   ar
     7     5    10   ar
     8     6    11   ar
     9     7    12   ar
    10     7    14   ar
    11     8    15   ar
    12     9    15   ar
    13    10    16   ar
    14    11    16   ar
    15    12    17   ar
    16    13    14   ar
    17    13    18   ar
    18    14    19    1
    19    15    20    1
    20    16    21    1
    21    17    18   ar
    22    17    24    1
    23    18    25    1
    24    19    22   am
    25    19    23    2
    26    20    22    1
    27    21    22    1
    28     1    26    1
    29     2    27    1
    30     3    28    1
    31     4    29    1
    32     5    30    1
    33     6    31    1
    34     7    32    1
    35     8    33    1
    36     9    34    1
    37    10    35    1
    38    11    36    1
    39    12    37    1
    40    13    38    1
    41    20    39    1
    42    20    40    1
    43    21    41    1
    44    21    42    1
