@<TRIPOS>MOLECULE
AF-399/40741354
 44 48 0 0 0
SMALL
USER_CHARGES

@<TRIPOS>ATOM
      1 C           1.3812    3.9414    6.2968 C.ar    1  LIG1       -0.1067
      2 C           0.3592    4.5669    5.5872 C.ar    1  LIG1       -0.1060
      3 C           2.5490    7.7149   -1.8507 C.ar    1  LIG1       -0.0891
      4 C           1.0423    0.6479   -0.1342 C.ar    1  LIG1       -0.0856
      5 C           1.4109    7.8693   -2.6230 C.ar    1  LIG1       -0.0911
      6 C          -0.1174    0.6141   -0.8889 C.ar    1  LIG1       -0.0920
      7 C           2.5981    3.6689    5.6727 C.ar    1  LIG1       -0.1032
      8 C           0.5501    4.9159    4.2505 C.ar    1  LIG1       -0.0988
      9 C           2.7765    6.5090   -1.1844 C.ar    1  LIG1       -0.0598
     10 C           1.7728    1.8344   -0.0376 C.ar    1  LIG1       -0.0492
     11 C           0.5090    6.8153   -2.7251 C.ar    1  LIG1       -0.0738
     12 C          -0.5429    1.7695   -1.5359 C.ar    1  LIG1       -0.0750
     13 C           2.8054    4.0275    4.3337 C.ar    1  LIG1       -0.1008
     14 C           1.7669    4.6417    3.6095 C.ar    1  LIG1       -0.0854
     15 C           1.8746    5.4217   -1.2664 C.ar    1  LIG1       -0.0095
     16 C           1.3713    3.0210   -0.6958 C.ar    1  LIG1       -0.0031
     17 C           0.7313    5.5945   -2.0569 C.ar    1  LIG1       -0.0087
     18 C           0.1876    2.9715   -1.4432 C.ar    1  LIG1       -0.0065
     19 C           3.3478    4.1437    0.2281 C.2     1  LIG1        0.1742
     20 C           4.1162    3.7003    3.6654 C.3     1  LIG1       -0.0162
     21 C           1.9411    5.0391    2.1630 C.3     1  LIG1        0.0124
     22 C           4.3606    4.5880    2.4508 C.3     1  LIG1       -0.0011
     23 N           2.1729    4.2087   -0.5482 N.am    1  LIG1       -0.2521
     24 N           3.1973    4.5576    1.5679 N.am    1  LIG1       -0.3186
     25 O           4.4136    3.7425   -0.2509 O.2     1  LIG1       -0.4518
     26 S          -0.5102    4.3586   -2.2860 S.3     1  LIG1       -0.1295
     27 H           1.2316    3.6666    7.3367 H       1  LIG1        0.1162
     28 H          -0.5862    4.7859    6.0751 H       1  LIG1        0.1166
     29 H           3.2630    8.5281   -1.7608 H       1  LIG1        0.1322
     30 H           1.3858   -0.2444    0.3806 H       1  LIG1        0.1310
     31 H           1.2219    8.8033   -3.1425 H       1  LIG1        0.1303
     32 H          -0.6866   -0.3056   -0.9807 H       1  LIG1        0.1274
     33 H           3.3847    3.1732    6.2361 H       1  LIG1        0.1162
     34 H          -0.2551    5.4071    3.7097 H       1  LIG1        0.1178
     35 H           3.6865    6.4497   -0.5920 H       1  LIG1        0.1343
     36 H           2.6725    1.7972    0.5719 H       1  LIG1        0.1565
     37 H          -0.3792    6.9599   -3.3385 H       1  LIG1        0.1426
     38 H          -1.4577    1.7189   -2.1241 H       1  LIG1        0.1392
     39 H           4.9184    3.8459    4.3993 H       1  LIG1        0.0829
     40 H           4.1303    2.6510    3.3498 H       1  LIG1        0.0770
     41 H           1.1264    4.6017    1.5732 H       1  LIG1        0.1368
     42 H           1.8749    6.1279    2.0853 H       1  LIG1        0.1309
     43 H           4.5848    5.6093    2.7743 H       1  LIG1        0.1110
     44 H           5.2207    4.2314    1.8702 H       1  LIG1        0.1282
@<TRIPOS>BOND
     1     1     2   ar
     2     1     7   ar
     3     2     8   ar
     4     3     5   ar
     5     3     9   ar
     6     4     6   ar
     7     4    10   ar
     8     5    11   ar
     9     6    12   ar
    10     7    13   ar
    11     8    14   ar
    12     9    15   ar
    13    10    16   ar
    14    11    17   ar
    15    12    18   ar
    16    13    14   ar
    17    13    20    1
    18    14    21    1
    19    15    17   ar
    20    15    23    1
    21    16    18   ar
    22    16    23    1
    23    17    26    1
    24    18    26    1
    25    19    23   am
    26    19    24   am
    27    19    25    2
    28    20    22    1
    29    21    24    1
    30    22    24    1
    31     1    27    1
    32     2    28    1
    33     3    29    1
    34     4    30    1
    35     5    31    1
    36     6    32    1
    37     7    33    1
    38     8    34    1
    39     9    35    1
    40    10    36    1
    41    11    37    1
    42    12    38    1
    43    20    39    1
    44    20    40    1
    45    21    41    1
    46    21    42    1
    47    22    43    1
    48    22    44    1
