@<TRIPOS>MOLECULE
AG-205/36813035
 52 56 0 0 0
SMALL
USER_CHARGES

@<TRIPOS>ATOM
      1 C          -0.0720    0.7464   -1.5529 C.ar    1  LIG1       -0.1095
      2 C          -0.4414    2.0360   -1.1708 C.ar    1  LIG1       -0.1078
      3 C           1.2756    0.4275   -1.7199 C.ar    1  LIG1       -0.1071
      4 C           0.5368    3.0068   -0.9560 C.ar    1  LIG1       -0.1035
      5 C           2.2538    1.3983   -1.5052 C.ar    1  LIG1       -0.1021
      6 C           1.5152    7.2454   -0.7063 C.ar    1  LIG1       -0.0448
      7 C           1.7446    7.6981   -2.0056 C.ar    1  LIG1       -0.0615
      8 C           2.7519    5.5752   -2.5675 C.ar    1  LIG1       -0.0558
      9 C           1.8845    2.6881   -1.1231 C.ar    1  LIG1       -0.1029
     10 C           2.5225    5.1225   -1.2683 C.ar    1  LIG1       -0.0444
     11 C           1.9043    5.9576   -0.3376 C.ar    1  LIG1        0.0352
     12 C           2.3629    6.8630   -2.9362 C.ar    1  LIG1       -0.0082
     13 C           2.7221    5.8004    1.8289 C.2     1  LIG1        0.1701
     14 C           2.9640    3.5447    5.4991 C.3     1  LIG1       -0.0672
     15 C           1.9124    5.7475    6.0768 C.3     1  LIG1       -0.0673
     16 C           0.5261    3.9277    5.0492 C.3     1  LIG1       -0.0670
     17 C           3.5324    5.5934    4.1689 C.3     1  LIG1       -0.0357
     18 C           2.1437    3.7704    3.1398 C.3     1  LIG1       -0.0364
     19 C           1.0916    5.9767    3.7175 C.3     1  LIG1       -0.0363
     20 C           3.1958    5.0637    5.5737 C.3     1  LIG1       -0.0667
     21 C           1.8016    3.2335    4.5405 C.3     1  LIG1       -0.0673
     22 C           0.7443    5.4491    5.1208 C.3     1  LIG1       -0.0673
     23 C           2.3723    5.2939    3.1986 C.3     1  LIG1        0.0490
     24 C           2.9474    3.7420   -0.8902 C.3     1  LIG1       -0.0087
     25 O           3.7734    6.3618    1.5505 O.2     1  LIG1       -0.4460
     26 O           1.6673    5.5201    0.9676 O.3     1  LIG1       -0.3014
     27 CL          2.6462    7.4210   -4.5392 Cl      1  LIG1       -0.1374
     28 H          -0.8338   -0.0098   -1.7187 H       1  LIG1        0.1129
     29 H          -1.4906    2.2842   -1.0396 H       1  LIG1        0.1143
     30 H           1.5636   -0.5767   -2.0163 H       1  LIG1        0.1144
     31 H           0.2398    4.0092   -0.6588 H       1  LIG1        0.1157
     32 H           3.3013    1.1409   -1.6378 H       1  LIG1        0.1191
     33 H           1.0329    7.9003    0.0141 H       1  LIG1        0.1430
     34 H           1.4374    8.7042   -2.2787 H       1  LIG1        0.1411
     35 H           3.2345    4.9202   -3.2896 H       1  LIG1        0.1431
     36 H           3.8770    3.0430    5.1558 H       1  LIG1        0.0485
     37 H           2.7405    3.1508    6.4983 H       1  LIG1        0.0463
     38 H           1.6702    5.3922    7.0860 H       1  LIG1        0.0460
     39 H           2.0691    6.8307    6.1496 H       1  LIG1        0.0483
     40 H          -0.3149    3.7010    4.3825 H       1  LIG1        0.0476
     41 H           0.2597    3.5407    6.0407 H       1  LIG1        0.0487
     42 H           3.7244    6.6738    4.2121 H       1  LIG1        0.0604
     43 H           4.4616    5.1315    3.8096 H       1  LIG1        0.0605
     44 H           3.0382    3.2632    2.7547 H       1  LIG1        0.0559
     45 H           1.3319    3.5332    2.4393 H       1  LIG1        0.0619
     46 H           0.2548    5.7914    3.0313 H       1  LIG1        0.0623
     47 H           1.2258    7.0659    3.7509 H       1  LIG1        0.0557
     48 H           4.0231    5.2791    6.2589 H       1  LIG1        0.0588
     49 H           1.6402    2.1508    4.4930 H       1  LIG1        0.0592
     50 H          -0.1663    5.9370    5.4852 H       1  LIG1        0.0589
     51 H           3.2567    3.7105    0.1688 H       1  LIG1        0.0915
     52 H           3.8613    3.4566   -1.4392 H       1  LIG1        0.0838
@<TRIPOS>BOND
     1     1     2   ar
     2     1     3   ar
     3     2     4   ar
     4     3     5   ar
     5     4     9   ar
     6     5     9   ar
     7     6     7   ar
     8     6    11   ar
     9     7    12   ar
    10     8    10   ar
    11     8    12   ar
    12     9    24    1
    13    10    11   ar
    14    10    24    1
    15    11    26    1
    16    12    27    1
    17    13    23    1
    18    13    25    2
    19    13    26    1
    20    14    20    1
    21    14    21    1
    22    15    20    1
    23    15    22    1
    24    16    21    1
    25    16    22    1
    26    17    20    1
    27    17    23    1
    28    18    21    1
    29    18    23    1
    30    19    22    1
    31    19    23    1
    32     1    28    1
    33     2    29    1
    34     3    30    1
    35     4    31    1
    36     5    32    1
    37     6    33    1
    38     7    34    1
    39     8    35    1
    40    14    36    1
    41    14    37    1
    42    15    38    1
    43    15    39    1
    44    16    40    1
    45    16    41    1
    46    17    42    1
    47    17    43    1
    48    18    44    1
    49    18    45    1
    50    19    46    1
    51    19    47    1
    52    20    48    1
    53    21    49    1
    54    22    50    1
    55    24    51    1
    56    24    52    1
