@<TRIPOS>MOLECULE
AC-082/37056003
 60 64 0 0 0
SMALL
USER_CHARGES

@<TRIPOS>ATOM
      1 C           0.0553    0.6885   -1.4469 C.ar    1  LIG1       -0.1125
      2 C           1.0234    0.9604   -2.4136 C.ar    1  LIG1       -0.1088
      3 C          -0.0481    1.4987   -0.3162 C.ar    1  LIG1       -0.1098
      4 C           1.8880    2.0425   -2.2495 C.ar    1  LIG1       -0.0938
      5 C           0.8166    2.5809   -0.1522 C.ar    1  LIG1       -0.0974
      6 C           3.2991    3.3693    3.5515 C.ar    1  LIG1       -0.0983
      7 C           3.8915    3.0553    2.3255 C.ar    1  LIG1       -0.0751
      8 C           1.8533    5.0301    2.5025 C.ar    1  LIG1       -0.0866
      9 C           1.7846    2.8528   -1.1189 C.ar    1  LIG1       -0.0831
     10 C           2.4453    4.7159    1.2930 C.ar    1  LIG1       -0.0642
     11 C           2.2840    4.3394    3.6373 C.ar    1  LIG1       -0.1116
     12 C           3.4354    3.7130    1.1992 C.ar    1  LIG1       -0.0768
     13 C           1.7960    8.3101   -0.8938 C.3     1  LIG1       -0.0735
     14 C           3.1972    7.7192   -0.9307 C.3     1  LIG1       -0.0701
     15 C           1.9910    5.3643   -2.9791 C.3     1  LIG1       -0.0614
     16 C           0.7706    7.3970   -0.2391 C.3     1  LIG1       -0.0682
     17 C           0.7511    5.6578   -2.1086 C.3     1  LIG1       -0.0664
     18 C           3.3855    6.5226   -0.0024 C.3     1  LIG1       -0.0508
     19 C           3.1599    4.6122   -2.3105 C.3     1  LIG1       -0.0376
     20 C           0.9599    5.9118   -0.5882 C.3     1  LIG1       -0.0546
     21 C           2.3062    5.3562   -0.0776 C.3     1  LIG1       -0.0216
     22 C           2.7568    4.0696   -0.9336 C.3     1  LIG1       -0.0275
     23 C           2.7395    5.1562    5.9759 C.3     1  LIG1       -0.0638
     24 C           1.0051    3.3750    5.5819 C.3     1  LIG1       -0.0636
     25 C           0.5509    5.7358    4.9482 C.3     1  LIG1       -0.0638
     26 C           1.6700    4.6431    4.9635 C.3     1  LIG1       -0.0661
     27 N           3.8754    3.5325   -0.1326 N.pl3   1  LIG1       -0.4052
     28 H          -0.6188   -0.1534   -1.5754 H       1  LIG1        0.1101
     29 H           1.1034    0.3302   -3.2946 H       1  LIG1        0.1096
     30 H          -0.8024    1.2880    0.4361 H       1  LIG1        0.1095
     31 H           2.6394    2.2467   -3.0079 H       1  LIG1        0.1295
     32 H           0.7287    3.2066    0.7320 H       1  LIG1        0.1161
     33 H           3.6237    2.8422    4.4462 H       1  LIG1        0.1217
     34 H           4.6632    2.2954    2.2647 H       1  LIG1        0.1145
     35 H           1.0888    5.7908    2.5765 H       1  LIG1        0.1332
     36 H           1.8051    9.2807   -0.3723 H       1  LIG1        0.0426
     37 H           1.4741    8.5499   -1.9226 H       1  LIG1        0.0373
     38 H           3.4307    7.4004   -1.9585 H       1  LIG1        0.0384
     39 H           3.9301    8.5073   -0.7012 H       1  LIG1        0.0420
     40 H           1.6669    4.8005   -3.8714 H       1  LIG1        0.0426
     41 H           2.3700    6.3203   -3.3806 H       1  LIG1        0.0503
     42 H           0.8195    7.5236    0.8500 H       1  LIG1        0.0415
     43 H          -0.2292    7.7424   -0.5361 H       1  LIG1        0.0454
     44 H           0.1940    6.5089   -2.5657 H       1  LIG1        0.0496
     45 H           0.0327    4.8165   -2.2323 H       1  LIG1        0.0409
     46 H           4.3958    6.1066   -0.2169 H       1  LIG1        0.0592
     47 H           3.4987    6.9117    1.0384 H       1  LIG1        0.0481
     48 H           3.4727    3.7872   -2.9623 H       1  LIG1        0.0704
     49 H           4.0353    5.2675   -2.2502 H       1  LIG1        0.0590
     50 H           0.1531    5.3574   -0.0448 H       1  LIG1        0.0747
     51 H           2.3140    5.3870    6.9595 H       1  LIG1        0.0368
     52 H           3.5301    4.4148    6.1353 H       1  LIG1        0.0373
     53 H           3.2154    6.0681    5.5959 H       1  LIG1        0.0365
     54 H           0.5528    3.5929    6.5555 H       1  LIG1        0.0374
     55 H           0.2135    2.9604    4.9467 H       1  LIG1        0.0363
     56 H           1.7549    2.5899    5.7357 H       1  LIG1        0.0375
     57 H           0.1313    5.9235    5.9440 H       1  LIG1        0.0366
     58 H           0.9428    6.6909    4.5792 H       1  LIG1        0.0372
     59 H          -0.2804    5.4344    4.3003 H       1  LIG1        0.0368
     60 H           4.8457    3.7260   -0.3536 H       1  LIG1        0.2934
@<TRIPOS>BOND
     1     1     2   ar
     2     1     3   ar
     3     2     4   ar
     4     3     5   ar
     5     4     9   ar
     6     5     9   ar
     7     6     7   ar
     8     6    11   ar
     9     7    12   ar
    10     8    10   ar
    11     8    11   ar
    12     9    22    1
    13    10    12   ar
    14    10    21    1
    15    11    26    1
    16    12    27    1
    17    13    14    1
    18    13    16    1
    19    14    18    1
    20    15    17    1
    21    15    19    1
    22    16    20    1
    23    17    20    1
    24    18    21    1
    25    19    22    1
    26    20    21    1
    27    21    22    1
    28    22    27    1
    29    23    26    1
    30    24    26    1
    31    25    26    1
    32     1    28    1
    33     2    29    1
    34     3    30    1
    35     4    31    1
    36     5    32    1
    37     6    33    1
    38     7    34    1
    39     8    35    1
    40    13    36    1
    41    13    37    1
    42    14    38    1
    43    14    39    1
    44    15    40    1
    45    15    41    1
    46    16    42    1
    47    16    43    1
    48    17    44    1
    49    17    45    1
    50    18    46    1
    51    18    47    1
    52    19    48    1
    53    19    49    1
    54    20    50    1
    55    23    51    1
    56    23    52    1
    57    23    53    1
    58    24    54    1
    59    24    55    1
    60    24    56    1
    61    25    57    1
    62    25    58    1
    63    25    59    1
    64    27    60    1
