@<TRIPOS>MOLECULE
AG-690/11739117
 43 45 0 0 0
SMALL
USER_CHARGES

@<TRIPOS>ATOM
      1 C           2.9451    3.8595    5.5962 C.ar    1  LIG1       -0.0989
      2 C           3.0891    4.1814    4.2468 C.ar    1  LIG1       -0.0664
      3 C           1.2384    6.1506   -0.8158 C.ar    1  LIG1       -0.0752
      4 C           3.2190    5.4865   -2.0294 C.ar    1  LIG1       -0.0779
      5 C           1.7547    4.1548    6.2606 C.ar    1  LIG1       -0.1022
      6 C           1.1221    7.2812   -1.6244 C.ar    1  LIG1       -0.0760
      7 C           3.1027    6.6170   -2.8381 C.ar    1  LIG1       -0.0769
      8 C           0.8523    5.0944    4.2259 C.ar    1  LIG1       -0.0668
      9 C           2.0428    4.7989    3.5616 C.ar    1  LIG1        0.0369
     10 C           2.2870    5.2533   -1.0183 C.ar    1  LIG1       -0.0429
     11 C           0.7084    4.7723    5.5754 C.ar    1  LIG1       -0.1085
     12 C           2.0541    7.5144   -2.6355 C.ar    1  LIG1       -0.0382
     13 C           0.8394    2.4274    0.4703 C.2     1  LIG1       -0.0094
     14 C           2.1953    5.1389    2.1335 C.2     1  LIG1        0.1604
     15 C           1.6553    2.8282   -0.7219 C.3     1  LIG1        0.0553
     16 C           2.4138    4.0210   -0.1368 C.3     1  LIG1        0.0775
     17 C          -0.5646    5.0883    6.2858 C.3     1  LIG1       -0.0432
     18 C           0.0195    0.5715   -0.9397 C.3     1  LIG1       -0.0495
     19 C          -0.0398    1.2228    0.4267 C.3     1  LIG1       -0.0038
     20 N           0.9289    3.1933    1.5103 N.2     1  LIG1       -0.3170
     21 N           1.8149    4.1857    1.1984 N.am    1  LIG1       -0.2339
     22 O           2.6538    6.2470    1.8613 O.2     1  LIG1       -0.4529
     23 O           3.7774    3.6453    0.0532 O.3     1  LIG1       -0.4413
     24 BR          1.8960    9.0466   -3.7303 Br      1  LIG1       -0.1073
     25 H           3.7603    3.3797    6.1301 H       1  LIG1        0.1171
     26 H           4.0209    3.9463    3.7388 H       1  LIG1        0.1619
     27 H           0.5075    5.9769   -0.0304 H       1  LIG1        0.1397
     28 H           4.0398    4.7933   -2.1939 H       1  LIG1        0.1280
     29 H           1.6511    3.8997    7.3120 H       1  LIG1        0.1244
     30 H           0.2996    7.9711   -1.4526 H       1  LIG1        0.1382
     31 H           3.8370    6.7840   -3.6216 H       1  LIG1        0.1362
     32 H           0.0358    5.5768    3.6934 H       1  LIG1        0.1391
     33 H           2.3056    2.0036   -1.0275 H       1  LIG1        0.1229
     34 H           0.9707    3.0906   -1.5351 H       1  LIG1        0.1196
     35 H          -0.5165    6.0912    6.7274 H       1  LIG1        0.0569
     36 H          -1.4224    5.0499    5.6020 H       1  LIG1        0.0539
     37 H          -0.7641    4.3644    7.0866 H       1  LIG1        0.0543
     38 H          -0.3108    1.2727   -1.7122 H       1  LIG1        0.0399
     39 H          -0.6237   -0.3140   -0.9807 H       1  LIG1        0.0400
     40 H           1.0389    0.2521   -1.1798 H       1  LIG1        0.0426
     41 H           0.2898    0.5243    1.2012 H       1  LIG1        0.0960
     42 H          -1.0616    1.5386    0.6564 H       1  LIG1        0.0962
     43 H           4.2205    4.3984    0.4774 H       1  LIG1        0.3510
@<TRIPOS>BOND
     1     1     2   ar
     2     1     5   ar
     3     2     9   ar
     4     3     6   ar
     5     3    10   ar
     6     4     7   ar
     7     4    10   ar
     8     5    11   ar
     9     6    12   ar
    10     7    12   ar
    11     8     9   ar
    12     8    11   ar
    13     9    14    1
    14    10    16    1
    15    11    17    1
    16    12    24    1
    17    13    15    1
    18    13    19    1
    19    13    20    2
    20    14    21   am
    21    14    22    2
    22    15    16    1
    23    16    21    1
    24    16    23    1
    25    18    19    1
    26    20    21    1
    27     1    25    1
    28     2    26    1
    29     3    27    1
    30     4    28    1
    31     5    29    1
    32     6    30    1
    33     7    31    1
    34     8    32    1
    35    15    33    1
    36    15    34    1
    37    17    35    1
    38    17    36    1
    39    17    37    1
    40    18    38    1
    41    18    39    1
    42    18    40    1
    43    19    41    1
    44    19    42    1
    45    23    43    1
