@<TRIPOS>MOLECULE
AP-518/41793437
 49 53 0 0 0
SMALL
USER_CHARGES

@<TRIPOS>ATOM
      1 C           0.1999    0.7002   -1.4990 C.ar    1  LIG1       -0.1077
      2 C           1.4656    0.9630   -2.0228 C.ar    1  LIG1       -0.1040
      3 C          -0.3304    1.5269   -0.5084 C.ar    1  LIG1       -0.1055
      4 C           5.8037    6.2540   -2.0465 C.ar    1  LIG1       -0.0972
      5 C           0.5113    4.8324    5.1903 C.ar    1  LIG1       -0.0796
      6 C           4.8027    5.5116   -1.3897 C.ar    1  LIG1       -0.0863
      7 C           0.9629    4.4949    3.9145 C.ar    1  LIG1       -0.0586
      8 C           5.4882    7.4059   -2.7862 C.ar    1  LIG1       -0.0971
      9 C           0.8647    7.0200   -1.8313 C.ar    1  LIG1       -0.0938
     10 C           2.2012    2.0524   -1.5560 C.ar    1  LIG1       -0.0923
     11 C           0.4052    2.6162   -0.0416 C.ar    1  LIG1       -0.0943
     12 C           1.0535    5.8575   -1.0654 C.ar    1  LIG1       -0.0849
     13 C           1.3620    4.7034    6.2881 C.ar    1  LIG1       -0.0435
     14 C           3.1162    3.8993    4.8344 C.ar    1  LIG1       -0.0192
     15 C           3.4582    5.9198   -1.4676 C.ar    1  LIG1       -0.0669
     16 C           3.2073    7.0714   -2.2168 C.ar    1  LIG1       -0.0780
     17 C           2.2654    4.0284    3.7365 C.ar    1  LIG1        0.0328
     18 C           4.1656    7.8068   -2.8626 C.ar    1  LIG1       -0.0999
     19 C           1.9686    7.6235   -2.4087 C.ar    1  LIG1       -0.0985
     20 C           1.6709    2.8790   -0.5654 C.ar    1  LIG1       -0.0717
     21 C           2.3363    5.3058   -0.8802 C.ar    1  LIG1       -0.0556
     22 C           2.6645    4.2368    6.1101 C.ar    1  LIG1        0.0685
     23 C           2.7471    3.6686    2.3780 C.2     1  LIG1        0.1117
     24 C           3.5632    8.9816   -3.5745 C.3     1  LIG1       -0.0310
     25 C           2.0469    8.8546   -3.2618 C.3     1  LIG1       -0.0303
     26 C           2.4733    4.0678   -0.0555 C.3     1  LIG1        0.0199
     27 N           2.1256    4.3322    1.3524 N.am    1  LIG1       -0.3252
     28 O           3.6238    2.8167    2.2583 O.2     1  LIG1       -0.4714
     29 F           3.4815    4.1129    7.1642 F       1  LIG1       -0.2679
     30 H          -0.3734   -0.1473   -1.8635 H       1  LIG1        0.1147
     31 H           1.8782    0.3201   -2.7949 H       1  LIG1        0.1167
     32 H          -1.3163    1.3233   -0.1011 H       1  LIG1        0.1145
     33 H           6.8388    5.9291   -1.9791 H       1  LIG1        0.1216
     34 H          -0.5027    5.1956    5.3289 H       1  LIG1        0.1390
     35 H           5.0873    4.6267   -0.8267 H       1  LIG1        0.1245
     36 H           0.2916    4.5988    3.0659 H       1  LIG1        0.1484
     37 H           6.2715    7.9664   -3.2859 H       1  LIG1        0.1218
     38 H          -0.1304    7.4318   -1.9636 H       1  LIG1        0.1239
     39 H           3.1867    2.2494   -1.9699 H       1  LIG1        0.1201
     40 H          -0.0159    3.2548    0.7305 H       1  LIG1        0.1147
     41 H           0.1872    5.3823   -0.6100 H       1  LIG1        0.1177
     42 H           1.0105    4.9660    7.2817 H       1  LIG1        0.1401
     43 H           4.1330    3.5364    4.7076 H       1  LIG1        0.1375
     44 H           3.9623    9.9247   -3.1872 H       1  LIG1        0.0771
     45 H           3.7439    8.9244   -4.6527 H       1  LIG1        0.0771
     46 H           1.4689    8.7333   -4.1836 H       1  LIG1        0.0778
     47 H           1.6870    9.7346   -2.7187 H       1  LIG1        0.0773
     48 H           3.5372    3.7749   -0.0144 H       1  LIG1        0.1604
     49 H           1.3701    4.9741    1.4985 H       1  LIG1        0.3022
@<TRIPOS>BOND
     1     1     2   ar
     2     1     3   ar
     3     2    10   ar
     4     3    11   ar
     5     4     6   ar
     6     4     8   ar
     7     5     7   ar
     8     5    13   ar
     9     6    15   ar
    10     7    17   ar
    11     8    18   ar
    12     9    12   ar
    13     9    19   ar
    14    10    20   ar
    15    11    20   ar
    16    12    21   ar
    17    13    22   ar
    18    14    17   ar
    19    14    22   ar
    20    15    16   ar
    21    15    21   ar
    22    16    18   ar
    23    16    19   ar
    24    17    23    1
    25    18    24    1
    26    19    25    1
    27    20    26    1
    28    21    26    1
    29    22    29    1
    30    23    27   am
    31    23    28    2
    32    24    25    1
    33    26    27    1
    34     1    30    1
    35     2    31    1
    36     3    32    1
    37     4    33    1
    38     5    34    1
    39     6    35    1
    40     7    36    1
    41     8    37    1
    42     9    38    1
    43    10    39    1
    44    11    40    1
    45    12    41    1
    46    13    42    1
    47    14    43    1
    48    24    44    1
    49    24    45    1
    50    25    46    1
    51    25    47    1
    52    26    48    1
    53    27    49    1
