@<TRIPOS>MOLECULE
AK-968/12116491
 41 44 0 0 0
SMALL
USER_CHARGES

@<TRIPOS>ATOM
      1 C           1.2199    0.3976   -0.8761 C.ar    1  LIG1       -0.0996
      2 C           3.0679    7.4722   -1.3956 C.ar    1  LIG1       -0.0969
      3 C          -0.0478    0.7802   -1.3090 C.ar    1  LIG1       -0.0896
      4 C           1.7595    7.6999   -1.8165 C.ar    1  LIG1       -0.0906
      5 C           2.1900    1.3660   -0.6148 C.ar    1  LIG1       -0.0951
      6 C           3.4529    6.2003   -0.9701 C.ar    1  LIG1       -0.0875
      7 C           0.6291    4.7767    5.0778 C.ar    1  LIG1       -0.0886
      8 C          -0.3451    2.1305   -1.4854 C.ar    1  LIG1       -0.0489
      9 C           0.8368    6.6553   -1.8170 C.ar    1  LIG1       -0.0504
     10 C           1.7429    4.5492    5.8862 C.ar    1  LIG1       -0.0736
     11 C           3.0676    4.0649    3.9246 C.ar    1  LIG1       -0.0356
     12 C           1.9015    2.7282   -0.7853 C.ar    1  LIG1       -0.0349
     13 C           2.5320    5.1419   -0.9623 C.ar    1  LIG1       -0.0282
     14 C           0.7345    4.6483    3.6929 C.ar    1  LIG1       -0.0801
     15 C           1.9537    4.2924    3.1162 C.ar    1  LIG1       -0.0452
     16 C           0.6284    3.1004   -1.2298 C.ar    1  LIG1        0.0228
     17 C           1.2237    5.3796   -1.3966 C.ar    1  LIG1        0.0251
     18 C           2.9621    4.1933    5.3096 C.ar    1  LIG1       -0.0079
     19 C           3.2190    3.8108    0.9970 C.2     1  LIG1        0.1121
     20 C           2.9402    3.7752   -0.4776 C.3     1  LIG1        0.0935
     21 C          -0.4751    4.8980    2.8519 C.3     1  LIG1       -0.0364
     22 N           2.0805    4.1572    1.7134 N.am    1  LIG1       -0.3065
     23 O           4.3364    3.5507    1.4315 O.2     1  LIG1       -0.4619
     24 O           0.2535    4.4063   -1.4417 O.3     1  LIG1       -0.3558
     25 CL          4.3358    3.9128    6.3075 Cl      1  LIG1       -0.1395
     26 H           1.4529   -0.6544   -0.7397 H       1  LIG1        0.1209
     27 H           3.7879    8.2853   -1.3963 H       1  LIG1        0.1193
     28 H          -0.8036    0.0268   -1.5106 H       1  LIG1        0.1358
     29 H           1.4592    8.6903   -2.1456 H       1  LIG1        0.1338
     30 H           3.1734    1.0521   -0.2733 H       1  LIG1        0.1245
     31 H           4.4763    6.0395   -0.6401 H       1  LIG1        0.1307
     32 H          -0.3164    5.0536    5.5369 H       1  LIG1        0.1345
     33 H          -1.3350    2.4207   -1.8273 H       1  LIG1        0.1374
     34 H          -0.1811    6.8401   -2.1504 H       1  LIG1        0.1347
     35 H           1.6460    4.6530    6.9638 H       1  LIG1        0.1291
     36 H           4.0176    3.7874    3.4726 H       1  LIG1        0.1554
     37 H           3.8672    3.4946   -0.9947 H       1  LIG1        0.1487
     38 H          -0.5264    5.9547    2.5659 H       1  LIG1        0.0592
     39 H          -0.4556    4.2888    1.9401 H       1  LIG1        0.0604
     40 H          -1.3932    4.6363    3.3919 H       1  LIG1        0.0504
     41 H           1.2323    4.3364    1.1798 H       1  LIG1        0.3241
@<TRIPOS>BOND
     1     1     3   ar
     2     1     5   ar
     3     2     4   ar
     4     2     6   ar
     5     3     8   ar
     6     4     9   ar
     7     5    12   ar
     8     6    13   ar
     9     7    10   ar
    10     7    14   ar
    11     8    16   ar
    12     9    17   ar
    13    10    18   ar
    14    11    15   ar
    15    11    18   ar
    16    12    16   ar
    17    12    20    1
    18    13    17   ar
    19    13    20    1
    20    14    15   ar
    21    14    21    1
    22    15    22    1
    23    16    24    1
    24    17    24    1
    25    18    25    1
    26    19    20    1
    27    19    22   am
    28    19    23    2
    29     1    26    1
    30     2    27    1
    31     3    28    1
    32     4    29    1
    33     5    30    1
    34     6    31    1
    35     7    32    1
    36     8    33    1
    37     9    34    1
    38    10    35    1
    39    11    36    1
    40    20    37    1
    41    21    38    1
    42    21    39    1
    43    21    40    1
    44    22    41    1
