@<TRIPOS>MOLECULE
AG-205/32650049
 48 51 0 0 0
SMALL
USER_CHARGES

@<TRIPOS>ATOM
      1 C           1.1067    6.1870   10.1306 C.ar    1  LIG1       -0.1072
      2 C           2.4457    7.4820   -2.6507 C.ar    1  LIG1       -0.1051
      3 C           0.6702    0.6379   -1.5809 C.ar    1  LIG1       -0.1061
      4 C           1.4908    7.0643    9.1165 C.ar    1  LIG1       -0.1040
      5 C           0.9034    4.8369    9.8449 C.ar    1  LIG1       -0.1041
      6 C           1.6803    7.7966   -1.5278 C.ar    1  LIG1       -0.1045
      7 C           2.9194    6.1823   -2.8301 C.ar    1  LIG1       -0.1020
      8 C          -0.3113    1.6272   -1.5224 C.ar    1  LIG1       -0.1021
      9 C           1.9345    0.8770   -1.0419 C.ar    1  LIG1       -0.1043
     10 C           1.6712    6.5915    7.8166 C.ar    1  LIG1       -0.0929
     11 C           1.0838    4.3641    8.5451 C.ar    1  LIG1       -0.0930
     12 C           0.5846    4.7416    5.2887 C.ar    1  LIG1       -0.0767
     13 C           2.9070    4.2886    5.7767 C.ar    1  LIG1       -0.0777
     14 C           1.3888    6.8114   -0.5843 C.ar    1  LIG1       -0.0984
     15 C           2.6279    5.1973   -1.8865 C.ar    1  LIG1       -0.0941
     16 C          -0.0287    2.8557   -0.9250 C.ar    1  LIG1       -0.0929
     17 C           2.2171    2.1054   -0.4446 C.ar    1  LIG1       -0.0956
     18 C           0.7655    4.2691    3.9889 C.ar    1  LIG1       -0.0521
     19 C           3.0879    3.8161    4.4767 C.ar    1  LIG1       -0.0539
     20 C           1.4678    5.2414    7.5309 C.ar    1  LIG1       -0.0806
     21 C           1.6554    4.7515    6.1826 C.ar    1  LIG1       -0.0745
     22 C           1.8626    5.5118   -0.7636 C.ar    1  LIG1       -0.0692
     23 C           1.2355    3.0948   -0.3861 C.ar    1  LIG1       -0.0662
     24 C           2.0171    3.8063    3.5829 C.ar    1  LIG1        0.0242
     25 C           2.5809    4.3304    1.3826 C.2     1  LIG1        0.1914
     26 C           1.5448    4.4359    0.2662 C.3     1  LIG1        0.1042
     27 O           3.6234    4.9701    1.4446 O.2     1  LIG1       -0.4359
     28 O           2.1932    3.3448    2.3149 O.3     1  LIG1       -0.3032
     29 H           0.9680    6.5550   11.1429 H       1  LIG1        0.1160
     30 H           2.6714    8.2488   -3.3860 H       1  LIG1        0.1180
     31 H           0.4496   -0.3189   -2.0448 H       1  LIG1        0.1170
     32 H           1.6508    8.1152    9.3390 H       1  LIG1        0.1175
     33 H           0.6058    4.1530   10.6344 H       1  LIG1        0.1175
     34 H           1.3104    8.8082   -1.3886 H       1  LIG1        0.1181
     35 H           3.5144    5.9369   -3.7048 H       1  LIG1        0.1199
     36 H          -1.2961    1.4409   -1.9409 H       1  LIG1        0.1167
     37 H           2.6985    0.1066   -1.0864 H       1  LIG1        0.1170
     38 H           1.9710    7.2880    7.0370 H       1  LIG1        0.1225
     39 H           0.9222    3.3090    8.3376 H       1  LIG1        0.1221
     40 H          -0.3971    5.0990    5.5903 H       1  LIG1        0.1345
     41 H           3.7515    4.2898    6.4616 H       1  LIG1        0.1334
     42 H           0.7918    7.0657    0.2877 H       1  LIG1        0.1139
     43 H           3.0014    4.1875   -2.0346 H       1  LIG1        0.1244
     44 H          -0.7996    3.6207   -0.8841 H       1  LIG1        0.1223
     45 H           3.2048    2.2827   -0.0275 H       1  LIG1        0.1210
     46 H          -0.0725    4.2636    3.2971 H       1  LIG1        0.1362
     47 H           4.0652    3.4566    4.1662 H       1  LIG1        0.1306
     48 H           0.6369    4.7531    0.8026 H       1  LIG1        0.1580
@<TRIPOS>BOND
     1     1     4   ar
     2     1     5   ar
     3     2     6   ar
     4     2     7   ar
     5     3     8   ar
     6     3     9   ar
     7     4    10   ar
     8     5    11   ar
     9     6    14   ar
    10     7    15   ar
    11     8    16   ar
    12     9    17   ar
    13    10    20   ar
    14    11    20   ar
    15    12    18   ar
    16    12    21   ar
    17    13    19   ar
    18    13    21   ar
    19    14    22   ar
    20    15    22   ar
    21    16    23   ar
    22    17    23   ar
    23    18    24   ar
    24    19    24   ar
    25    20    21    1
    26    22    26    1
    27    23    26    1
    28    24    28    1
    29    25    26    1
    30    25    27    2
    31    25    28    1
    32     1    29    1
    33     2    30    1
    34     3    31    1
    35     4    32    1
    36     5    33    1
    37     6    34    1
    38     7    35    1
    39     8    36    1
    40     9    37    1
    41    10    38    1
    42    11    39    1
    43    12    40    1
    44    13    41    1
    45    14    42    1
    46    15    43    1
    47    16    44    1
    48    17    45    1
    49    18    46    1
    50    19    47    1
    51    26    48    1
