@<TRIPOS>MOLECULE
AF-407/40919078
 49 52 0 0 0
SMALL
USER_CHARGES

@<TRIPOS>ATOM
      1 C           0.4568    2.6551    0.0602 C.ar    1  LIG1       -0.0700
      2 C           2.1952    1.8742   -1.4247 C.ar    1  LIG1       -0.0587
      3 C           0.3410    4.5152    5.6212 C.ar    1  LIG1       -0.1042
      4 C           2.6942    4.3224    6.1335 C.ar    1  LIG1       -0.1043
      5 C           0.6378    4.5158    4.2582 C.ar    1  LIG1       -0.0977
      6 C           2.9909    4.3229    4.7706 C.ar    1  LIG1       -0.0906
      7 C          -0.4622    1.8218   -0.5774 C.ar    1  LIG1       -0.1448
      8 C           1.2761    1.0409   -2.0624 C.ar    1  LIG1       -0.1415
      9 C           1.7855    2.6813   -0.3634 C.ar    1  LIG1       -0.1665
     10 C           1.3691    4.4187    6.5587 C.ar    1  LIG1       -0.0467
     11 C           1.9628    4.4196    3.8330 C.ar    1  LIG1        0.0826
     12 C          -0.0526    1.0146   -1.6387 C.ar    1  LIG1        0.1348
     13 C           1.9946    5.3586    1.5851 C.2     1  LIG1        0.5102
     14 C           1.4972    6.7228    1.8485 C.3     1  LIG1       -0.1039
     15 C           0.1120    6.9448    1.2463 C.3     1  LIG1       -0.1247
     16 C           0.1447    7.2585   -0.2498 C.3     1  LIG1       -0.1352
     17 C           0.6819    6.1325   -1.1322 C.3     1  LIG1       -0.1503
     18 C           2.9669    3.2969    1.8438 C.3     1  LIG1        0.0524
     19 C           2.1453    5.7968   -0.8766 C.3     1  LIG1        0.1021
     20 C           2.7883    3.5890    0.3318 C.3     1  LIG1        0.3643
     21 C           1.0522    4.4178    8.0159 C.3     1  LIG1       -0.1301
     22 N           2.2546    4.4192    2.4920 N.pl3   1  LIG1       -0.5060
     23 N           2.2795    4.9845    0.3395 N.2     1  LIG1       -0.4859
     24 O           4.0769    3.5789   -0.2766 O.3     1  LIG1       -0.5351
     25 F          -0.9345    0.2125   -2.2494 F       1  LIG1       -0.1221
     26 H           0.1281    3.2808    0.8859 H       1  LIG1        0.1273
     27 H           3.2285    1.8878   -1.7616 H       1  LIG1        0.1413
     28 H          -0.6942    4.5904    5.9432 H       1  LIG1        0.1422
     29 H           3.5020    4.2475    6.8567 H       1  LIG1        0.1419
     30 H          -0.1688    4.5918    3.5338 H       1  LIG1        0.1329
     31 H           4.0258    4.2470    4.4470 H       1  LIG1        0.1334
     32 H          -1.4965    1.8008   -0.2472 H       1  LIG1        0.1492
     33 H           1.5946    0.4127   -2.8890 H       1  LIG1        0.1526
     34 H           1.4919    6.9254    2.9257 H       1  LIG1        0.1228
     35 H           2.1794    7.4609    1.4126 H       1  LIG1        0.1379
     36 H          -0.4740    6.0279    1.3808 H       1  LIG1        0.0724
     37 H          -0.4139    7.7424    1.7837 H       1  LIG1        0.1052
     38 H          -0.8612    7.5402   -0.5868 H       1  LIG1        0.0859
     39 H           0.7774    8.1432   -0.3991 H       1  LIG1        0.0894
     40 H           0.0839    5.2359   -0.9256 H       1  LIG1        0.1097
     41 H           0.5260    6.3808   -2.1893 H       1  LIG1        0.0824
     42 H           2.4904    2.3609    2.1575 H       1  LIG1        0.1318
     43 H           4.0189    3.3043    2.1490 H       1  LIG1        0.1303
     44 H           2.6015    5.2655   -1.7197 H       1  LIG1        0.1088
     45 H           2.7031    6.7307   -0.7410 H       1  LIG1        0.1208
     46 H           0.8911    3.3926    8.3713 H       1  LIG1        0.0841
     47 H           1.8662    4.8649    8.6013 H       1  LIG1        0.0773
     48 H           0.1493    5.0053    8.2278 H       1  LIG1        0.0772
     49 H           4.6378    4.1842    0.2369 H       1  LIG1        0.4151
@<TRIPOS>BOND
     1     1     7   ar
     2     1     9   ar
     3     2     8   ar
     4     2     9   ar
     5     3     5   ar
     6     3    10   ar
     7     4     6   ar
     8     4    10   ar
     9     5    11   ar
    10     6    11   ar
    11     7    12   ar
    12     8    12   ar
    13     9    20    1
    14    10    21    1
    15    11    22    1
    16    12    25    1
    17    13    14    1
    18    13    22    1
    19    13    23    2
    20    14    15    1
    21    15    16    1
    22    16    17    1
    23    17    19    1
    24    18    20    1
    25    18    22    1
    26    19    23    1
    27    20    23    1
    28    20    24    1
    29     1    26    1
    30     2    27    1
    31     3    28    1
    32     4    29    1
    33     5    30    1
    34     6    31    1
    35     7    32    1
    36     8    33    1
    37    14    34    1
    38    14    35    1
    39    15    36    1
    40    15    37    1
    41    16    38    1
    42    16    39    1
    43    17    40    1
    44    17    41    1
    45    18    42    1
    46    18    43    1
    47    19    44    1
    48    19    45    1
    49    21    46    1
    50    21    47    1
    51    21    48    1
    52    24    49    1
