@<TRIPOS>MOLECULE
AN-651/14405036
 53 56 0 0 0
SMALL
USER_CHARGES

@<TRIPOS>ATOM
      1 C           1.5446    5.0438    6.3687 C.ar    1  LIG1       -0.1074
      2 C           2.7008    4.3033    6.1225 C.ar    1  LIG1       -0.1031
      3 C           0.7587    5.4844    5.3039 C.ar    1  LIG1       -0.1025
      4 C           3.0711    4.0036    4.8116 C.ar    1  LIG1       -0.0902
      5 C           1.1289    5.1846    3.9929 C.ar    1  LIG1       -0.0899
      6 C           3.4677    6.4027   -1.3402 C.ar    1  LIG1       -0.0899
      7 C           1.2341    5.7644   -0.6761 C.ar    1  LIG1       -0.0777
      8 C           0.0705    2.3411   -0.9185 C.ar    1  LIG1       -0.0507
      9 C           2.1768    1.2449   -1.3642 C.ar    1  LIG1       -0.0642
     10 C           2.9918    7.6510   -1.7413 C.ar    1  LIG1       -0.0674
     11 C           0.7583    7.0128   -1.0771 C.ar    1  LIG1       -0.0536
     12 C          -0.5742    1.4520   -1.7783 C.ar    1  LIG1       -0.0455
     13 C           1.5321    0.3557   -2.2241 C.ar    1  LIG1       -0.0615
     14 C           2.2851    4.4442    3.7467 C.ar    1  LIG1       -0.0634
     15 C           2.5889    5.4594   -0.8076 C.ar    1  LIG1       -0.0436
     16 C           1.4461    2.2377   -0.7114 C.ar    1  LIG1       -0.0291
     17 C           1.6371    7.9561   -1.6098 C.ar    1  LIG1       -0.0118
     18 C           0.1566    0.4593   -2.4311 C.ar    1  LIG1       -0.0111
     19 C           2.6755    4.1282    2.3628 C.2     1  LIG1        0.0571
     20 C           3.8492    4.5302    1.8390 C.2     1  LIG1        0.0230
     21 C           1.7709    3.2598    1.5366 C.2     1  LIG1        0.1323
     22 C           3.1088    4.0957   -0.3689 C.3     1  LIG1        0.1019
     23 C           4.9062    5.3191    2.5579 C.3     1  LIG1        0.0101
     24 C          -0.2229    9.4204   -1.8375 C.3     1  LIG1        0.0247
     25 C          -1.8802   -0.2458   -3.4361 C.3     1  LIG1        0.0236
     26 N           2.1151    3.1600    0.1806 N.am    1  LIG1       -0.2815
     27 O           0.8000    2.7351    2.0809 O.2     1  LIG1       -0.4587
     28 O           4.2135    4.2609    0.5367 O.2     1  LIG1       -0.3628
     29 O           1.1731    9.1747   -1.9999 O.3     1  LIG1       -0.4158
     30 O          -0.4725   -0.4083   -3.2702 O.3     1  LIG1       -0.4177
     31 H           1.2557    5.2761    7.3895 H       1  LIG1        0.1145
     32 H           3.3124    3.9592    6.9516 H       1  LIG1        0.1164
     33 H          -0.1423    6.0598    5.4954 H       1  LIG1        0.1157
     34 H           3.9752    3.4255    4.6355 H       1  LIG1        0.1215
     35 H           0.5058    5.5352    3.1735 H       1  LIG1        0.1183
     36 H           4.5246    6.1736   -1.4464 H       1  LIG1        0.1268
     37 H           0.5421    5.0356   -0.2623 H       1  LIG1        0.1422
     38 H          -0.5089    3.1109   -0.4149 H       1  LIG1        0.1446
     39 H           3.2493    1.1548   -1.2105 H       1  LIG1        0.1367
     40 H           3.6815    8.3818   -2.1552 H       1  LIG1        0.1134
     41 H          -0.2979    7.2445   -0.9717 H       1  LIG1        0.1321
     42 H          -1.6459    1.5377   -1.9356 H       1  LIG1        0.1348
     43 H           2.1068   -0.4154   -2.7297 H       1  LIG1        0.1179
     44 H           3.5527    3.6235   -1.2743 H       1  LIG1        0.2328
     45 H           5.5986    4.6363    3.0434 H       1  LIG1        0.0867
     46 H           4.4371    5.9565    3.3034 H       1  LIG1        0.0811
     47 H           5.4429    5.9385    1.8435 H       1  LIG1        0.0872
     48 H          -0.4594   10.4282   -2.1875 H       1  LIG1        0.1231
     49 H          -0.4918    9.3168   -0.7833 H       1  LIG1        0.0898
     50 H          -0.7832    8.6914   -2.4277 H       1  LIG1        0.0898
     51 H          -2.2556   -1.0015   -4.1304 H       1  LIG1        0.1220
     52 H          -2.0893    0.7551   -3.8223 H       1  LIG1        0.0893
     53 H          -2.3690   -0.3698   -2.4670 H       1  LIG1        0.0893
@<TRIPOS>BOND
     1     1     2   ar
     2     1     3   ar
     3     2     4   ar
     4     3     5   ar
     5     4    14   ar
     6     5    14   ar
     7     6    10   ar
     8     6    15   ar
     9     7    11   ar
    10     7    15   ar
    11     8    12   ar
    12     8    16   ar
    13     9    13   ar
    14     9    16   ar
    15    10    17   ar
    16    11    17   ar
    17    12    18   ar
    18    13    18   ar
    19    14    19    1
    20    15    22    1
    21    16    26    1
    22    17    29    1
    23    18    30    1
    24    19    20    2
    25    19    21    1
    26    20    23    1
    27    20    28    1
    28    21    26   am
    29    21    27    2
    30    22    26    1
    31    22    28    1
    32    24    29    1
    33    25    30    1
    34     1    31    1
    35     2    32    1
    36     3    33    1
    37     4    34    1
    38     5    35    1
    39     6    36    1
    40     7    37    1
    41     8    38    1
    42     9    39    1
    43    10    40    1
    44    11    41    1
    45    12    42    1
    46    13    43    1
    47    22    44    1
    48    23    45    1
    49    23    46    1
    50    23    47    1
    51    24    48    1
    52    24    49    1
    53    24    50    1
    54    25    51    1
    55    25    52    1
    56    25    53    1
