@<TRIPOS>MOLECULE
AG-205/36812026
 49 53 0 0 0
SMALL
USER_CHARGES

@<TRIPOS>ATOM
      1 C           0.6041    0.6036   -1.6138 C.ar    1  LIG1       -0.1072
      2 C           1.9500    0.9694   -1.6040 C.ar    1  LIG1       -0.1035
      3 C          -0.3858    1.5860   -1.5866 C.ar    1  LIG1       -0.1030
      4 C           2.2165    6.7385   -2.6853 C.ar    1  LIG1       -0.0959
      5 C           2.3998    7.3973   -1.4696 C.ar    1  LIG1       -0.0928
      6 C           2.3062    2.3174   -1.5670 C.ar    1  LIG1       -0.0916
      7 C          -0.0297    2.9341   -1.5495 C.ar    1  LIG1       -0.0906
      8 C           1.8599    5.3901   -2.7013 C.ar    1  LIG1       -0.0786
      9 C           2.2266    6.7074   -0.2696 C.ar    1  LIG1       -0.0542
     10 C           1.3163    3.2999   -1.5397 C.ar    1  LIG1       -0.0717
     11 C           1.6867    4.7003   -1.5014 C.ar    1  LIG1       -0.0336
     12 C           1.8701    5.3589   -0.2855 C.ar    1  LIG1        0.0367
     13 C           2.8602    4.6921    1.7051 C.2     1  LIG1        0.1706
     14 C           3.2336    4.6279    6.0032 C.3     1  LIG1       -0.0673
     15 C           1.1141    5.8647    5.4838 C.3     1  LIG1       -0.0672
     16 C           1.1444    3.3573    5.4434 C.3     1  LIG1       -0.0670
     17 C           3.0255    5.9161    3.8614 C.3     1  LIG1       -0.0356
     18 C           3.0559    3.4044    3.8210 C.3     1  LIG1       -0.0361
     19 C           0.9341    4.6434    3.3001 C.3     1  LIG1       -0.0358
     20 C           2.6469    5.8925    5.3525 C.3     1  LIG1       -0.0667
     21 C           2.6774    3.3709    5.3122 C.3     1  LIG1       -0.0673
     22 C           0.5461    4.6149    4.7889 C.3     1  LIG1       -0.0670
     23 C           2.4684    4.6643    3.1544 C.3     1  LIG1        0.0500
     24 O           4.0168    4.7085    1.3052 O.2     1  LIG1       -0.4463
     25 O           1.7051    4.6932    0.9314 O.3     1  LIG1       -0.3013
     26 H           0.3271   -0.4460   -1.6444 H       1  LIG1        0.1156
     27 H           2.7210    0.2046   -1.6270 H       1  LIG1        0.1163
     28 H          -1.4341    1.3020   -1.5956 H       1  LIG1        0.1167
     29 H           2.3512    7.2759   -3.6195 H       1  LIG1        0.1245
     30 H           2.6776    8.4471   -1.4574 H       1  LIG1        0.1266
     31 H           3.3599    2.5866   -1.5601 H       1  LIG1        0.1221
     32 H          -0.8124    3.6887   -1.5292 H       1  LIG1        0.1247
     33 H           1.7211    4.8913   -3.6577 H       1  LIG1        0.1314
     34 H           2.3712    7.2273    0.6736 H       1  LIG1        0.1322
     35 H           4.3279    4.6423    5.9299 H       1  LIG1        0.0481
     36 H           2.9860    4.6078    7.0717 H       1  LIG1        0.0459
     37 H           0.8292    5.8660    6.5432 H       1  LIG1        0.0458
     38 H           0.6835    6.7694    5.0372 H       1  LIG1        0.0480
     39 H           0.7358    2.4573    4.9676 H       1  LIG1        0.0474
     40 H           0.8599    3.3150    6.5020 H       1  LIG1        0.0483
     41 H           2.6332    6.8268    3.3898 H       1  LIG1        0.0598
     42 H           4.1174    5.9622    3.7551 H       1  LIG1        0.0597
     43 H           4.1485    3.3879    3.7137 H       1  LIG1        0.0550
     44 H           2.6854    2.5000    3.3204 H       1  LIG1        0.0618
     45 H           0.5134    3.7682    2.7877 H       1  LIG1        0.0617
     46 H           0.4922    5.5243    2.8160 H       1  LIG1        0.0563
     47 H           3.0450    6.7839    5.8499 H       1  LIG1        0.0583
     48 H           3.0972    2.4740    5.7808 H       1  LIG1        0.0585
     49 H          -0.5448    4.6000    4.8873 H       1  LIG1        0.0584
@<TRIPOS>BOND
     1     1     2   ar
     2     1     3   ar
     3     2     6   ar
     4     3     7   ar
     5     4     5   ar
     6     4     8   ar
     7     5     9   ar
     8     6    10   ar
     9     7    10   ar
    10     8    11   ar
    11     9    12   ar
    12    10    11    1
    13    11    12   ar
    14    12    25    1
    15    13    23    1
    16    13    24    2
    17    13    25    1
    18    14    20    1
    19    14    21    1
    20    15    20    1
    21    15    22    1
    22    16    21    1
    23    16    22    1
    24    17    20    1
    25    17    23    1
    26    18    21    1
    27    18    23    1
    28    19    22    1
    29    19    23    1
    30     1    26    1
    31     2    27    1
    32     3    28    1
    33     4    29    1
    34     5    30    1
    35     6    31    1
    36     7    32    1
    37     8    33    1
    38     9    34    1
    39    14    35    1
    40    14    36    1
    41    15    37    1
    42    15    38    1
    43    16    39    1
    44    16    40    1
    45    17    41    1
    46    17    42    1
    47    18    43    1
    48    18    44    1
    49    19    45    1
    50    19    46    1
    51    20    47    1
    52    21    48    1
    53    22    49    1
