@<TRIPOS>MOLECULE
AG-670/34887044
 52 53 0 0 0
SMALL
USER_CHARGES

@<TRIPOS>ATOM
      1 C           1.7723    4.2282    2.5950 C.1     1  LIG1       -0.2069
      2 C           2.0700    4.0995    1.4379 C.1     1  LIG1       -0.1138
      3 C           1.9837    7.5664   -2.2958 C.ar    1  LIG1       -0.1022
      4 C           0.1909    0.7201   -1.8007 C.ar    1  LIG1       -0.1029
      5 C           1.1542    7.3260   -1.2005 C.ar    1  LIG1       -0.1030
      6 C           2.9618    6.6360   -2.6474 C.ar    1  LIG1       -0.0987
      7 C          -0.4751    1.8188   -1.2578 C.ar    1  LIG1       -0.1021
      8 C           1.5838    0.6584   -1.7591 C.ar    1  LIG1       -0.0977
      9 C           1.3027    6.1554   -0.4567 C.ar    1  LIG1       -0.0935
     10 C           3.1103    5.4654   -1.9036 C.ar    1  LIG1       -0.0868
     11 C           0.2517    2.8561   -0.6735 C.ar    1  LIG1       -0.0877
     12 C           2.3107    1.6956   -1.1748 C.ar    1  LIG1       -0.0801
     13 C           2.2807    5.2250   -0.8083 C.ar    1  LIG1       -0.0437
     14 C           1.6447    2.7945   -0.6319 C.ar    1  LIG1       -0.0358
     15 C          -0.6873    4.3784    6.0222 C.3     1  LIG1       -0.0680
     16 C           2.1742    7.2230    4.3476 C.3     1  LIG1       -0.0682
     17 C           6.0625    4.1768    0.6562 C.3     1  LIG1       -0.0370
     18 C           1.4042    4.3891    3.9985 C.3     1  LIG1       -0.0459
     19 C          -0.0622    5.6724    5.5486 C.3     1  LIG1       -0.1023
     20 C           0.9468    6.7995    3.5707 C.3     1  LIG1       -0.1010
     21 C           4.6074    4.5948    0.6526 C.3     1  LIG1        0.0070
     22 C           2.4451    3.9355    0.0106 C.3     1  LIG1        0.1055
     23 N           0.4279    5.4983    4.1321 N.4     1  LIG1        0.4069
     24 O           3.8377    3.5798    0.0361 O.3     1  LIG1       -0.4148
     25 H           1.8671    8.4773   -2.8755 H       1  LIG1        0.1234
     26 H          -0.3753   -0.0881   -2.2545 H       1  LIG1        0.1223
     27 H           0.3919    8.0498   -0.9272 H       1  LIG1        0.1194
     28 H           3.6071    6.8223   -3.5007 H       1  LIG1        0.1235
     29 H          -1.5598    1.8665   -1.2892 H       1  LIG1        0.1193
     30 H           2.1026   -0.1975   -2.1807 H       1  LIG1        0.1224
     31 H           0.6520    5.9766    0.3953 H       1  LIG1        0.1134
     32 H           3.8751    4.7463   -2.1849 H       1  LIG1        0.1297
     33 H          -0.2757    3.7084   -0.2532 H       1  LIG1        0.1163
     34 H           3.3957    1.6391   -1.1470 H       1  LIG1        0.1354
     35 H          -1.5497    4.1246    5.3981 H       1  LIG1        0.0452
     36 H           0.0267    3.5502    5.9659 H       1  LIG1        0.0490
     37 H          -1.0319    4.4611    7.0583 H       1  LIG1        0.0654
     38 H           1.9175    7.3900    5.3981 H       1  LIG1        0.0460
     39 H           2.9528    6.4541    4.3075 H       1  LIG1        0.0459
     40 H           2.5933    8.1531    3.9494 H       1  LIG1        0.0658
     41 H           6.1998    3.2469    1.2148 H       1  LIG1        0.0459
     42 H           6.4249    4.0316   -0.3668 H       1  LIG1        0.0503
     43 H           6.6864    4.9554    1.1074 H       1  LIG1        0.0551
     44 H           2.2647    4.6498    4.6205 H       1  LIG1        0.1434
     45 H           0.9216    3.4943    4.4006 H       1  LIG1        0.1427
     46 H           0.8034    5.9497    6.1563 H       1  LIG1        0.0874
     47 H          -0.7865    6.4917    5.5396 H       1  LIG1        0.0830
     48 H           1.1759    6.6255    2.5158 H       1  LIG1        0.0909
     49 H           0.1398    7.5319    3.6590 H       1  LIG1        0.0874
     50 H           4.4769    5.5255    0.0924 H       1  LIG1        0.0911
     51 H           4.2468    4.7387    1.6754 H       1  LIG1        0.0789
     52 H          -0.4053    5.2560    3.5689 H       1  LIG1        0.1737
@<TRIPOS>BOND
     1     1     2    3
     2     1    18    1
     3     2    22    1
     4     3     5   ar
     5     3     6   ar
     6     4     7   ar
     7     4     8   ar
     8     5     9   ar
     9     6    10   ar
    10     7    11   ar
    11     8    12   ar
    12     9    13   ar
    13    10    13   ar
    14    11    14   ar
    15    12    14   ar
    16    13    22    1
    17    14    22    1
    18    15    19    1
    19    16    20    1
    20    17    21    1
    21    18    23    1
    22    19    23    1
    23    20    23    1
    24    21    24    1
    25    22    24    1
    26     3    25    1
    27     4    26    1
    28     5    27    1
    29     6    28    1
    30     7    29    1
    31     8    30    1
    32     9    31    1
    33    10    32    1
    34    11    33    1
    35    12    34    1
    36    15    35    1
    37    15    36    1
    38    15    37    1
    39    16    38    1
    40    16    39    1
    41    16    40    1
    42    17    41    1
    43    17    42    1
    44    17    43    1
    45    18    44    1
    46    18    45    1
    47    19    46    1
    48    19    47    1
    49    20    48    1
    50    20    49    1
    51    21    50    1
    52    21    51    1
    53    23    52    1
