@<TRIPOS>MOLECULE
AO-365/40892368
 49 51 0 0 0
SMALL
USER_CHARGES

@<TRIPOS>ATOM
      1 C           2.4604    3.9693    2.1806 C.1     1  LIG1       -0.2090
      2 C           2.4782    3.2439    3.1369 C.1     1  LIG1       -0.3303
      3 C           0.0741    0.8815   -1.1997 C.ar    1  LIG1       -0.1093
      4 C           1.4157    0.7873   -1.5693 C.ar    1  LIG1       -0.1076
      5 C          -0.3900    2.0212   -0.5427 C.ar    1  LIG1       -0.1073
      6 C           2.2934    1.8325   -1.2817 C.ar    1  LIG1       -0.0994
      7 C           0.4877    3.0664   -0.2551 C.ar    1  LIG1       -0.0981
      8 C           1.8294    2.9721   -0.6246 C.ar    1  LIG1       -0.0800
      9 C           1.7835    6.9877   -2.5545 C.3     1  LIG1       -0.0747
     10 C           3.2386    7.3377   -2.2381 C.3     1  LIG1       -0.0750
     11 C           1.9512   -0.3464    4.8788 C.3     1  LIG1       -0.0671
     12 C           3.2289    0.0718    4.1525 C.3     1  LIG1       -0.0764
     13 C           0.8283    0.6637    4.6458 C.3     1  LIG1       -0.0763
     14 C           1.4521    5.7557   -1.7181 C.3     1  LIG1       -0.0604
     15 C           3.7066    6.3104   -1.2125 C.3     1  LIG1       -0.0590
     16 C           3.6278    1.4995    4.5134 C.3     1  LIG1       -0.1663
     17 C           1.2765    2.0792    4.9966 C.3     1  LIG1       -0.1661
     18 C           2.8078    5.1040   -1.4640 C.3     1  LIG1       -0.0340
     19 C           2.4348    4.8577    1.0040 C.3     1  LIG1        0.0179
     20 C           2.7913    4.1184   -0.3087 C.3     1  LIG1        0.0088
     21 N           2.4970    2.4269    4.2085 N.pl3   1  LIG1        0.3655
     22 O           4.1349    3.6299   -0.1813 O.3     1  LIG1       -0.4688
     23 H          -0.6096    0.0682   -1.4250 H       1  LIG1        0.1130
     24 H           1.7770   -0.0995   -2.0818 H       1  LIG1        0.1147
     25 H          -1.4348    2.0954   -0.2559 H       1  LIG1        0.1146
     26 H           3.3372    1.7502   -1.5731 H       1  LIG1        0.1151
     27 H           0.1173    3.9504    0.2573 H       1  LIG1        0.1196
     28 H           1.1059    7.8168   -2.3259 H       1  LIG1        0.0362
     29 H           1.6799    6.7639   -3.6225 H       1  LIG1        0.0370
     30 H           3.8435    7.2681   -3.1498 H       1  LIG1        0.0340
     31 H           3.3387    8.3582   -1.8550 H       1  LIG1        0.0343
     32 H           1.6358   -1.3390    4.5350 H       1  LIG1        0.0425
     33 H           2.1519   -0.4294    5.9551 H       1  LIG1        0.0419
     34 H           4.0414   -0.6164    4.4072 H       1  LIG1        0.0470
     35 H           3.0681   -0.0012    3.0704 H       1  LIG1        0.0524
     36 H           0.5231    0.6261    3.5932 H       1  LIG1        0.0468
     37 H          -0.0453    0.3909    5.2470 H       1  LIG1        0.0527
     38 H           0.9838    6.0644   -0.7754 H       1  LIG1        0.0543
     39 H           0.7569    5.0856   -2.2329 H       1  LIG1        0.0425
     40 H           4.7683    6.0707   -1.3273 H       1  LIG1        0.0530
     41 H           3.5580    6.7049   -0.1998 H       1  LIG1        0.0528
     42 H           3.8933    1.5758    5.5738 H       1  LIG1        0.0591
     43 H           4.5050    1.7868    3.9237 H       1  LIG1        0.0686
     44 H           0.4719    2.7811    4.7524 H       1  LIG1        0.0702
     45 H           1.4897    2.1684    6.0677 H       1  LIG1        0.0587
     46 H           3.1389    4.5923   -2.3794 H       1  LIG1        0.0779
     47 H           3.1559    5.6673    1.1764 H       1  LIG1        0.1077
     48 H           1.4464    5.3271    0.9318 H       1  LIG1        0.0998
     49 H           4.6813    4.4028    0.0163 H       1  LIG1        0.3264
@<TRIPOS>BOND
     1     1     2    3
     2     1    19    1
     3     2    21    1
     4     3     4   ar
     5     3     5   ar
     6     4     6   ar
     7     5     7   ar
     8     6     8   ar
     9     7     8   ar
    10     8    20    1
    11     9    10    1
    12     9    14    1
    13    10    15    1
    14    11    12    1
    15    11    13    1
    16    12    16    1
    17    13    17    1
    18    14    18    1
    19    15    18    1
    20    16    21    1
    21    17    21    1
    22    18    20    1
    23    19    20    1
    24    20    22    1
    25     3    23    1
    26     4    24    1
    27     5    25    1
    28     6    26    1
    29     7    27    1
    30     9    28    1
    31     9    29    1
    32    10    30    1
    33    10    31    1
    34    11    32    1
    35    11    33    1
    36    12    34    1
    37    12    35    1
    38    13    36    1
    39    13    37    1
    40    14    38    1
    41    14    39    1
    42    15    40    1
    43    15    41    1
    44    16    42    1
    45    16    43    1
    46    17    44    1
    47    17    45    1
    48    18    46    1
    49    19    47    1
    50    19    48    1
    51    22    49    1
