@<TRIPOS>MOLECULE
AG-205/37082018
 41 43 0 0 0
SMALL
USER_CHARGES

@<TRIPOS>ATOM
      1 C           1.2360    4.3183    6.5003 C.ar    1  LIG1       -0.1073
      2 C           0.5523    5.0620    5.5386 C.ar    1  LIG1       -0.1069
      3 C           2.4672    3.7408    6.1899 C.ar    1  LIG1       -0.1039
      4 C           1.0999    5.2284    4.2665 C.ar    1  LIG1       -0.1005
      5 C           3.0147    3.9070    4.9179 C.ar    1  LIG1       -0.0961
      6 C           2.3311    4.6508    3.9561 C.ar    1  LIG1       -0.0830
      7 C           2.1620    2.4952    2.0521 C.2     1  LIG1        0.2294
      8 C           0.0501    1.0589   -2.0285 C.3     1  LIG1       -0.0718
      9 C           1.5187    0.7003   -1.8424 C.3     1  LIG1       -0.0612
     10 C          -0.5153    1.7456   -0.7915 C.3     1  LIG1       -0.0629
     11 C           2.3619    1.9158   -1.4496 C.3     1  LIG1       -0.0180
     12 C           0.3070    2.9788   -0.4149 C.3     1  LIG1       -0.0202
     13 C           1.8064    2.6542   -0.2187 C.3     1  LIG1        0.0739
     14 C           2.6560    3.8662    0.2383 C.3     1  LIG1        0.0463
     15 C           2.2613    5.2154   -0.3556 C.3     1  LIG1       -0.0114
     16 C           2.9208    4.8292    2.5870 C.3     1  LIG1        0.0163
     17 N           2.5060    3.7790    1.6761 N.am    1  LIG1       -0.2932
     18 O           2.0977    2.0356    3.1837 O.2     1  LIG1       -0.4252
     19 O           1.9058    1.7564    0.9229 O.3     1  LIG1       -0.2972
     20 O           4.0406    3.6441   -0.0464 O.3     1  LIG1       -0.4509
     21 H           0.8101    4.1900    7.4912 H       1  LIG1        0.1164
     22 H          -0.4059    5.5128    5.7804 H       1  LIG1        0.1145
     23 H           3.0003    3.1625    6.9388 H       1  LIG1        0.1166
     24 H           0.5599    5.8094    3.5234 H       1  LIG1        0.1155
     25 H           3.9744    3.4534    4.6851 H       1  LIG1        0.1243
     26 H          -0.0578    1.7206   -2.8966 H       1  LIG1        0.0434
     27 H          -0.5270    0.1526   -2.2434 H       1  LIG1        0.0415
     28 H           1.6097   -0.0746   -1.0711 H       1  LIG1        0.0483
     29 H           1.9118    0.2689   -2.7702 H       1  LIG1        0.0483
     30 H          -1.5536    2.0421   -0.9795 H       1  LIG1        0.0458
     31 H          -0.5345    1.0388    0.0468 H       1  LIG1        0.0461
     32 H           3.3781    1.5524   -1.2541 H       1  LIG1        0.0687
     33 H           2.4163    2.6067   -2.2997 H       1  LIG1        0.0764
     34 H           0.1854    3.7259   -1.2083 H       1  LIG1        0.0768
     35 H          -0.1197    3.4017    0.5028 H       1  LIG1        0.0585
     36 H           2.9170    5.9965    0.0280 H       1  LIG1        0.0589
     37 H           1.2322    5.4528   -0.0872 H       1  LIG1        0.0660
     38 H           2.3461    5.1825   -1.4415 H       1  LIG1        0.0595
     39 H           2.6147    5.7891    2.1569 H       1  LIG1        0.1411
     40 H           4.0151    4.8249    2.6269 H       1  LIG1        0.1352
     41 H           4.5104    4.4326    0.2617 H       1  LIG1        0.3423
@<TRIPOS>BOND
     1     1     2   ar
     2     1     3   ar
     3     2     4   ar
     4     3     5   ar
     5     4     6   ar
     6     5     6   ar
     7     6    16    1
     8     7    17   am
     9     7    18    2
    10     7    19    1
    11     8     9    1
    12     8    10    1
    13     9    11    1
    14    10    12    1
    15    11    13    1
    16    12    13    1
    17    13    14    1
    18    13    19    1
    19    14    15    1
    20    14    17    1
    21    14    20    1
    22    16    17    1
    23     1    21    1
    24     2    22    1
    25     3    23    1
    26     4    24    1
    27     5    25    1
    28     8    26    1
    29     8    27    1
    30     9    28    1
    31     9    29    1
    32    10    30    1
    33    10    31    1
    34    11    32    1
    35    11    33    1
    36    12    34    1
    37    12    35    1
    38    15    36    1
    39    15    37    1
    40    15    38    1
    41    16    39    1
    42    16    40    1
    43    20    41    1
