@<TRIPOS>MOLECULE
AE-848/13196002
 45 47 0 0 0
SMALL
USER_CHARGES

@<TRIPOS>ATOM
      1 C          -0.2138    1.2548   -1.7602 C.ar    1  LIG1       -0.1081
      2 C           1.7457    7.1768   -2.3000 C.ar    1  LIG1       -0.1002
      3 C           1.0471    0.8631   -2.2103 C.ar    1  LIG1       -0.1064
      4 C          -0.3277    2.1915   -0.7328 C.ar    1  LIG1       -0.1052
      5 C           1.3148    7.2316   -0.9745 C.ar    1  LIG1       -0.0934
      6 C           2.6180    6.1680   -2.7087 C.ar    1  LIG1       -0.0950
      7 C           2.1939    1.4082   -1.6331 C.ar    1  LIG1       -0.0994
      8 C           0.8192    2.7365   -0.1557 C.ar    1  LIG1       -0.0968
      9 C           1.7564    6.2776   -0.0577 C.ar    1  LIG1       -0.0680
     10 C           3.0595    5.2139   -1.7920 C.ar    1  LIG1       -0.0706
     11 C           2.0800    2.3450   -0.6058 C.ar    1  LIG1       -0.0833
     12 C           2.6287    5.2687   -0.4664 C.ar    1  LIG1       -0.0444
     13 C           2.0416    4.6939    6.1853 C.ar    1  LIG1        0.0614
     14 C           0.8840    4.9047    5.4123 C.ar    1  LIG1        0.1469
     15 C           2.9434    4.1410    5.3094 C.ar    1  LIG1       -0.0110
     16 C           3.2152    4.6320    1.8719 C.2     1  LIG1        0.1438
     17 C           4.3371    3.6922    5.4951 C.3     1  LIG1        0.0022
     18 C           3.3060    2.9280    0.0120 C.3     1  LIG1        0.0155
     19 C           2.8350    3.5334    2.8544 C.3     1  LIG1        0.1362
     20 C          -0.4050    5.4765    5.8422 C.3     1  LIG1        0.3974
     21 N           1.0341    4.5173    4.1429 N.ar    1  LIG1       -0.2903
     22 N           2.2966    4.0577    4.1115 N.ar    1  LIG1       -0.2785
     23 N           3.0914    4.2684    0.4952 N.am    1  LIG1       -0.3116
     24 O           3.5589    5.7374    2.2986 O.2     1  LIG1       -0.4580
     25 F          -0.4490    5.8379    7.1659 F       1  LIG1       -0.1650
     26 F          -0.7706    6.6143    5.1664 F       1  LIG1       -0.1649
     27 F          -1.4612    4.6169    5.6784 F       1  LIG1       -0.1609
     28 CL          2.2476    5.0515    7.8268 Cl      1  LIG1       -0.1199
     29 H          -1.1067    0.8313   -2.2106 H       1  LIG1        0.1154
     30 H           1.4016    7.9191   -3.0144 H       1  LIG1        0.1220
     31 H           1.1359    0.1347   -3.0109 H       1  LIG1        0.1137
     32 H          -1.3091    2.4973   -0.3829 H       1  LIG1        0.1143
     33 H           0.6351    8.0164   -0.6561 H       1  LIG1        0.1259
     34 H           2.9525    6.1250   -3.7412 H       1  LIG1        0.1252
     35 H           3.1721    1.0971   -1.9901 H       1  LIG1        0.1170
     36 H           0.7208    3.4656    0.6443 H       1  LIG1        0.1247
     37 H           1.4137    6.3302    0.9727 H       1  LIG1        0.1309
     38 H           3.7392    4.4322   -2.1218 H       1  LIG1        0.1251
     39 H           4.3768    2.6316    5.7928 H       1  LIG1        0.0886
     40 H           4.9344    3.8042    4.5740 H       1  LIG1        0.0918
     41 H           4.8605    4.2777    6.2705 H       1  LIG1        0.0763
     42 H           3.6477    2.3214    0.8624 H       1  LIG1        0.1367
     43 H           4.1382    2.9674   -0.7041 H       1  LIG1        0.1327
     44 H           2.0680    2.8842    2.4186 H       1  LIG1        0.1929
     45 H           3.7163    2.9345    3.1083 H       1  LIG1        0.1944
@<TRIPOS>BOND
     1     1     3   ar
     2     1     4   ar
     3     2     5   ar
     4     2     6   ar
     5     3     7   ar
     6     4     8   ar
     7     5     9   ar
     8     6    10   ar
     9     7    11   ar
    10     8    11   ar
    11     9    12   ar
    12    10    12   ar
    13    11    18    1
    14    12    23    1
    15    13    14   ar
    16    13    15   ar
    17    13    28    1
    18    14    20    1
    19    14    21   ar
    20    15    17    1
    21    15    22   ar
    22    16    19    1
    23    16    23   am
    24    16    24    2
    25    18    23    1
    26    19    22    1
    27    20    25    1
    28    20    26    1
    29    20    27    1
    30    21    22   ar
    31     1    29    1
    32     2    30    1
    33     3    31    1
    34     4    32    1
    35     5    33    1
    36     6    34    1
    37     7    35    1
    38     8    36    1
    39     9    37    1
    40    10    38    1
    41    17    39    1
    42    17    40    1
    43    17    41    1
    44    18    42    1
    45    18    43    1
    46    19    44    1
    47    19    45    1
