@<TRIPOS>MOLECULE
AH-034/04668058
 42 44 0 0 0
SMALL
USER_CHARGES

@<TRIPOS>ATOM
      1 C           2.2332    7.9200   -1.8285 C.ar    1  LIG1       -0.1024
      2 C           3.3881    7.5659   -1.1311 C.ar    1  LIG1       -0.0986
      3 C           1.2740    6.9521   -2.1264 C.ar    1  LIG1       -0.0965
      4 C           1.0499    1.0845   -2.3908 C.ar    1  LIG1       -0.0882
      5 C           0.0168    0.7904   -1.5009 C.ar    1  LIG1       -0.0899
      6 C           0.8664    4.4819    5.4657 C.ar    1  LIG1       -0.0962
      7 C           2.1200    4.8589    5.9472 C.ar    1  LIG1       -0.1053
      8 C           3.5838    6.2439   -0.7316 C.ar    1  LIG1       -0.0757
      9 C           1.4697    5.6301   -1.7270 C.ar    1  LIG1       -0.0722
     10 C           1.9604    2.0982   -2.0922 C.ar    1  LIG1       -0.0632
     11 C          -0.1059    1.5102   -0.3125 C.ar    1  LIG1       -0.0649
     12 C           0.7471    3.9242    4.1927 C.ar    1  LIG1       -0.0564
     13 C           3.2544    4.6784    5.1557 C.ar    1  LIG1       -0.0681
     14 C           2.6246    5.2760   -1.0295 C.ar    1  LIG1        0.0131
     15 C           1.8375    2.8180   -0.9037 C.ar    1  LIG1        0.0419
     16 C           0.8044    2.5240   -0.0139 C.ar    1  LIG1        0.0492
     17 C           1.8814    3.7437    3.4011 C.ar    1  LIG1       -0.0084
     18 C           3.1350    4.1208    3.8827 C.ar    1  LIG1        0.0140
     19 C           2.8287    3.8976   -0.6131 C.2     1  LIG1        0.1253
     20 C           0.6498    3.2576    1.2356 C.2     1  LIG1        0.1267
     21 C           5.4933    4.3677    3.7002 C.3     1  LIG1        0.0220
     22 N           1.7438    3.1764    2.1092 N.am    1  LIG1       -0.2945
     23 O           3.8536    3.5773    0.0072 O.2     1  LIG1       -0.4371
     24 O          -0.3907    3.8717    1.5025 O.2     1  LIG1       -0.4582
     25 O           4.2560    3.9532    3.1254 O.3     1  LIG1       -0.4159
     26 H           2.0809    8.9493   -2.1396 H       1  LIG1        0.1228
     27 H           4.1350    8.3197   -0.8994 H       1  LIG1        0.1166
     28 H           0.3746    7.2279   -2.6693 H       1  LIG1        0.1191
     29 H           1.1456    0.5239   -3.3161 H       1  LIG1        0.1361
     30 H          -0.6921    0.0011   -1.7335 H       1  LIG1        0.1306
     31 H          -0.0165    4.6221    6.0823 H       1  LIG1        0.1176
     32 H           2.2130    5.2924    6.9387 H       1  LIG1        0.1204
     33 H           4.4874    5.9789   -0.1886 H       1  LIG1        0.1268
     34 H           0.7156    4.8843   -1.9647 H       1  LIG1        0.1365
     35 H           2.7611    2.3182   -2.7937 H       1  LIG1        0.1373
     36 H          -0.9152    1.2719    0.3730 H       1  LIG1        0.1344
     37 H          -0.2353    3.6343    3.8283 H       1  LIG1        0.1546
     38 H           4.2279    4.9742    5.5372 H       1  LIG1        0.1161
     39 H           6.3053    4.1792    2.9937 H       1  LIG1        0.1218
     40 H           5.6679    3.8167    4.6278 H       1  LIG1        0.0895
     41 H           5.4436    5.4373    3.9178 H       1  LIG1        0.0894
     42 H           2.5408    2.6416    1.7729 H       1  LIG1        0.3298
@<TRIPOS>BOND
     1     1     2   ar
     2     1     3   ar
     3     2     8   ar
     4     3     9   ar
     5     4     5   ar
     6     4    10   ar
     7     5    11   ar
     8     6     7   ar
     9     6    12   ar
    10     7    13   ar
    11     8    14   ar
    12     9    14   ar
    13    10    15   ar
    14    11    16   ar
    15    12    17   ar
    16    13    18   ar
    17    14    19    1
    18    15    16   ar
    19    15    19    1
    20    16    20    1
    21    17    18   ar
    22    17    22    1
    23    18    25    1
    24    19    23    2
    25    20    22   am
    26    20    24    2
    27    21    25    1
    28     1    26    1
    29     2    27    1
    30     3    28    1
    31     4    29    1
    32     5    30    1
    33     6    31    1
    34     7    32    1
    35     8    33    1
    36     9    34    1
    37    10    35    1
    38    11    36    1
    39    12    37    1
    40    13    38    1
    41    21    39    1
    42    21    40    1
    43    21    41    1
    44    22    42    1
