@<TRIPOS>MOLECULE
AG-690/10211030
 43 45 0 0 0
SMALL
USER_CHARGES

@<TRIPOS>ATOM
      1 C           0.7082    4.7730    5.5750 C.ar    1  LIG1       -0.0867
      2 C           0.8530    5.0941    4.2253 C.ar    1  LIG1       -0.0566
      3 C           1.2385    6.1512   -0.8156 C.ar    1  LIG1       -0.0867
      4 C           3.2187    5.4860   -2.0293 C.ar    1  LIG1       -0.0890
      5 C           1.1224    7.2816   -1.6244 C.ar    1  LIG1       -0.1000
      6 C           3.1026    6.6163   -2.8383 C.ar    1  LIG1       -0.1005
      7 C           1.7540    4.1555    6.2611 C.ar    1  LIG1       -0.0786
      8 C           3.0895    4.1803    4.2481 C.ar    1  LIG1       -0.0434
      9 C           2.0437    4.7978    3.5619 C.ar    1  LIG1        0.0476
     10 C           2.2868    5.2535   -1.0179 C.ar    1  LIG1       -0.0501
     11 C           2.0544    7.5142   -2.6359 C.ar    1  LIG1       -0.1158
     12 C           2.9446    3.8592    5.5976 C.ar    1  LIG1       -0.0317
     13 C           0.8397    2.4271    0.4701 C.2     1  LIG1       -0.0099
     14 C           2.1959    5.1381    2.1338 C.2     1  LIG1        0.1650
     15 C           1.6553    2.8282   -0.7221 C.3     1  LIG1        0.0550
     16 C           2.4139    4.0210   -0.1369 C.3     1  LIG1        0.0749
     17 C           1.9286    8.7222   -3.5015 C.3     1  LIG1       -0.0424
     18 C          -0.5724    1.0050   -0.9747 C.3     1  LIG1       -0.0495
     19 C          -0.0395    1.2225    0.4264 C.3     1  LIG1       -0.0036
     20 N           0.9294    3.1927    1.5103 N.2     1  LIG1       -0.3186
     21 N           1.8153    4.1853    1.1985 N.am    1  LIG1       -0.2345
     22 O           2.6543    6.2463    1.8618 O.2     1  LIG1       -0.4485
     23 O           3.7776    3.6453    0.0527 O.3     1  LIG1       -0.4426
     24 BR          4.3611    3.0223    6.5277 Br      1  LIG1       -0.1099
     25 H          -0.2188    5.0038    6.0914 H       1  LIG1        0.1284
     26 H           0.0314    5.5749    3.7011 H       1  LIG1        0.1728
     27 H           0.5079    5.9782   -0.0297 H       1  LIG1        0.1290
     28 H           4.0378    4.7910   -2.1948 H       1  LIG1        0.1175
     29 H           0.3014    7.9745   -1.4606 H       1  LIG1        0.1197
     30 H           3.8330    6.7901   -3.6241 H       1  LIG1        0.1178
     31 H           1.6246    3.9120    7.3126 H       1  LIG1        0.1417
     32 H           4.0160    3.9513    3.7257 H       1  LIG1        0.1561
     33 H           2.3056    2.0038   -1.0281 H       1  LIG1        0.1199
     34 H           0.9705    3.0908   -1.5350 H       1  LIG1        0.1222
     35 H           2.4786    9.5644   -3.0642 H       1  LIG1        0.0581
     36 H           2.3237    8.5338   -4.5082 H       1  LIG1        0.0548
     37 H           0.8783    9.0177   -3.6228 H       1  LIG1        0.0541
     38 H          -1.1531    1.8727   -1.3021 H       1  LIG1        0.0428
     39 H          -1.2194    0.1222   -1.0160 H       1  LIG1        0.0399
     40 H           0.2446    0.8504   -1.6873 H       1  LIG1        0.0396
     41 H           0.5416    0.3565    0.7565 H       1  LIG1        0.0963
     42 H          -0.8630    1.3761    1.1298 H       1  LIG1        0.0965
     43 H           4.2207    4.3983    0.4771 H       1  LIG1        0.3490
@<TRIPOS>BOND
     1     1     2   ar
     2     1     7   ar
     3     2     9   ar
     4     3     5   ar
     5     3    10   ar
     6     4     6   ar
     7     4    10   ar
     8     5    11   ar
     9     6    11   ar
    10     7    12   ar
    11     8     9   ar
    12     8    12   ar
    13     9    14    1
    14    10    16    1
    15    11    17    1
    16    12    24    1
    17    13    15    1
    18    13    19    1
    19    13    20    2
    20    14    21   am
    21    14    22    2
    22    15    16    1
    23    16    21    1
    24    16    23    1
    25    18    19    1
    26    20    21    1
    27     1    25    1
    28     2    26    1
    29     3    27    1
    30     4    28    1
    31     5    29    1
    32     6    30    1
    33     7    31    1
    34     8    32    1
    35    15    33    1
    36    15    34    1
    37    17    35    1
    38    17    36    1
    39    17    37    1
    40    18    38    1
    41    18    39    1
    42    18    40    1
    43    19    41    1
    44    19    42    1
    45    23    43    1
