@<TRIPOS>MOLECULE
AB-337/13036004
 30 32 0 0 0
SMALL
USER_CHARGES

@<TRIPOS>ATOM
      1 C          -0.0577    0.8399   -1.3940 C.ar    1  LIG1       -0.0950
      2 C           0.9086    4.9364    6.0028 C.ar    1  LIG1       -0.0979
      3 C           1.8863    3.9802    6.3283 C.ar    1  LIG1       -0.0984
      4 C          -0.4897    2.1655   -1.3533 C.ar    1  LIG1       -0.0913
      5 C           1.2343    0.5144   -0.9810 C.ar    1  LIG1       -0.0911
      6 C           0.7026    5.3279    4.6772 C.ar    1  LIG1       -0.0916
      7 C           2.6762    3.3981    5.3342 C.ar    1  LIG1       -0.0961
      8 C           0.3703    3.1657   -0.8999 C.ar    1  LIG1       -0.0147
      9 C           2.0943    1.5146   -0.5276 C.ar    1  LIG1       -0.0146
     10 C           1.4890    4.7468    3.6981 C.ar    1  LIG1       -0.0772
     11 C           2.4655    3.7914    4.0252 C.ar    1  LIG1       -0.0977
     12 C           1.6623    2.8403   -0.4869 C.ar    1  LIG1        0.2523
     13 C           1.4920    4.9617    2.2592 C.2     1  LIG1       -0.0025
     14 C           2.4390    4.1604    1.7553 C.2     1  LIG1        0.2388
     15 C           3.1623    3.3340    2.7792 C.3     1  LIG1        0.0567
     16 O           4.1191    3.6424   -0.1523 O.2     1  LIG1       -0.1228
     17 O           2.3182    5.3485   -0.5590 O.2     1  LIG1       -0.1228
     18 S           2.7577    4.1142    0.0871 S.O2    1  LIG1       -0.1240
     19 H          -0.7266    0.0606   -1.7477 H       1  LIG1        0.1350
     20 H           0.3061    5.3762    6.7934 H       1  LIG1        0.1208
     21 H           2.0269    3.6904    7.3663 H       1  LIG1        0.1278
     22 H          -1.4952    2.4195   -1.6758 H       1  LIG1        0.1240
     23 H           1.5705   -0.5176   -1.0135 H       1  LIG1        0.1238
     24 H          -0.0527    6.0673    4.4329 H       1  LIG1        0.1311
     25 H           3.4295    2.6602    5.5867 H       1  LIG1        0.1243
     26 H           0.0239    4.1955   -0.8731 H       1  LIG1        0.1476
     27 H           3.0990    1.2500   -0.2096 H       1  LIG1        0.1472
     28 H           0.8431    5.6428    1.7345 H       1  LIG1        0.1751
     29 H           4.2280    3.5782    2.8088 H       1  LIG1        0.0987
     30 H           3.0095    2.2643    2.6097 H       1  LIG1        0.1040
@<TRIPOS>BOND
     1     1     4   ar
     2     1     5   ar
     3     2     3   ar
     4     2     6   ar
     5     3     7   ar
     6     4     8   ar
     7     5     9   ar
     8     6    10   ar
     9     7    11   ar
    10     8    12   ar
    11     9    12   ar
    12    10    11   ar
    13    10    13    1
    14    11    15    1
    15    12    18    1
    16    13    14    2
    17    14    15    1
    18    14    18    1
    19    16    18    2
    20    17    18    2
    21     1    19    1
    22     2    20    1
    23     3    21    1
    24     4    22    1
    25     5    23    1
    26     6    24    1
    27     7    25    1
    28     8    26    1
    29     9    27    1
    30    13    28    1
    31    15    29    1
    32    15    30    1
