@<TRIPOS>MOLECULE
AE-848/12917030
 42 45 0 0 0
SMALL
USER_CHARGES

@<TRIPOS>ATOM
      1 C           0.4585    0.4404   -1.8339 C.ar    1  LIG1       -0.1050
      2 C           2.3460    7.6765   -2.4483 C.ar    1  LIG1       -0.1014
      3 C           0.8607    4.7297    5.7629 C.ar    1  LIG1       -0.0878
      4 C           2.1768    4.4293    6.1089 C.ar    1  LIG1       -0.0821
      5 C           1.6381    1.0247   -2.2949 C.ar    1  LIG1       -0.0969
      6 C          -0.2890    1.0697   -0.8383 C.ar    1  LIG1       -0.0989
      7 C           1.9097    6.5144   -3.0846 C.ar    1  LIG1       -0.0917
      8 C           2.5930    7.6692   -1.0754 C.ar    1  LIG1       -0.0959
      9 C           0.4754    4.7387    4.4233 C.ar    1  LIG1       -0.0614
     10 C           3.1127    4.1365    5.1152 C.ar    1  LIG1       -0.0502
     11 C           2.0706    2.2382   -1.7602 C.ar    1  LIG1       -0.0594
     12 C           0.1435    2.2832   -0.3037 C.ar    1  LIG1       -0.0638
     13 C           1.7203    5.3451   -2.3480 C.ar    1  LIG1       -0.0566
     14 C           2.4035    6.4999   -0.3389 C.ar    1  LIG1       -0.0623
     15 C           1.4168    4.4447    3.4316 C.ar    1  LIG1        0.0622
     16 C           2.7435    4.1409    3.7655 C.ar    1  LIG1       -0.0061
     17 C           1.3233    2.8676   -0.7646 C.ar    1  LIG1       -0.0216
     18 C           1.9672    5.3378   -0.9751 C.ar    1  LIG1       -0.0198
     19 C           1.0275    4.4489    2.0037 C.ar    1  LIG1        0.1775
     20 C           3.3592    3.8489    1.5487 C.ar    1  LIG1        0.0632
     21 C           4.3883    3.5295    0.4938 C.3     1  LIG1        0.0454
     22 N           3.7159    3.8408    2.7959 N.ar    1  LIG1       -0.3523
     23 N           2.0703    4.1378    1.1309 N.ar    1  LIG1       -0.2008
     24 N           1.7708    4.1247   -0.2106 N.pl3   1  LIG1       -0.2911
     25 O          -0.1250    4.7101    1.6747 O.2     1  LIG1       -0.4407
     26 H           0.1218   -0.5048   -2.2502 H       1  LIG1        0.1111
     27 H           2.4933    8.5870   -3.0219 H       1  LIG1        0.1201
     28 H           0.1346    4.9572    6.5379 H       1  LIG1        0.1261
     29 H           2.4754    4.4229    7.1532 H       1  LIG1        0.1395
     30 H           2.2198    0.5346   -3.0699 H       1  LIG1        0.1286
     31 H          -1.2076    0.6145   -0.4795 H       1  LIG1        0.1254
     32 H           1.7175    6.5202   -4.1532 H       1  LIG1        0.1273
     33 H           2.9328    8.5742   -0.5800 H       1  LIG1        0.1250
     34 H          -0.5549    4.9751    4.1730 H       1  LIG1        0.1467
     35 H           4.1356    3.9043    5.4020 H       1  LIG1        0.1464
     36 H           2.9913    2.6851   -2.1262 H       1  LIG1        0.1255
     37 H          -0.4472    2.7646    0.4717 H       1  LIG1        0.1092
     38 H           1.3800    4.4449   -2.8533 H       1  LIG1        0.1342
     39 H           2.5994    6.5061    0.7304 H       1  LIG1        0.1255
     40 H           4.3869    2.4604    0.3088 H       1  LIG1        0.1031
     41 H           5.3661    3.8440    0.8443 H       1  LIG1        0.1077
     42 H           4.1402    4.0641   -0.4175 H       1  LIG1        0.0960
@<TRIPOS>BOND
     1     1     5   ar
     2     1     6   ar
     3     2     7   ar
     4     2     8   ar
     5     3     4   ar
     6     3     9   ar
     7     4    10   ar
     8     5    11   ar
     9     6    12   ar
    10     7    13   ar
    11     8    14   ar
    12     9    15   ar
    13    10    16   ar
    14    11    17   ar
    15    12    17   ar
    16    13    18   ar
    17    14    18   ar
    18    15    16   ar
    19    15    19   ar
    20    16    22   ar
    21    17    24    1
    22    18    24    1
    23    19    23   ar
    24    19    25    2
    25    20    21    1
    26    20    22   ar
    27    20    23   ar
    28    23    24    1
    29     1    26    1
    30     2    27    1
    31     3    28    1
    32     4    29    1
    33     5    30    1
    34     6    31    1
    35     7    32    1
    36     8    33    1
    37     9    34    1
    38    10    35    1
    39    11    36    1
    40    12    37    1
    41    13    38    1
    42    14    39    1
    43    21    40    1
    44    21    41    1
    45    21    42    1
