@<TRIPOS>MOLECULE
AK-968/11824218
 44 46 0 0 0
SMALL
USER_CHARGES

@<TRIPOS>ATOM
      1 C           0.9764    0.4416   -1.9195 C.ar    1  LIG1       -0.1054
      2 C           2.8085    7.4088   -2.0690 C.ar    1  LIG1       -0.1076
      3 C           2.0593    1.3191   -1.9717 C.ar    1  LIG1       -0.1046
      4 C          -0.1841    0.8057   -1.2365 C.ar    1  LIG1       -0.1023
      5 C           1.4970    7.0857   -2.4171 C.ar    1  LIG1       -0.1058
      6 C           3.4486    6.7153   -1.0419 C.ar    1  LIG1       -0.1039
      7 C           2.6093    4.2973    3.8629 C.ar    1  LIG1       -0.0467
      8 C           1.9818    2.5607   -1.3409 C.ar    1  LIG1       -0.0957
      9 C          -0.2615    2.0473   -0.6057 C.ar    1  LIG1       -0.0918
     10 C           0.8253    6.0692   -1.7379 C.ar    1  LIG1       -0.0953
     11 C           2.7770    5.6988   -0.3626 C.ar    1  LIG1       -0.0925
     12 C           3.1803    4.1053    5.1210 C.ar    1  LIG1       -0.0381
     13 C           0.5424    4.9874    4.9063 C.ar    1  LIG1       -0.0376
     14 C           1.2904    4.7385    3.7556 C.ar    1  LIG1        0.0411
     15 C           0.8215    2.9249   -0.6578 C.ar    1  LIG1       -0.0742
     16 C           1.4654    5.3756   -0.7107 C.ar    1  LIG1       -0.0734
     17 C           1.1133    4.7953    6.1643 C.ar    1  LIG1       -0.0499
     18 C           2.4323    4.3544    6.2717 C.ar    1  LIG1        0.0716
     19 C           0.6952    4.9384    2.4438 C.2     1  LIG1        0.1188
     20 C           0.2853    5.0712    7.3780 C.3     1  LIG1       -0.0221
     21 C           0.7368    4.2722    0.0273 C.3     1  LIG1        0.0149
     22 N           1.2065    4.1714    1.3904 N.am    1  LIG1       -0.3242
     23 N           3.0351    4.1520    7.5439 N.pl3   1  LIG1       -0.0421
     24 O           3.6397    5.1068    8.0864 O.2     1  LIG1       -0.1527
     25 O          -0.2123    5.7736    2.2829 O.2     1  LIG1       -0.4661
     26 O           2.9438    3.0248    8.0850 O.2     1  LIG1       -0.2382
     27 H           1.0363   -0.5247   -2.4119 H       1  LIG1        0.1176
     28 H           3.3317    8.1994   -2.5990 H       1  LIG1        0.1152
     29 H           2.9625    1.0363   -2.5044 H       1  LIG1        0.1182
     30 H          -1.0278    0.1232   -1.1965 H       1  LIG1        0.1198
     31 H           0.9988    7.6249   -3.2176 H       1  LIG1        0.1145
     32 H           4.4700    6.9658   -0.7714 H       1  LIG1        0.1170
     33 H           3.2011    4.1000    2.9725 H       1  LIG1        0.1473
     34 H           2.8307    3.2380   -1.3867 H       1  LIG1        0.1136
     35 H          -1.1696    2.3225   -0.0757 H       1  LIG1        0.1230
     36 H          -0.1964    5.8244   -2.0157 H       1  LIG1        0.1139
     37 H           3.2835    5.1639    0.4364 H       1  LIG1        0.1213
     38 H           4.2093    3.7610    5.1886 H       1  LIG1        0.1631
     39 H          -0.4865    5.3314    4.8231 H       1  LIG1        0.1675
     40 H          -0.2505    4.1660    7.6845 H       1  LIG1        0.0788
     41 H           0.9096    5.4091    8.2137 H       1  LIG1        0.0678
     42 H          -0.4472    5.8640    7.1845 H       1  LIG1        0.0629
     43 H          -0.3175    4.5635    0.1213 H       1  LIG1        0.1580
     44 H           1.9899    3.5502    1.5639 H       1  LIG1        0.3041
@<TRIPOS>BOND
     1     1     3   ar
     2     1     4   ar
     3     2     5   ar
     4     2     6   ar
     5     3     8   ar
     6     4     9   ar
     7     5    10   ar
     8     6    11   ar
     9     7    12   ar
    10     7    14   ar
    11     8    15   ar
    12     9    15   ar
    13    10    16   ar
    14    11    16   ar
    15    12    18   ar
    16    13    14   ar
    17    13    17   ar
    18    14    19    1
    19    15    21    1
    20    16    21    1
    21    17    18   ar
    22    17    20    1
    23    18    23    1
    24    19    22   am
    25    19    25    2
    26    21    22    1
    27    23    24    1
    28    23    26    2
    29     1    27    1
    30     2    28    1
    31     3    29    1
    32     4    30    1
    33     5    31    1
    34     6    32    1
    35     7    33    1
    36     8    34    1
    37     9    35    1
    38    10    36    1
    39    11    37    1
    40    12    38    1
    41    13    39    1
    42    20    40    1
    43    20    41    1
    44    20    42    1
    45    21    43    1
    46    22    44    1
