@<TRIPOS>MOLECULE
AK-968/37032031
 38 41 0 0 0
SMALL
USER_CHARGES

@<TRIPOS>ATOM
      1 C           0.0668    0.9286   -2.0472 C.ar    1  LIG1       -0.1055
      2 C           1.4378    0.6736   -2.0227 C.ar    1  LIG1       -0.1033
      3 C          -0.4587    1.9893   -1.3094 C.ar    1  LIG1       -0.1043
      4 C           2.9453    4.0341    5.9203 C.ar    1  LIG1       -0.0882
      5 C           1.5052    7.3858   -2.1983 C.ar    1  LIG1       -0.1043
      6 C           2.2836    1.4793   -1.2603 C.ar    1  LIG1       -0.0986
      7 C           0.3871    2.7950   -0.5469 C.ar    1  LIG1       -0.1006
      8 C           2.9708    3.8625    4.5364 C.ar    1  LIG1       -0.0530
      9 C           1.8242    4.5937    6.5333 C.ar    1  LIG1       -0.0838
     10 C           1.2038    6.7194   -0.9755 C.ar    1  LIG1       -0.0846
     11 C           0.7540    4.8102    4.3781 C.ar    1  LIG1       -0.0336
     12 C           2.6114    6.8504   -2.8204 C.ar    1  LIG1       -0.0422
     13 C           1.7583    2.5400   -0.5224 C.ar    1  LIG1       -0.0888
     14 C           1.8751    4.2506    3.7652 C.ar    1  LIG1       -0.0190
     15 C           0.7285    4.9817    5.7622 C.ar    1  LIG1       -0.0337
     16 C           2.0912    5.6997   -0.7096 C.ar    1  LIG1        0.0150
     17 C           2.1233    4.8130    0.4003 C.2     1  LIG1        0.0302
     18 C           2.6499    3.0057    1.7732 C.3     1  LIG1        0.0171
     19 C           2.6620    3.4017    0.2932 C.3     1  LIG1        0.0415
     20 N           1.6920    5.1427    1.5800 N.2     1  LIG1       -0.3112
     21 N           1.9008    4.0814    2.4017 N.pl3   1  LIG1       -0.3240
     22 S           3.2817    5.5493   -1.9313 S.2     1  LIG1       -0.1095
     23 BR         -0.7900    5.7399    6.5934 Br      1  LIG1       -0.1048
     24 H          -0.5914    0.3020   -2.6420 H       1  LIG1        0.1171
     25 H           1.8473   -0.1516   -2.5981 H       1  LIG1        0.1186
     26 H          -1.5260    2.1889   -1.3290 H       1  LIG1        0.1164
     27 H           3.7984    3.7319    6.5208 H       1  LIG1        0.1364
     28 H           0.9400    8.2165   -2.6004 H       1  LIG1        0.1157
     29 H           3.3506    1.2730   -1.2471 H       1  LIG1        0.1213
     30 H          -0.0312    3.6192    0.0249 H       1  LIG1        0.1140
     31 H           3.8495    3.4253    4.0691 H       1  LIG1        0.1256
     32 H           1.8205    4.7204    7.6128 H       1  LIG1        0.1240
     33 H           0.3761    6.9789   -0.3275 H       1  LIG1        0.1298
     34 H          -0.0976    5.1111    3.7717 H       1  LIG1        0.1434
     35 H           3.0583    7.1617   -3.7540 H       1  LIG1        0.1687
     36 H           2.1924    2.0288    1.9652 H       1  LIG1        0.1177
     37 H           3.6772    2.9900    2.1583 H       1  LIG1        0.1171
     38 H           3.6698    3.3914   -0.1304 H       1  LIG1        0.1232
@<TRIPOS>BOND
     1     1     2   ar
     2     1     3   ar
     3     2     6   ar
     4     3     7   ar
     5     4     8   ar
     6     4     9   ar
     7     5    10   ar
     8     5    12   ar
     9     6    13   ar
    10     7    13   ar
    11     8    14   ar
    12     9    15   ar
    13    10    16   ar
    14    11    14   ar
    15    11    15   ar
    16    12    22   ar
    17    13    19    1
    18    14    21    1
    19    15    23    1
    20    16    17    1
    21    16    22   ar
    22    17    19    1
    23    17    20    2
    24    18    19    1
    25    18    21    1
    26    20    21    1
    27     1    24    1
    28     2    25    1
    29     3    26    1
    30     4    27    1
    31     5    28    1
    32     6    29    1
    33     7    30    1
    34     8    31    1
    35     9    32    1
    36    10    33    1
    37    11    34    1
    38    12    35    1
    39    18    36    1
    40    18    37    1
    41    19    38    1
