@<TRIPOS>MOLECULE
AJ-333/36116061
 38 40 0 0 0
SMALL
USER_CHARGES

@<TRIPOS>ATOM
      1 C           0.5609    0.5076   -1.9788 C.ar    1  LIG1       -0.1099
      2 C          -0.4212    1.4782   -1.7817 C.ar    1  LIG1       -0.1051
      3 C           1.8982    0.8051   -1.7166 C.ar    1  LIG1       -0.1088
      4 C           1.2042    5.5476    6.1250 C.ar    1  LIG1       -0.0606
      5 C           1.3017    5.7684    4.7587 C.ar    1  LIG1       -0.0745
      6 C           3.3844    3.0262    2.3714 C.ar    1  LIG1       -0.0643
      7 C          -0.0660    2.7464   -1.3225 C.ar    1  LIG1       -0.0982
      8 C           2.2534    2.0733   -1.2573 C.ar    1  LIG1       -0.1037
      9 C           3.2681    2.8326    3.7501 C.ar    1  LIG1       -0.0471
     10 C           2.1114    5.0563    2.5590 C.ar    1  LIG1       -0.0563
     11 C           1.8095    4.4162    6.6332 C.ar    1  LIG1       -0.0310
     12 C           1.9946    4.8613    3.9456 C.ar    1  LIG1       -0.0413
     13 C           2.8053    4.1394    1.7747 C.ar    1  LIG1        0.0008
     14 C           1.2713    3.0441   -1.0602 C.ar    1  LIG1       -0.0911
     15 C           2.5800    3.7335    4.5583 C.ar    1  LIG1       -0.0245
     16 C           2.9240    4.3454    0.3404 C.2     1  LIG1        0.0860
     17 C           2.2603    6.8189   -1.2547 C.3     1  LIG1       -0.0665
     18 C           1.8602    5.4247   -1.7222 C.3     1  LIG1       -0.0435
     19 C           1.6589    4.4252   -0.5602 C.3     1  LIG1        0.0437
     20 N           2.4870    3.5165    5.8839 N.ar    1  LIG1       -0.3889
     21 O           4.0531    4.4783   -0.1746 O.2     1  LIG1       -0.4535
     22 H           0.2840   -0.4803   -2.3352 H       1  LIG1        0.1128
     23 H          -1.4627    1.2464   -1.9849 H       1  LIG1        0.1138
     24 H           2.6629    0.0492   -1.8689 H       1  LIG1        0.1129
     25 H           0.6724    6.2387    6.7679 H       1  LIG1        0.1295
     26 H           0.8328    6.6517    4.3311 H       1  LIG1        0.1481
     27 H           3.9292    2.2976    1.7764 H       1  LIG1        0.1419
     28 H          -0.8379    3.4967   -1.1720 H       1  LIG1        0.1245
     29 H           3.2978    2.2962   -1.0557 H       1  LIG1        0.1159
     30 H           3.7305    1.9525    4.1933 H       1  LIG1        0.1487
     31 H           1.6574    5.9289    2.0920 H       1  LIG1        0.1557
     32 H           1.7678    4.1917    7.6940 H       1  LIG1        0.2150
     33 H           1.5207    7.2024   -0.5445 H       1  LIG1        0.0351
     34 H           3.2328    6.8007   -0.7525 H       1  LIG1        0.0333
     35 H           2.3143    7.5236   -2.0900 H       1  LIG1        0.0350
     36 H           2.6105    5.0553   -2.4323 H       1  LIG1        0.0526
     37 H           0.9224    5.5146   -2.2858 H       1  LIG1        0.0532
     38 H           0.8603    4.8396    0.0676 H       1  LIG1        0.1102
@<TRIPOS>BOND
     1     1     2   ar
     2     1     3   ar
     3     2     7   ar
     4     3     8   ar
     5     4     5   ar
     6     4    11   ar
     7     5    12   ar
     8     6     9   ar
     9     6    13   ar
    10     7    14   ar
    11     8    14   ar
    12     9    15   ar
    13    10    12   ar
    14    10    13   ar
    15    11    20   ar
    16    12    15   ar
    17    13    16    1
    18    14    19    1
    19    15    20   ar
    20    16    19    1
    21    16    21    2
    22    17    18    1
    23    18    19    1
    24     1    22    1
    25     2    23    1
    26     3    24    1
    27     4    25    1
    28     5    26    1
    29     6    27    1
    30     7    28    1
    31     8    29    1
    32     9    30    1
    33    10    31    1
    34    11    32    1
    35    17    33    1
    36    17    34    1
    37    17    35    1
    38    18    36    1
    39    18    37    1
    40    19    38    1
