@<TRIPOS>MOLECULE
AE-641/00006013
 37 40 0 0 0
SMALL
USER_CHARGES

@<TRIPOS>ATOM
      1 C           2.4021    7.5681   -2.7653 C.ar    1  LIG1       -0.1049
      2 C           1.8956    4.4944    6.4566 C.ar    1  LIG1       -0.1052
      3 C           0.8298    1.5170   -2.0643 C.ar    1  LIG1       -0.0969
      4 C           3.4500    6.7500   -2.3431 C.ar    1  LIG1       -0.1011
      5 C           1.1151    7.3661   -2.2666 C.ar    1  LIG1       -0.1018
      6 C           3.0005    4.6846    5.6269 C.ar    1  LIG1       -0.1014
      7 C           0.6826    4.0674    5.9160 C.ar    1  LIG1       -0.0982
      8 C           0.6120    0.5675   -1.0738 C.ar    1  LIG1       -0.0872
      9 C           1.1835    2.8147   -1.7062 C.ar    1  LIG1       -0.0833
     10 C           3.2110    5.7299   -1.4222 C.ar    1  LIG1       -0.0890
     11 C           0.8761    6.3460   -1.3457 C.ar    1  LIG1       -0.0897
     12 C           2.8926    4.4480    4.2565 C.ar    1  LIG1       -0.0812
     13 C           0.5747    3.8307    4.5456 C.ar    1  LIG1       -0.0755
     14 C           0.7483    0.9173    0.2719 C.ar    1  LIG1       -0.0519
     15 C           1.8030    4.7810    1.3810 C.ar    1  LIG1       -0.0327
     16 C           1.3205    3.1664   -0.3525 C.ar    1  LIG1       -0.0361
     17 C           1.9241    5.5279   -0.9235 C.ar    1  LIG1       -0.0703
     18 C           1.6796    4.0211    3.7158 C.ar    1  LIG1       -0.0348
     19 C           1.6755    4.4652    0.0360 C.ar    1  LIG1       -0.0495
     20 C           1.1011    2.2074    0.6584 C.ar    1  LIG1       -0.0189
     21 C           1.5684    3.7760    2.2975 C.ar    1  LIG1       -0.0079
     22 N           1.2240    2.5109    1.9645 N.ar    1  LIG1       -0.3745
     23 H           2.5887    8.3633   -3.4811 H       1  LIG1        0.1189
     24 H           1.9804    4.6770    7.5238 H       1  LIG1        0.1190
     25 H           0.7246    1.2482   -3.1110 H       1  LIG1        0.1218
     26 H           4.4524    6.9082   -2.7300 H       1  LIG1        0.1197
     27 H           0.2990    8.0035   -2.5939 H       1  LIG1        0.1194
     28 H           3.9454    5.0154    6.0478 H       1  LIG1        0.1179
     29 H          -0.1777    3.9178    6.5618 H       1  LIG1        0.1180
     30 H           0.3355   -0.4474   -1.3447 H       1  LIG1        0.1288
     31 H           1.3466    3.5332   -2.5057 H       1  LIG1        0.1299
     32 H           4.0385    5.1009   -1.1027 H       1  LIG1        0.1248
     33 H          -0.1321    6.2009   -0.9652 H       1  LIG1        0.1246
     34 H           3.7631    4.6006    3.6228 H       1  LIG1        0.1261
     35 H          -0.3771    3.4976    4.1386 H       1  LIG1        0.1384
     36 H           0.5720    0.1550    1.0286 H       1  LIG1        0.1442
     37 H           2.0770    5.7814    1.7042 H       1  LIG1        0.1403
@<TRIPOS>BOND
     1     1     4   ar
     2     1     5   ar
     3     2     6   ar
     4     2     7   ar
     5     3     8   ar
     6     3     9   ar
     7     4    10   ar
     8     5    11   ar
     9     6    12   ar
    10     7    13   ar
    11     8    14   ar
    12     9    16   ar
    13    10    17   ar
    14    11    17   ar
    15    12    18   ar
    16    13    18   ar
    17    14    20   ar
    18    15    19   ar
    19    15    21   ar
    20    16    19   ar
    21    16    20   ar
    22    17    19    1
    23    18    21    1
    24    20    22   ar
    25    21    22   ar
    26     1    23    1
    27     2    24    1
    28     3    25    1
    29     4    26    1
    30     5    27    1
    31     6    28    1
    32     7    29    1
    33     8    30    1
    34     9    31    1
    35    10    32    1
    36    11    33    1
    37    12    34    1
    38    13    35    1
    39    14    36    1
    40    15    37    1
