@<TRIPOS>MOLECULE
AG-690/11741294
 40 42 0 0 0
SMALL
USER_CHARGES

@<TRIPOS>ATOM
      1 C           0.7081    4.7732    5.5746 C.ar    1  LIG1       -0.0863
      2 C           0.8530    5.0942    4.2250 C.ar    1  LIG1       -0.0564
      3 C           1.2384    6.1504   -0.8153 C.ar    1  LIG1       -0.0746
      4 C           3.2189    5.4866   -2.0295 C.ar    1  LIG1       -0.0782
      5 C           1.7539    4.1558    6.2609 C.ar    1  LIG1       -0.0781
      6 C           1.1220    7.2812   -1.6236 C.ar    1  LIG1       -0.0756
      7 C           3.1024    6.6174   -2.8379 C.ar    1  LIG1       -0.0771
      8 C           3.0895    4.1804    4.2479 C.ar    1  LIG1       -0.0433
      9 C           2.0437    4.7978    3.5616 C.ar    1  LIG1        0.0478
     10 C           2.2871    5.2532   -1.0182 C.ar    1  LIG1       -0.0426
     11 C           2.0538    7.5146   -2.6349 C.ar    1  LIG1       -0.0380
     12 C           2.9445    3.8593    5.5975 C.ar    1  LIG1       -0.0312
     13 C           0.8399    2.4269    0.4700 C.2     1  LIG1       -0.0094
     14 C           2.1960    5.1380    2.1335 C.2     1  LIG1        0.1646
     15 C           1.6556    2.8279   -0.7223 C.3     1  LIG1        0.0561
     16 C           2.4141    4.0207   -0.1371 C.3     1  LIG1        0.0778
     17 C          -0.5721    1.0047   -0.9748 C.3     1  LIG1       -0.0493
     18 C          -0.0393    1.2223    0.4263 C.3     1  LIG1       -0.0032
     19 N           0.9295    3.1925    1.5101 N.2     1  LIG1       -0.3180
     20 N           1.8154    4.1851    1.1983 N.am    1  LIG1       -0.2339
     21 O           2.6544    6.2462    1.8615 O.2     1  LIG1       -0.4494
     22 O           3.7778    3.6450    0.0526 O.3     1  LIG1       -0.4411
     23 BR          1.8954    9.0471   -3.7293 Br      1  LIG1       -0.1069
     24 BR          4.3610    3.0226    6.5277 Br      1  LIG1       -0.1092
     25 H          -0.2189    5.0040    6.0910 H       1  LIG1        0.1287
     26 H           0.0314    5.5750    3.7007 H       1  LIG1        0.1729
     27 H           0.5077    5.9765   -0.0298 H       1  LIG1        0.1405
     28 H           4.0397    4.7935   -2.1942 H       1  LIG1        0.1275
     29 H           1.6244    3.9123    7.3123 H       1  LIG1        0.1422
     30 H           0.2994    7.9709   -1.4515 H       1  LIG1        0.1385
     31 H           3.8365    6.7846   -3.6215 H       1  LIG1        0.1364
     32 H           4.0161    3.9513    3.7256 H       1  LIG1        0.1564
     33 H           2.3058    2.0034   -1.0282 H       1  LIG1        0.1242
     34 H           0.9708    3.0905   -1.5352 H       1  LIG1        0.1202
     35 H          -1.1528    1.8724   -1.3023 H       1  LIG1        0.0431
     36 H          -1.2192    0.1219   -1.0161 H       1  LIG1        0.0399
     37 H           0.2449    0.8500   -1.6874 H       1  LIG1        0.0400
     38 H           0.5417    0.3563    0.7565 H       1  LIG1        0.0970
     39 H          -0.8628    1.3760    1.1296 H       1  LIG1        0.0968
     40 H           4.2209    4.3981    0.4769 H       1  LIG1        0.3515
@<TRIPOS>BOND
     1     1     2   ar
     2     1     5   ar
     3     2     9   ar
     4     3     6   ar
     5     3    10   ar
     6     4     7   ar
     7     4    10   ar
     8     5    12   ar
     9     6    11   ar
    10     7    11   ar
    11     8     9   ar
    12     8    12   ar
    13     9    14    1
    14    10    16    1
    15    11    23    1
    16    12    24    1
    17    13    15    1
    18    13    18    1
    19    13    19    2
    20    14    20   am
    21    14    21    2
    22    15    16    1
    23    16    20    1
    24    16    22    1
    25    17    18    1
    26    19    20    1
    27     1    25    1
    28     2    26    1
    29     3    27    1
    30     4    28    1
    31     5    29    1
    32     6    30    1
    33     7    31    1
    34     8    32    1
    35    15    33    1
    36    15    34    1
    37    17    35    1
    38    17    36    1
    39    17    37    1
    40    18    38    1
    41    18    39    1
    42    22    40    1
