@<TRIPOS>MOLECULE
AG-205/37168058
 39 41 0 0 0
SMALL
USER_CHARGES

@<TRIPOS>ATOM
      1 C           0.9297    4.8550    3.9895 C.ar    1  LIG1       -0.0656
      2 C           3.1747    4.3535    4.7281 C.ar    1  LIG1       -0.0641
      3 C           1.3305    6.0462   -0.3255 C.ar    1  LIG1       -0.0783
      4 C           3.0682    5.5074   -1.9151 C.ar    1  LIG1       -0.0759
      5 C           0.4742    4.7514    5.3038 C.ar    1  LIG1       -0.0706
      6 C           2.7192    4.2500    6.0425 C.ar    1  LIG1       -0.0738
      7 C           1.0908    7.2465   -0.9944 C.ar    1  LIG1       -0.0694
      8 C           2.8286    6.7077   -2.5840 C.ar    1  LIG1       -0.0687
      9 C           2.2800    4.6560    3.7017 C.ar    1  LIG1        0.0331
     10 C           2.3194    5.1767   -0.7858 C.ar    1  LIG1       -0.0442
     11 C           1.3690    4.4490    6.3303 C.ar    1  LIG1       -0.1002
     12 C           1.8398    7.5773   -2.1237 C.ar    1  LIG1       -0.0138
     13 C           1.1134    2.2162    0.6557 C.2     1  LIG1       -0.0115
     14 C           2.7619    4.7655    2.3109 C.2     1  LIG1        0.1510
     15 C           1.7198    2.7314   -0.6149 C.3     1  LIG1        0.0534
     16 C           2.5799    3.8675   -0.0580 C.3     1  LIG1        0.0755
     17 C           0.2260    1.0168    0.6494 C.3     1  LIG1        0.0036
     18 N           1.3864    2.8812    1.7324 N.2     1  LIG1       -0.3206
     19 N           2.2178    3.9029    1.3690 N.am    1  LIG1       -0.2373
     20 N           0.9084    4.3443    7.6592 N.pl3   1  LIG1       -0.4181
     21 O           3.6196    5.6145    2.0743 O.2     1  LIG1       -0.4603
     22 O           3.9516    3.4822   -0.1384 O.3     1  LIG1       -0.4426
     23 CL          1.5436    9.0579   -2.9487 Cl      1  LIG1       -0.1407
     24 H           0.2237    5.0911    3.1975 H       1  LIG1        0.1464
     25 H           4.2290    4.1966    4.5151 H       1  LIG1        0.1702
     26 H           0.7429    5.7957    0.5538 H       1  LIG1        0.1298
     27 H           3.8404    4.8353   -2.2804 H       1  LIG1        0.1402
     28 H          -0.5801    4.9083    5.5171 H       1  LIG1        0.1115
     29 H           3.4250    4.0139    6.8346 H       1  LIG1        0.1091
     30 H           0.3169    7.9140   -0.6243 H       1  LIG1        0.1341
     31 H           3.4200    6.9522   -3.4626 H       1  LIG1        0.1358
     32 H           2.2996    1.9424   -1.1023 H       1  LIG1        0.1185
     33 H           0.9103    3.0659   -1.2718 H       1  LIG1        0.1218
     34 H           0.8212    0.1147    0.7921 H       1  LIG1        0.0892
     35 H          -0.3024    0.9511   -0.3024 H       1  LIG1        0.0855
     36 H          -0.5071    1.0939    1.4530 H       1  LIG1        0.0870
     37 H          -0.0526    4.5354    7.8591 H       1  LIG1        0.2550
     38 H           1.5673    4.1736    8.3917 H       1  LIG1        0.2547
     39 H           4.4687    4.1941    0.2731 H       1  LIG1        0.3504
@<TRIPOS>BOND
     1     1     5   ar
     2     1     9   ar
     3     2     6   ar
     4     2     9   ar
     5     3     7   ar
     6     3    10   ar
     7     4     8   ar
     8     4    10   ar
     9     5    11   ar
    10     6    11   ar
    11     7    12   ar
    12     8    12   ar
    13     9    14    1
    14    10    16    1
    15    11    20    1
    16    12    23    1
    17    13    15    1
    18    13    17    1
    19    13    18    2
    20    14    19   am
    21    14    21    2
    22    15    16    1
    23    16    19    1
    24    16    22    1
    25    18    19    1
    26     1    24    1
    27     2    25    1
    28     3    26    1
    29     4    27    1
    30     5    28    1
    31     6    29    1
    32     7    30    1
    33     8    31    1
    34    15    32    1
    35    15    33    1
    36    17    34    1
    37    17    35    1
    38    17    36    1
    39    20    37    1
    40    20    38    1
    41    22    39    1
