@<TRIPOS>MOLECULE
AQ-344/43100387
 56 60 0 0 0
SMALL
USER_CHARGES

@<TRIPOS>ATOM
      1 C           6.1307    1.2301    1.7631 C.ar    1  LIG1       -0.1085
      2 C           1.6433    4.5476    6.6140 C.ar    1  LIG1       -0.1075
      3 C           2.7144    7.5322   -2.4760 C.ar    1  LIG1       -0.1078
      4 C           4.9708    0.4575    1.8211 C.ar    1  LIG1       -0.1064
      5 C           6.0399    2.6203    1.6923 C.ar    1  LIG1       -0.1032
      6 C           0.5727    4.6945    5.7321 C.ar    1  LIG1       -0.1055
      7 C           2.9389    4.3976    6.1193 C.ar    1  LIG1       -0.1047
      8 C           1.3865    7.6443   -2.0639 C.ar    1  LIG1       -0.1014
      9 C           3.5240    6.5235   -1.9535 C.ar    1  LIG1       -0.1049
     10 C           3.7202    1.0749    1.8082 C.ar    1  LIG1       -0.0964
     11 C           4.7893    3.2377    1.6794 C.ar    1  LIG1       -0.0904
     12 C           0.7975    4.6911    4.3555 C.ar    1  LIG1       -0.0973
     13 C           3.1637    4.3942    4.7427 C.ar    1  LIG1       -0.0961
     14 C           0.8683    6.7479   -1.1293 C.ar    1  LIG1       -0.0823
     15 C           3.0057    5.6271   -1.0190 C.ar    1  LIG1       -0.0889
     16 C          -0.0548    2.0069   -0.4453 C.ar    1  LIG1       -0.0557
     17 C           2.1604    1.8681   -1.3995 C.ar    1  LIG1       -0.0804
     18 C          -0.4947    1.0155   -1.3223 C.ar    1  LIG1       -0.0465
     19 C           1.7205    0.8767   -2.2765 C.ar    1  LIG1       -0.0695
     20 C           3.6294    2.4651    1.7374 C.ar    1  LIG1       -0.0762
     21 C           2.0930    4.5410    3.8608 C.ar    1  LIG1       -0.0710
     22 C           1.6779    5.7393   -0.6068 C.ar    1  LIG1       -0.0471
     23 C           1.2728    2.4333   -0.4838 C.ar    1  LIG1       -0.0514
     24 C           0.3929    0.4504   -2.2378 C.ar    1  LIG1       -0.0132
     25 C           2.2677    3.1381    1.7231 C.3     1  LIG1        0.0315
     26 C           2.3371    4.5369    2.3706 C.3     1  LIG1        0.0596
     27 C           1.1159    4.7658    0.4081 C.3     1  LIG1        0.0681
     28 C          -1.4060   -0.9055   -3.0001 C.3     1  LIG1        0.0232
     29 N           1.7119    3.4231    0.3916 N.pl3   1  LIG1       -0.3563
     30 O           1.3266    5.3274    1.7178 O.3     1  LIG1       -0.4039
     31 O          -0.0364   -0.5170   -3.0937 O.3     1  LIG1       -0.4183
     32 H           7.1045    0.7492    1.7746 H       1  LIG1        0.1136
     33 H           1.4683    4.5516    7.6859 H       1  LIG1        0.1156
     34 H           3.1174    8.2294   -3.2046 H       1  LIG1        0.1152
     35 H           5.0414   -0.6249    1.8773 H       1  LIG1        0.1135
     36 H           6.9428    3.2222    1.6482 H       1  LIG1        0.1145
     37 H          -0.4360    4.8125    6.1172 H       1  LIG1        0.1149
     38 H           3.7727    4.2843    6.8056 H       1  LIG1        0.1168
     39 H           0.7557    8.4289   -2.4714 H       1  LIG1        0.1144
     40 H           4.5575    6.4353   -2.2749 H       1  LIG1        0.1139
     41 H           2.8219    0.4649    1.8535 H       1  LIG1        0.1156
     42 H           4.7282    4.3215    1.6239 H       1  LIG1        0.1301
     43 H          -0.0428    4.8059    3.6758 H       1  LIG1        0.1161
     44 H           4.1764    4.2765    4.3663 H       1  LIG1        0.1207
     45 H          -0.1674    6.8430   -0.8139 H       1  LIG1        0.1340
     46 H           3.6440    4.8445   -0.6172 H       1  LIG1        0.1188
     47 H          -0.7549    2.4405    0.2643 H       1  LIG1        0.1517
     48 H           3.1972    2.1929   -1.4381 H       1  LIG1        0.1204
     49 H          -1.5300    0.6876   -1.2874 H       1  LIG1        0.1336
     50 H           2.4167    0.4402   -2.9875 H       1  LIG1        0.1125
     51 H           1.5567    2.4948    2.3020 H       1  LIG1        0.1190
     52 H           3.3110    5.0342    2.1793 H       1  LIG1        0.1511
     53 H           0.0051    4.7284    0.2728 H       1  LIG1        0.1530
     54 H          -1.6160   -1.6837   -3.7379 H       1  LIG1        0.0885
     55 H          -2.0450   -0.0371   -3.1789 H       1  LIG1        0.0886
     56 H          -1.5972   -1.2959   -1.9977 H       1  LIG1        0.1220
@<TRIPOS>BOND
     1     1     4   ar
     2     1     5   ar
     3     2     6   ar
     4     2     7   ar
     5     3     8   ar
     6     3     9   ar
     7     4    10   ar
     8     5    11   ar
     9     6    12   ar
    10     7    13   ar
    11     8    14   ar
    12     9    15   ar
    13    10    20   ar
    14    11    20   ar
    15    12    21   ar
    16    13    21   ar
    17    14    22   ar
    18    15    22   ar
    19    16    18   ar
    20    16    23   ar
    21    17    19   ar
    22    17    23   ar
    23    18    24   ar
    24    19    24   ar
    25    20    25    1
    26    21    26    1
    27    22    27    1
    28    23    29    1
    29    24    31    1
    30    25    26    1
    31    25    29    1
    32    26    30    1
    33    27    29    1
    34    27    30    1
    35    28    31    1
    36     1    32    1
    37     2    33    1
    38     3    34    1
    39     4    35    1
    40     5    36    1
    41     6    37    1
    42     7    38    1
    43     8    39    1
    44     9    40    1
    45    10    41    1
    46    11    42    1
    47    12    43    1
    48    13    44    1
    49    14    45    1
    50    15    46    1
    51    16    47    1
    52    17    48    1
    53    18    49    1
    54    19    50    1
    55    25    51    1
    56    26    52    1
    57    27    53    1
    58    28    54    1
    59    28    55    1
    60    28    56    1
