@<TRIPOS>MOLECULE
AK-968/41925152
 41 43 0 0 0
SMALL
USER_CHARGES

@<TRIPOS>ATOM
      1 C           0.9764    0.4416   -1.9195 C.ar    1  LIG1       -0.1073
      2 C           2.8085    7.4088   -2.0688 C.ar    1  LIG1       -0.1051
      3 C           2.0594    1.3191   -1.9717 C.ar    1  LIG1       -0.1036
      4 C          -0.1842    0.8057   -1.2366 C.ar    1  LIG1       -0.1057
      5 C           1.4971    7.0857   -2.4171 C.ar    1  LIG1       -0.1044
      6 C           3.4485    6.7152   -1.0416 C.ar    1  LIG1       -0.1020
      7 C           2.6091    4.2975    3.8626 C.ar    1  LIG1       -0.0300
      8 C           1.9818    2.5607   -1.3408 C.ar    1  LIG1       -0.0924
      9 C          -0.2615    2.0473   -0.6057 C.ar    1  LIG1       -0.0954
     10 C           0.8254    6.0692   -1.7378 C.ar    1  LIG1       -0.0957
     11 C           2.7769    5.6987   -0.3625 C.ar    1  LIG1       -0.0917
     12 C           3.1804    4.1056    5.1205 C.ar    1  LIG1       -0.0222
     13 C           0.5423    4.9873    4.9065 C.ar    1  LIG1       -0.0159
     14 C           1.2900    4.7384    3.7555 C.ar    1  LIG1        0.0502
     15 C           0.8214    2.9249   -0.6579 C.ar    1  LIG1       -0.0734
     16 C           1.4654    5.3757   -0.7106 C.ar    1  LIG1       -0.0742
     17 C           2.4327    4.3545    6.2714 C.ar    1  LIG1        0.1003
     18 C           1.1136    4.7953    6.1645 C.ar    1  LIG1        0.0576
     19 C           0.6949    4.9383    2.4437 C.2     1  LIG1        0.1236
     20 C           0.7367    4.2722    0.0273 C.3     1  LIG1        0.0152
     21 N           1.2063    4.1713    1.3904 N.am    1  LIG1       -0.3231
     22 N           3.0505    4.1476    7.5370 N.pl3   1  LIG1       -0.0360
     23 O           3.6607    5.1008    8.0749 O.2     1  LIG1       -0.1387
     24 O          -0.2126    5.7736    2.2828 O.2     1  LIG1       -0.4619
     25 O           2.9651    3.0187    8.0741 O.2     1  LIG1       -0.2433
     26 CL          0.1466    5.1178    7.5607 Cl      1  LIG1       -0.0801
     27 H           1.0363   -0.5247   -2.4119 H       1  LIG1        0.1154
     28 H           3.3318    8.1994   -2.5987 H       1  LIG1        0.1180
     29 H           2.9626    1.0362   -2.5043 H       1  LIG1        0.1174
     30 H          -1.0279    0.1232   -1.1967 H       1  LIG1        0.1147
     31 H           0.9990    7.6249   -3.2175 H       1  LIG1        0.1186
     32 H           4.4700    6.9658   -0.7711 H       1  LIG1        0.1200
     33 H           3.2013    4.1005    2.9726 H       1  LIG1        0.1742
     34 H           2.8306    3.2379   -1.3865 H       1  LIG1        0.1216
     35 H          -1.1696    2.3224   -0.0758 H       1  LIG1        0.1137
     36 H          -0.1963    5.8244   -2.0158 H       1  LIG1        0.1136
     37 H           3.2833    5.1639    0.4366 H       1  LIG1        0.1232
     38 H           4.2101    3.7628    5.1879 H       1  LIG1        0.1807
     39 H          -0.4862    5.3307    4.8167 H       1  LIG1        0.1611
     40 H          -0.3176    4.5634    0.1212 H       1  LIG1        0.1589
     41 H           1.9897    3.5501    1.5640 H       1  LIG1        0.3046
@<TRIPOS>BOND
     1     1     3   ar
     2     1     4   ar
     3     2     5   ar
     4     2     6   ar
     5     3     8   ar
     6     4     9   ar
     7     5    10   ar
     8     6    11   ar
     9     7    12   ar
    10     7    14   ar
    11     8    15   ar
    12     9    15   ar
    13    10    16   ar
    14    11    16   ar
    15    12    17   ar
    16    13    14   ar
    17    13    18   ar
    18    14    19    1
    19    15    20    1
    20    16    20    1
    21    17    18   ar
    22    17    22    1
    23    18    26    1
    24    19    21   am
    25    19    24    2
    26    20    21    1
    27    22    23    1
    28    22    25    2
    29     1    27    1
    30     2    28    1
    31     3    29    1
    32     4    30    1
    33     5    31    1
    34     6    32    1
    35     7    33    1
    36     8    34    1
    37     9    35    1
    38    10    36    1
    39    11    37    1
    40    12    38    1
    41    13    39    1
    42    20    40    1
    43    21    41    1
