@<TRIPOS>MOLECULE
AN-465/41988249
 48 50 0 0 0
SMALL
USER_CHARGES

@<TRIPOS>ATOM
      1 C           0.8171    0.4650   -2.1235 C.ar    1  LIG1       -0.0949
      2 C           2.6529    7.4088   -1.8721 C.ar    1  LIG1       -0.0946
      3 C           1.9267    1.3096   -2.1534 C.ar    1  LIG1       -0.0979
      4 C          -0.2913    0.7968   -1.3442 C.ar    1  LIG1       -0.0943
      5 C           1.3462    7.0326   -2.1825 C.ar    1  LIG1       -0.0994
      6 C           3.3680    6.7088   -0.9004 C.ar    1  LIG1       -0.0934
      7 C           1.0018    4.5014    6.2566 C.ar    1  LIG1       -0.0951
      8 C           2.3742    4.5171    6.5050 C.ar    1  LIG1       -0.0937
      9 C           1.9280    2.4862   -1.4040 C.ar    1  LIG1       -0.1040
     10 C          -0.2899    1.9733   -0.5948 C.ar    1  LIG1       -0.0972
     11 C           0.7543    5.9566   -1.5211 C.ar    1  LIG1       -0.1071
     12 C           2.7762    5.6326   -0.2390 C.ar    1  LIG1       -0.0969
     13 C           0.5271    4.6520    4.9536 C.ar    1  LIG1       -0.0953
     14 C           3.2720    4.6835    5.4506 C.ar    1  LIG1       -0.0646
     15 C           0.8197    2.8181   -0.6248 C.ar    1  LIG1       -0.1160
     16 C           1.4694    5.2566   -0.5494 C.ar    1  LIG1       -0.1178
     17 C           1.4249    4.8185    3.8991 C.ar    1  LIG1       -0.0872
     18 C           2.7974    4.8342    4.1476 C.ar    1  LIG1       -0.0188
     19 C           5.4945    3.9998    1.9152 C.3     1  LIG1       -0.0337
     20 C           0.8963    4.9793    2.5043 C.3     1  LIG1       -0.0761
     21 C           4.9653    4.3814    3.2812 C.3     1  LIG1        0.0143
     22 C           0.8206    4.0757    0.1769 C.3     1  LIG1       -0.0767
     23 N           1.3674    3.9279    1.5826 N.4     1  LIG1        0.4304
     24 O           3.6877    4.9966    3.1292 O.3     1  LIG1       -0.4197
     25 H           0.8157   -0.4503   -2.7080 H       1  LIG1        0.1308
     26 H           3.1140    8.2459   -2.3882 H       1  LIG1        0.1322
     27 H           2.7893    1.0520   -2.7609 H       1  LIG1        0.1270
     28 H          -1.1557    0.1400   -1.3215 H       1  LIG1        0.1296
     29 H           0.7895    7.5769   -2.9399 H       1  LIG1        0.1281
     30 H           4.3859    7.0006   -0.6593 H       1  LIG1        0.1312
     31 H           0.3021    4.3724    7.0775 H       1  LIG1        0.1235
     32 H           2.7432    4.4008    7.5198 H       1  LIG1        0.1414
     33 H           2.7970    3.1382   -1.4334 H       1  LIG1        0.1122
     34 H          -1.1578    2.2237    0.0095 H       1  LIG1        0.1300
     35 H          -0.2644    5.6708   -1.7694 H       1  LIG1        0.1085
     36 H           3.3409    5.0931    0.5167 H       1  LIG1        0.1312
     37 H          -0.5441    4.6398    4.7707 H       1  LIG1        0.1409
     38 H           4.3400    4.6951    5.6504 H       1  LIG1        0.1211
     39 H           4.8233    3.2923    1.4203 H       1  LIG1        0.0466
     40 H           5.6031    4.8863    1.2818 H       1  LIG1        0.0502
     41 H           6.4873    3.5452    1.9992 H       1  LIG1        0.0627
     42 H          -0.1983    4.9434    2.4891 H       1  LIG1        0.1101
     43 H           1.2047    5.9375    2.0725 H       1  LIG1        0.1119
     44 H           5.6412    5.0890    3.7707 H       1  LIG1        0.0996
     45 H           4.8566    3.4944    3.9124 H       1  LIG1        0.1010
     46 H          -0.2284    4.3568    0.3918 H       1  LIG1        0.1365
     47 H           2.3857    3.9374    1.5200 H       1  LIG1        0.1589
     48 H           1.0961    3.0054    1.9238 H       1  LIG1        0.1641
@<TRIPOS>BOND
     1     1     3   ar
     2     1     4   ar
     3     2     5   ar
     4     2     6   ar
     5     3     9   ar
     6     4    10   ar
     7     5    11   ar
     8     6    12   ar
     9     7     8   ar
    10     7    13   ar
    11     8    14   ar
    12     9    15   ar
    13    10    15   ar
    14    11    16   ar
    15    12    16   ar
    16    13    17   ar
    17    14    18   ar
    18    15    22    1
    19    16    22    1
    20    17    18   ar
    21    17    20    1
    22    18    24    1
    23    19    21    1
    24    20    23    1
    25    21    24    1
    26    22    23    1
    27     1    25    1
    28     2    26    1
    29     3    27    1
    30     4    28    1
    31     5    29    1
    32     6    30    1
    33     7    31    1
    34     8    32    1
    35     9    33    1
    36    10    34    1
    37    11    35    1
    38    12    36    1
    39    13    37    1
    40    14    38    1
    41    19    39    1
    42    19    40    1
    43    19    41    1
    44    20    42    1
    45    20    43    1
    46    21    44    1
    47    21    45    1
    48    22    46    1
    49    23    47    1
    50    23    48    1
