@<TRIPOS>MOLECULE
AH-357/31481008
 34 38 0 0 0
SMALL
USER_CHARGES

@<TRIPOS>ATOM
      1 C           2.4927    4.1957    3.7137 C.ar    1  LIG1       -0.1050
      2 C          -0.1233    1.0904   -1.4722 C.ar    1  LIG1       -0.1051
      3 C           3.7801    3.8278    3.2843 C.ar    1  LIG1       -0.1050
      4 C           1.1642    0.7230   -1.9019 C.ar    1  LIG1       -0.1051
      5 C           1.5370    7.4460   -1.9346 C.ar    1  LIG1       -0.1051
      6 C           2.8245    7.0785   -2.3639 C.ar    1  LIG1       -0.1050
      7 C           1.4584    4.3995    2.7972 C.ar    1  LIG1       -0.0959
      8 C          -0.3342    2.2712   -0.7564 C.ar    1  LIG1       -0.0959
      9 C           4.0650    3.6549    1.9278 C.ar    1  LIG1       -0.0958
     10 C           2.2725    1.5272   -1.6261 C.ar    1  LIG1       -0.0960
     11 C           0.8036    6.6268   -1.0733 C.ar    1  LIG1       -0.0960
     12 C           3.4103    5.8826   -1.9425 C.ar    1  LIG1       -0.0959
     13 C           1.7340    4.2294    1.4504 C.ar    1  LIG1       -0.0826
     14 C           0.7605    3.0736   -0.4796 C.ar    1  LIG1       -0.0826
     15 C           3.0439    3.8554    1.0135 C.ar    1  LIG1       -0.0825
     16 C           2.0705    2.6997   -0.9166 C.ar    1  LIG1       -0.0826
     17 C           1.3785    5.4393   -0.6515 C.ar    1  LIG1       -0.0827
     18 C           2.6885    5.0653   -1.0884 C.ar    1  LIG1       -0.0827
     19 C           0.7416    4.4042    0.2896 C.3     1  LIG1        0.0062
     20 C           3.1504    3.7166   -0.5136 C.3     1  LIG1        0.0062
     21 H           2.3008    4.3232    4.7759 H       1  LIG1        0.1156
     22 H          -0.9668    0.4445   -1.7018 H       1  LIG1        0.1156
     23 H           4.5650    3.6760    4.0208 H       1  LIG1        0.1156
     24 H           1.2975   -0.2019   -2.4569 H       1  LIG1        0.1155
     25 H           1.1070    8.3830   -2.2792 H       1  LIG1        0.1156
     26 H           3.3713    7.7367   -3.0342 H       1  LIG1        0.1156
     27 H           0.4686    4.6827    3.1383 H       1  LIG1        0.1228
     28 H          -1.3310    2.5460   -0.4295 H       1  LIG1        0.1228
     29 H           5.0612    3.3716    1.6064 H       1  LIG1        0.1228
     30 H           3.2615    1.2350   -1.9614 H       1  LIG1        0.1228
     31 H          -0.1886    6.9190   -0.7475 H       1  LIG1        0.1228
     32 H           4.4039    5.6079   -2.2791 H       1  LIG1        0.1228
     33 H          -0.2601    4.6900    0.6235 H       1  LIG1        0.1297
     34 H           4.1520    3.4307   -0.8480 H       1  LIG1        0.1297
@<TRIPOS>BOND
     1     1     3   ar
     2     1     7   ar
     3     2     4   ar
     4     2     8   ar
     5     3     9   ar
     6     4    10   ar
     7     5     6   ar
     8     5    11   ar
     9     6    12   ar
    10     7    13   ar
    11     8    14   ar
    12     9    15   ar
    13    10    16   ar
    14    11    17   ar
    15    12    18   ar
    16    13    15   ar
    17    13    19    1
    18    14    16   ar
    19    14    19    1
    20    15    20    1
    21    16    20    1
    22    17    18   ar
    23    17    19    1
    24    18    20    1
    25     1    21    1
    26     2    22    1
    27     3    23    1
    28     4    24    1
    29     5    25    1
    30     6    26    1
    31     7    27    1
    32     8    28    1
    33     9    29    1
    34    10    30    1
    35    11    31    1
    36    12    32    1
    37    19    33    1
    38    20    34    1
