@<TRIPOS>MOLECULE
AE-641/00335011
 28 30 0 0 0
SMALL
USER_CHARGES

@<TRIPOS>ATOM
      1 C           1.9457    7.5893   -2.2803 C.ar    1  LIG1       -0.1052
      2 C           3.0713    6.8041   -2.5087 C.ar    1  LIG1       -0.0983
      3 C           1.0012    7.1930   -1.3353 C.ar    1  LIG1       -0.1016
      4 C           3.2575    5.6236   -1.7888 C.ar    1  LIG1       -0.0803
      5 C          -0.4877    1.7826   -1.2764 C.ar    1  LIG1       -0.0720
      6 C           0.1740    0.6659   -1.7833 C.ar    1  LIG1       -0.0633
      7 C           2.2714    1.6745   -1.1884 C.ar    1  LIG1       -0.0602
      8 C           1.1792    6.0104   -0.6019 C.ar    1  LIG1       -0.0833
      9 C           2.3247    5.2206   -0.8198 C.ar    1  LIG1       -0.0572
     10 C           1.6259    2.8136   -0.6549 C.ar    1  LIG1       -0.0510
     11 C           0.2128    2.8729   -0.7123 C.ar    1  LIG1       -0.0456
     12 C           1.5566    0.6139   -1.7431 C.ar    1  LIG1       -0.0087
     13 C           0.1418    5.5744    0.3935 C.3     1  LIG1        0.0144
     14 C           2.4772    3.9220   -0.0545 C.3     1  LIG1        0.0247
     15 O           3.8656    3.5887    0.0499 O.3     1  LIG1       -0.4711
     16 S          -0.8938    4.1957   -0.1797 S.3     1  LIG1       -0.1872
     17 CL          2.3889   -0.7527   -2.3772 Cl      1  LIG1       -0.1327
     18 H           1.8057    8.5133   -2.8342 H       1  LIG1        0.1198
     19 H           3.8067    7.1104   -3.2478 H       1  LIG1        0.1226
     20 H           0.1287    7.8186   -1.1702 H       1  LIG1        0.1136
     21 H           4.1370    5.0209   -1.9946 H       1  LIG1        0.1333
     22 H          -1.5749    1.7867   -1.3330 H       1  LIG1        0.1430
     23 H          -0.4059   -0.1497   -2.2071 H       1  LIG1        0.1439
     24 H           3.3575    1.6153   -1.1717 H       1  LIG1        0.1343
     25 H           0.6417    5.2311    1.3172 H       1  LIG1        0.1002
     26 H          -0.4860    6.4134    0.7364 H       1  LIG1        0.1212
     27 H           2.1434    4.1154    0.9431 H       1  LIG1        0.1212
     28 H           4.2864    4.3219    0.5226 H       1  LIG1        0.3255
@<TRIPOS>BOND
     1     1     2   ar
     2     1     3   ar
     3     2     4   ar
     4     3     8   ar
     5     4     9   ar
     6     5     6   ar
     7     5    11   ar
     8     6    12   ar
     9     7    10   ar
    10     7    12   ar
    11     8     9   ar
    12     8    13    1
    13     9    14    1
    14    10    11   ar
    15    10    14    1
    16    11    16    1
    17    12    17    1
    18    13    16    1
    19    14    15    1
    20     1    18    1
    21     2    19    1
    22     3    20    1
    23     4    21    1
    24     5    22    1
    25     6    23    1
    26     7    24    1
    27    13    25    1
    28    13    26    1
    29    14    27    1
    30    15    28    1
