@<TRIPOS>MOLECULE
AP-518/41793439
 43 45 0 0 0
SMALL
USER_CHARGES

@<TRIPOS>ATOM
      1 C           0.9930    0.5393   -1.6398 C.ar    1  LIG1       -0.1085
      2 C           2.0817    1.3971   -1.7962 C.ar    1  LIG1       -0.1061
      3 C          -0.1451    0.9735   -0.9602 C.ar    1  LIG1       -0.1048
      4 C           3.1969    4.1758    5.1062 C.ar    1  LIG1       -0.0851
      5 C           2.5724    4.1052    3.8609 C.ar    1  LIG1       -0.0673
      6 C           2.0323    2.6892   -1.2730 C.ar    1  LIG1       -0.0948
      7 C          -0.1945    2.2655   -0.4369 C.ar    1  LIG1       -0.0927
      8 C           0.8605    6.2554   -1.8575 C.ar    1  LIG1       -0.0896
      9 C           2.9163    5.7977   -0.6738 C.ar    1  LIG1       -0.0837
     10 C           1.5217    7.2019   -2.6401 C.ar    1  LIG1       -0.0686
     11 C           3.5777    6.7441   -1.4565 C.ar    1  LIG1       -0.0581
     12 C           2.4536    4.4965    6.2421 C.ar    1  LIG1       -0.0436
     13 C           0.4611    4.6761    4.8875 C.ar    1  LIG1       -0.0108
     14 C           1.2045    4.3554    3.7516 C.ar    1  LIG1        0.0324
     15 C           0.8942    3.1234   -0.5933 C.ar    1  LIG1       -0.0735
     16 C           1.5577    5.5534   -0.8743 C.ar    1  LIG1       -0.0716
     17 C           2.8803    7.4462   -2.4397 C.ar    1  LIG1       -0.0150
     18 C           1.0857    4.7466    6.1328 C.ar    1  LIG1        0.0738
     19 C           0.5527    4.2822    2.4536 C.2     1  LIG1        0.1112
     20 C           2.7525    9.0490   -4.1919 C.3     1  LIG1        0.0233
     21 C           0.8400    4.5254   -0.0249 C.3     1  LIG1        0.0129
     22 N           1.3459    4.5370    1.3289 N.am    1  LIG1       -0.3263
     23 O          -0.6612    4.0238    2.3704 O.2     1  LIG1       -0.4724
     24 O           3.5258    8.3688   -3.2044 O.3     1  LIG1       -0.4187
     25 F           0.3718    5.0546    7.2234 F       1  LIG1       -0.2658
     26 H           1.0311   -0.4662   -2.0486 H       1  LIG1        0.1138
     27 H           2.9675    1.0596   -2.3264 H       1  LIG1        0.1140
     28 H          -0.9933    0.3062   -0.8393 H       1  LIG1        0.1158
     29 H           4.2619    3.9811    5.1912 H       1  LIG1        0.1363
     30 H           3.1610    3.8550    2.9821 H       1  LIG1        0.1304
     31 H           2.8854    3.3506   -1.3994 H       1  LIG1        0.1146
     32 H          -1.0853    2.5951    0.0912 H       1  LIG1        0.1203
     33 H          -0.1981    6.0716   -2.0204 H       1  LIG1        0.1316
     34 H           3.4676    5.2555    0.0900 H       1  LIG1        0.1284
     35 H           0.9731    7.7454   -3.4047 H       1  LIG1        0.1142
     36 H           4.6359    6.9296   -1.2958 H       1  LIG1        0.1297
     37 H           2.9397    4.5516    7.2118 H       1  LIG1        0.1396
     38 H          -0.6054    4.8734    4.8142 H       1  LIG1        0.1556
     39 H           3.3884    9.7562   -4.7301 H       1  LIG1        0.1220
     40 H           1.9277    9.5789   -3.7089 H       1  LIG1        0.0893
     41 H           2.3501    8.3161   -4.8952 H       1  LIG1        0.0893
     42 H          -0.2087    4.8352    0.0716 H       1  LIG1        0.1559
     43 H           2.3163    4.8049    1.4567 H       1  LIG1        0.3028
@<TRIPOS>BOND
     1     1     2   ar
     2     1     3   ar
     3     2     6   ar
     4     3     7   ar
     5     4     5   ar
     6     4    12   ar
     7     5    14   ar
     8     6    15   ar
     9     7    15   ar
    10     8    10   ar
    11     8    16   ar
    12     9    11   ar
    13     9    16   ar
    14    10    17   ar
    15    11    17   ar
    16    12    18   ar
    17    13    14   ar
    18    13    18   ar
    19    14    19    1
    20    15    21    1
    21    16    21    1
    22    17    24    1
    23    18    25    1
    24    19    22   am
    25    19    23    2
    26    20    24    1
    27    21    22    1
    28     1    26    1
    29     2    27    1
    30     3    28    1
    31     4    29    1
    32     5    30    1
    33     6    31    1
    34     7    32    1
    35     8    33    1
    36     9    34    1
    37    10    35    1
    38    11    36    1
    39    12    37    1
    40    13    38    1
    41    20    39    1
    42    20    40    1
    43    20    41    1
    44    21    42    1
    45    22    43    1
