@<TRIPOS>MOLECULE
AE-641/00191006
 30 31 0 0 0
SMALL
USER_CHARGES

@<TRIPOS>ATOM
      1 C           2.9603    4.4063    3.5306 C.1     1  LIG1        0.0167
      2 C           0.3590    0.5649   -1.2702 C.ar    1  LIG1       -0.1091
      3 C           1.1912    0.9894   -2.3059 C.ar    1  LIG1       -0.1058
      4 C           0.0197    1.4451   -0.2427 C.ar    1  LIG1       -0.1032
      5 C           1.5986    6.8382   -1.9530 C.ar    1  LIG1       -0.1021
      6 C           2.8095    7.1495   -1.3346 C.ar    1  LIG1       -0.1056
      7 C           1.6844    2.2942   -2.3141 C.ar    1  LIG1       -0.0925
      8 C           0.5129    2.7499   -0.2508 C.ar    1  LIG1       -0.0890
      9 C           1.1222    5.5272   -1.9334 C.ar    1  LIG1       -0.0812
     10 C           3.5441    6.1500   -0.6967 C.ar    1  LIG1       -0.0694
     11 C           1.3452    3.1744   -1.2866 C.ar    1  LIG1       -0.0716
     12 C           1.8568    4.5277   -1.2955 C.ar    1  LIG1       -0.0340
     13 C           3.0678    4.8391   -0.6771 C.ar    1  LIG1        0.0034
     14 C           2.7435    4.1924    2.0920 C.3     1  LIG1        0.0999
     15 C           4.0625    4.0712    1.3420 C.3     1  LIG1        0.0563
     16 N           3.1293    4.5749    4.6660 N.1     1  LIG1       -0.3951
     17 O           3.8074    3.8817   -0.0477 O.3     1  LIG1       -0.4025
     18 H          -0.0263   -0.4505   -1.2650 H       1  LIG1        0.1127
     19 H           1.4540    0.3047   -3.1069 H       1  LIG1        0.1142
     20 H          -0.6293    1.1157    0.5633 H       1  LIG1        0.1149
     21 H           1.0267    7.6167   -2.4494 H       1  LIG1        0.1127
     22 H           3.1804    8.1701   -1.3501 H       1  LIG1        0.1236
     23 H           2.3319    2.6102   -3.1287 H       1  LIG1        0.1196
     24 H           0.2394    3.4250    0.5566 H       1  LIG1        0.1243
     25 H           0.1765    5.3014   -2.4203 H       1  LIG1        0.1352
     26 H           4.4867    6.4001   -0.2173 H       1  LIG1        0.1115
     27 H           2.1466    3.2843    1.9498 H       1  LIG1        0.1458
     28 H           2.1730    5.0355    1.6872 H       1  LIG1        0.1458
     29 H           4.6622    3.2314    1.7086 H       1  LIG1        0.1124
     30 H           4.6409    4.9940    1.4543 H       1  LIG1        0.1126
@<TRIPOS>BOND
     1     1    14    1
     2     1    16    3
     3     2     3   ar
     4     2     4   ar
     5     3     7   ar
     6     4     8   ar
     7     5     6   ar
     8     5     9   ar
     9     6    10   ar
    10     7    11   ar
    11     8    11   ar
    12     9    12   ar
    13    10    13   ar
    14    11    12    1
    15    12    13   ar
    16    13    17    1
    17    14    15    1
    18    15    17    1
    19     2    18    1
    20     3    19    1
    21     4    20    1
    22     5    21    1
    23     6    22    1
    24     7    23    1
    25     8    24    1
    26     9    25    1
    27    10    26    1
    28    14    27    1
    29    14    28    1
    30    15    29    1
    31    15    30    1
