@<TRIPOS>MOLECULE
AO-080/43342489
 49 52 0 0 0
SMALL
USER_CHARGES

@<TRIPOS>ATOM
      1 C           0.3547    0.5991   -1.9760 C.ar    1  LIG1       -0.1058
      2 C           2.1843    7.5780   -2.3955 C.ar    1  LIG1       -0.1077
      3 C           1.6852    0.9516   -2.2017 C.ar    1  LIG1       -0.1046
      4 C          -0.4274    1.3517   -1.0998 C.ar    1  LIG1       -0.1037
      5 C           3.1532    6.5879   -2.5578 C.ar    1  LIG1       -0.1025
      6 C           1.1683    7.4120   -1.4541 C.ar    1  LIG1       -0.1060
      7 C           2.2338    2.0567   -1.5510 C.ar    1  LIG1       -0.0994
      8 C           0.1212    2.4568   -0.4491 C.ar    1  LIG1       -0.0974
      9 C           3.1063    5.4318   -1.7789 C.ar    1  LIG1       -0.0923
     10 C           1.1214    6.2558   -0.6752 C.ar    1  LIG1       -0.0968
     11 C           0.5946    4.8149    5.6556 C.ar    1  LIG1       -0.0445
     12 C           2.9189    4.3303    6.1031 C.ar    1  LIG1       -0.0428
     13 C           0.8211    4.6407    4.2904 C.ar    1  LIG1       -0.0515
     14 C           3.1454    4.1561    4.7378 C.ar    1  LIG1       -0.0551
     15 C           0.4609    5.2200    9.8397 C.ar    1  LIG1       -0.0645
     16 C           0.2231    5.1528    8.4887 C.ar    1  LIG1       -0.0338
     17 C           1.4519    2.8094   -0.6748 C.ar    1  LIG1       -0.0740
     18 C           2.0904    5.2657   -0.8376 C.ar    1  LIG1       -0.0681
     19 C           1.6435    4.6597    6.5620 C.ar    1  LIG1       -0.0077
     20 C           2.0964    4.3113    3.8314 C.ar    1  LIG1       -0.0471
     21 C           1.8308    4.9231    9.9712 C.ar    1  LIG1       -0.0404
     22 C           1.4035    4.2626    1.4083 C.2     1  LIG1        0.1101
     23 C           2.6189    4.8568   11.2134 C.3     1  LIG1       -0.0081
     24 C           2.0379    3.9910    0.0215 C.3     1  LIG1        0.0881
     25 N           2.4217    4.6848    8.7972 N.ar    1  LIG1       -0.3396
     26 N           1.4183    4.8318    7.9153 N.ar    1  LIG1       -0.3027
     27 N           2.3257    4.1357    2.4460 N.am    1  LIG1       -0.3100
     28 O           0.2135    4.5459    1.5140 O.2     1  LIG1       -0.4677
     29 H          -0.0728   -0.2607   -2.4837 H       1  LIG1        0.1171
     30 H           2.2217    8.4788   -3.0012 H       1  LIG1        0.1147
     31 H           2.2939    0.3663   -2.8847 H       1  LIG1        0.1174
     32 H          -1.4636    1.0782   -0.9247 H       1  LIG1        0.1184
     33 H           3.9450    6.7175   -3.2900 H       1  LIG1        0.1150
     34 H           0.4143    8.1831   -1.3268 H       1  LIG1        0.1148
     35 H           3.2715    2.3240   -1.7328 H       1  LIG1        0.1153
     36 H          -0.4956    3.0373    0.2319 H       1  LIG1        0.1216
     37 H           3.8654    4.6655   -1.9123 H       1  LIG1        0.1214
     38 H           0.3261    6.1350    0.0555 H       1  LIG1        0.1181
     39 H          -0.4043    5.0723    5.9997 H       1  LIG1        0.1361
     40 H           3.7456    4.2067    6.7983 H       1  LIG1        0.1469
     41 H          -0.0035    4.7642    3.5928 H       1  LIG1        0.1524
     42 H           4.1434    3.8997    4.3913 H       1  LIG1        0.1373
     43 H          -0.2565    5.4511   10.6136 H       1  LIG1        0.1200
     44 H          -0.6772    5.3038    7.9079 H       1  LIG1        0.2028
     45 H           2.6082    3.8395   11.6408 H       1  LIG1        0.0801
     46 H           3.6749    5.1387   11.0531 H       1  LIG1        0.0806
     47 H           2.2367    5.5465   11.9873 H       1  LIG1        0.0762
     48 H           3.1008    3.7679    0.2569 H       1  LIG1        0.1452
     49 H           3.2822    3.8968    2.1934 H       1  LIG1        0.3243
@<TRIPOS>BOND
     1     1     3   ar
     2     1     4   ar
     3     2     5   ar
     4     2     6   ar
     5     3     7   ar
     6     4     8   ar
     7     5     9   ar
     8     6    10   ar
     9     7    17   ar
    10     8    17   ar
    11     9    18   ar
    12    10    18   ar
    13    11    13   ar
    14    11    19   ar
    15    12    14   ar
    16    12    19   ar
    17    13    20   ar
    18    14    20   ar
    19    15    16   ar
    20    15    21   ar
    21    16    26   ar
    22    17    24    1
    23    18    24    1
    24    19    26    1
    25    20    27    1
    26    21    23    1
    27    21    25   ar
    28    22    24    1
    29    22    27   am
    30    22    28    2
    31    25    26   ar
    32     1    29    1
    33     2    30    1
    34     3    31    1
    35     4    32    1
    36     5    33    1
    37     6    34    1
    38     7    35    1
    39     8    36    1
    40     9    37    1
    41    10    38    1
    42    11    39    1
    43    12    40    1
    44    13    41    1
    45    14    42    1
    46    15    43    1
    47    16    44    1
    48    23    45    1
    49    23    46    1
    50    23    47    1
    51    24    48    1
    52    27    49    1
