@<TRIPOS>MOLECULE
AO-080/41004806
 51 54 0 0 0
SMALL
USER_CHARGES

@<TRIPOS>ATOM
      1 C           2.5825    7.4530   -2.4455 C.ar    1  LIG1       -0.1056
      2 C           0.7666    0.5051   -1.9543 C.ar    1  LIG1       -0.1076
      3 C           1.2355    7.0909   -2.4455 C.ar    1  LIG1       -0.1044
      4 C           3.4844    6.7845   -1.6178 C.ar    1  LIG1       -0.1036
      5 C           1.8410    1.3432   -2.2521 C.ar    1  LIG1       -0.1024
      6 C          -0.1655    0.8828   -0.9877 C.ar    1  LIG1       -0.1060
      7 C           0.7903    6.0603   -1.6178 C.ar    1  LIG1       -0.0991
      8 C           3.0393    5.7538   -0.7899 C.ar    1  LIG1       -0.0972
      9 C           1.9834    2.5591   -1.5833 C.ar    1  LIG1       -0.0922
     10 C          -0.0232    2.0985   -0.3189 C.ar    1  LIG1       -0.0967
     11 C           1.1924    4.7074    6.2468 C.ar    1  LIG1       -0.0453
     12 C           3.0249    4.1224    4.1735 C.ar    1  LIG1       -0.0141
     13 C           1.6923    5.3917   -0.7899 C.ar    1  LIG1       -0.0739
     14 C           1.0513    2.9367   -0.6167 C.ar    1  LIG1       -0.0681
     15 C           0.7808    4.7115    4.9119 C.ar    1  LIG1       -0.0650
     16 C           1.6917    4.4206    3.8812 C.ar    1  LIG1       -0.0346
     17 C           2.5140    4.4099    6.5085 C.ar    1  LIG1        0.0317
     18 C           3.4057    4.1250    5.4997 C.ar    1  LIG1        0.0399
     19 C           2.0418    4.1516    1.3994 C.2     1  LIG1        0.1123
     20 C           4.4481    4.0091    7.3922 C.3     1  LIG1        0.1111
     21 C          -0.3661    7.4988    5.0950 C.3     1  LIG1       -0.0713
     22 C          -0.6470    5.0315    4.6042 C.3     1  LIG1       -0.0382
     23 C          -0.8135    6.4629    4.0759 C.3     1  LIG1       -0.0670
     24 C           1.2065    4.2655    0.1150 C.3     1  LIG1        0.0882
     25 N           1.2782    4.4258    2.5462 N.am    1  LIG1       -0.3043
     26 O           3.2322    3.8517    1.3765 O.2     1  LIG1       -0.4655
     27 O           3.0922    4.3578    7.7392 O.3     1  LIG1       -0.3806
     28 O           4.6538    3.8593    5.9725 O.3     1  LIG1       -0.3763
     29 H           2.9292    8.2547   -3.0911 H       1  LIG1        0.1169
     30 H           0.6551   -0.4408   -2.4761 H       1  LIG1        0.1147
     31 H           0.5333    7.6107   -3.0908 H       1  LIG1        0.1174
     32 H           4.5334    7.0654   -1.6182 H       1  LIG1        0.1182
     33 H           2.5663    1.0499   -3.0054 H       1  LIG1        0.1150
     34 H          -1.0028    0.2310   -0.7564 H       1  LIG1        0.1147
     35 H          -0.2611    5.7851   -1.6243 H       1  LIG1        0.1155
     36 H           3.7492    5.2386   -0.1483 H       1  LIG1        0.1215
     37 H           2.8238    3.2056   -1.8217 H       1  LIG1        0.1216
     38 H          -0.7541    2.3845    0.4328 H       1  LIG1        0.1181
     39 H           0.5006    4.9299    7.0522 H       1  LIG1        0.1466
     40 H           3.7404    3.8970    3.3895 H       1  LIG1        0.1621
     41 H           5.1180    4.7932    7.7631 H       1  LIG1        0.1679
     42 H           4.7047    3.0646    7.8854 H       1  LIG1        0.2023
     43 H          -0.9284    7.3985    6.0288 H       1  LIG1        0.0312
     44 H           0.6996    7.3915    5.3214 H       1  LIG1        0.0305
     45 H          -0.5308    8.5087    4.7064 H       1  LIG1        0.0314
     46 H          -1.0476    4.3218    3.8623 H       1  LIG1        0.0660
     47 H          -1.2715    4.9017    5.5031 H       1  LIG1        0.0692
     48 H          -0.2318    6.5911    3.1548 H       1  LIG1        0.0450
     49 H          -1.8631    6.6456    3.8155 H       1  LIG1        0.0383
     50 H           0.1965    4.5439    0.4550 H       1  LIG1        0.1450
     51 H           0.2911    4.6502    2.3823 H       1  LIG1        0.3269
@<TRIPOS>BOND
     1     1     3   ar
     2     1     4   ar
     3     2     5   ar
     4     2     6   ar
     5     3     7   ar
     6     4     8   ar
     7     5     9   ar
     8     6    10   ar
     9     7    13   ar
    10     8    13   ar
    11     9    14   ar
    12    10    14   ar
    13    11    15   ar
    14    11    17   ar
    15    12    16   ar
    16    12    18   ar
    17    13    24    1
    18    14    24    1
    19    15    16   ar
    20    15    22    1
    21    16    25    1
    22    17    18   ar
    23    17    27    1
    24    18    28    1
    25    19    24    1
    26    19    25   am
    27    19    26    2
    28    20    27    1
    29    20    28    1
    30    21    23    1
    31    22    23    1
    32     1    29    1
    33     2    30    1
    34     3    31    1
    35     4    32    1
    36     5    33    1
    37     6    34    1
    38     7    35    1
    39     8    36    1
    40     9    37    1
    41    10    38    1
    42    11    39    1
    43    12    40    1
    44    20    41    1
    45    20    42    1
    46    21    43    1
    47    21    44    1
    48    21    45    1
    49    22    46    1
    50    22    47    1
    51    23    48    1
    52    23    49    1
    53    24    50    1
    54    25    51    1
