@<TRIPOS>MOLECULE
AN-652/41151258
 38 39 0 0 0
SMALL
USER_CHARGES

@<TRIPOS>ATOM
      1 C           2.2474    7.6596   -2.2302 C.ar    1  LIG1       -0.1088
      2 C           3.1495    6.6521   -2.5717 C.ar    1  LIG1       -0.1034
      3 C           1.2263    7.4010   -1.3157 C.ar    1  LIG1       -0.1074
      4 C           1.6228    4.4303    6.0275 C.ar    1  LIG1       -0.1074
      5 C           0.6626    4.8746    5.1185 C.ar    1  LIG1       -0.0993
      6 C           3.0306    5.3859   -1.9988 C.ar    1  LIG1       -0.0950
      7 C           1.1075    6.1348   -0.7427 C.ar    1  LIG1       -0.0999
      8 C           2.8029    3.8469    5.5661 C.ar    1  LIG1       -0.1018
      9 C           0.8824    4.7355    3.7481 C.ar    1  LIG1       -0.0683
     10 C           2.0095    5.1272   -1.0843 C.ar    1  LIG1       -0.0798
     11 C           3.0227    3.7078    4.1956 C.ar    1  LIG1       -0.0882
     12 C           2.0625    4.1522    3.2866 C.ar    1  LIG1       -0.0573
     13 C           1.2717    3.8547    0.9480 C.2     1  LIG1        0.0973
     14 C           4.2958    3.0792    3.7301 C.3     1  LIG1       -0.0396
     15 C           0.9180    1.3907   -0.7049 C.3     1  LIG1       -0.0656
     16 C           1.0567    2.7739   -1.3286 C.3     1  LIG1       -0.0374
     17 C           1.8793    3.7480   -0.4599 C.3     1  LIG1        0.0614
     18 N           2.2640    4.0216    1.9105 N.am    1  LIG1       -0.3138
     19 O           0.0597    3.7791    1.1273 O.2     1  LIG1       -0.4713
     20 H           2.3409    8.6459   -2.6754 H       1  LIG1        0.1134
     21 H           3.9452    6.8536   -3.2830 H       1  LIG1        0.1144
     22 H           0.5245    8.1855   -1.0487 H       1  LIG1        0.1135
     23 H           1.4517    4.5378    7.0943 H       1  LIG1        0.1116
     24 H          -0.2566    5.3281    5.4778 H       1  LIG1        0.1192
     25 H           3.7379    4.6069   -2.2710 H       1  LIG1        0.1203
     26 H           0.3088    5.9424   -0.0312 H       1  LIG1        0.1163
     27 H           3.5444    3.5036    6.2824 H       1  LIG1        0.1207
     28 H           0.1267    5.0861    3.0499 H       1  LIG1        0.1401
     29 H           4.1700    1.9947    3.6339 H       1  LIG1        0.0561
     30 H           4.6045    3.4835    2.7585 H       1  LIG1        0.0570
     31 H           5.1143    3.2759    4.4332 H       1  LIG1        0.0489
     32 H           0.4291    1.4672    0.2717 H       1  LIG1        0.0360
     33 H           1.8935    0.9193   -0.5523 H       1  LIG1        0.0334
     34 H           0.3107    0.7342   -1.3361 H       1  LIG1        0.0353
     35 H           1.5492    2.6605   -2.3031 H       1  LIG1        0.0506
     36 H           0.0573    3.1749   -1.5364 H       1  LIG1        0.0537
     37 H           2.8800    3.3084   -0.3400 H       1  LIG1        0.1242
     38 H           3.2260    4.0512    1.5805 H       1  LIG1        0.3212
@<TRIPOS>BOND
     1     1     2   ar
     2     1     3   ar
     3     2     6   ar
     4     3     7   ar
     5     4     5   ar
     6     4     8   ar
     7     5     9   ar
     8     6    10   ar
     9     7    10   ar
    10     8    11   ar
    11     9    12   ar
    12    10    17    1
    13    11    12   ar
    14    11    14    1
    15    12    18    1
    16    13    17    1
    17    13    18   am
    18    13    19    2
    19    15    16    1
    20    16    17    1
    21     1    20    1
    22     2    21    1
    23     3    22    1
    24     4    23    1
    25     5    24    1
    26     6    25    1
    27     7    26    1
    28     8    27    1
    29     9    28    1
    30    14    29    1
    31    14    30    1
    32    14    31    1
    33    15    32    1
    34    15    33    1
    35    15    34    1
    36    16    35    1
    37    16    36    1
    38    17    37    1
    39    18    38    1
