@<TRIPOS>MOLECULE
AK-968/15253612
 44 48 0 0 0
SMALL
USER_CHARGES

@<TRIPOS>ATOM
      1 C           0.9589    4.7445    5.8131 C.ar    1  LIG1       -0.1012
      2 C           0.4894    4.7698    4.5032 C.ar    1  LIG1       -0.1024
      3 C           1.1999    0.3858   -1.1161 C.ar    1  LIG1       -0.0998
      4 C           3.0475    7.4601   -1.6416 C.ar    1  LIG1       -0.0970
      5 C          -0.1176    0.8221   -0.9950 C.ar    1  LIG1       -0.0895
      6 C           1.6896    7.7414   -1.5084 C.ar    1  LIG1       -0.0908
      7 C           5.3762    3.4883    4.2063 C.ar    1  LIG1       -0.0898
      8 C           2.2909    4.4200    6.0717 C.ar    1  LIG1       -0.0886
      9 C           1.3503    4.4706    3.4468 C.ar    1  LIG1       -0.0866
     10 C           4.5152    3.7876    5.2626 C.ar    1  LIG1       -0.0885
     11 C           2.2416    1.3135   -1.1558 C.ar    1  LIG1       -0.0955
     12 C           3.5040    6.1476   -1.5152 C.ar    1  LIG1       -0.0874
     13 C           4.9068    3.5135    2.8963 C.ar    1  LIG1       -0.0615
     14 C          -0.3950    2.1860   -0.9184 C.ar    1  LIG1       -0.0489
     15 C           0.7868    6.7105   -1.2539 C.ar    1  LIG1       -0.0506
     16 C           3.1714    4.1163    5.0208 C.ar    1  LIG1       -0.0727
     17 C           2.6942    4.1418    3.6887 C.ar    1  LIG1       -0.0476
     18 C           1.9750    2.6885   -1.0761 C.ar    1  LIG1       -0.0352
     19 C           2.6055    5.1020   -1.2551 C.ar    1  LIG1       -0.0280
     20 C           3.5747    3.8380    2.6376 C.ar    1  LIG1       -0.0391
     21 C           0.6477    3.1157   -0.9646 C.ar    1  LIG1        0.0227
     22 C           1.2430    5.3948   -1.1334 C.ar    1  LIG1        0.0252
     23 C           3.9191    3.5686    0.1612 C.2     1  LIG1        0.1108
     24 C           3.1014    3.6889   -1.0920 C.3     1  LIG1        0.0935
     25 N           3.1544    3.8484    1.2865 N.am    1  LIG1       -0.3071
     26 O           5.1041    3.2552    0.1103 O.2     1  LIG1       -0.4641
     27 O           0.2829    4.4397   -0.8952 O.3     1  LIG1       -0.3559
     28 H           0.2881    4.9774    6.6350 H       1  LIG1        0.1179
     29 H          -0.5477    5.0226    4.3029 H       1  LIG1        0.1179
     30 H           1.4169   -0.6766   -1.1772 H       1  LIG1        0.1211
     31 H           3.7514    8.2627   -1.8413 H       1  LIG1        0.1192
     32 H          -0.9283    0.1003   -0.9621 H       1  LIG1        0.1358
     33 H           1.3344    8.7632   -1.6045 H       1  LIG1        0.1336
     34 H           6.4132    3.2358    4.4073 H       1  LIG1        0.1253
     35 H           2.6359    4.4063    7.1035 H       1  LIG1        0.1278
     36 H           0.9447    4.5017    2.4381 H       1  LIG1        0.1171
     37 H           4.9039    3.7620    6.2785 H       1  LIG1        0.1235
     38 H           3.2650    0.9574   -1.2460 H       1  LIG1        0.1242
     39 H           4.5673    5.9447   -1.6171 H       1  LIG1        0.1307
     40 H           5.5892    3.2782    2.0834 H       1  LIG1        0.1398
     41 H          -1.4257    2.5186   -0.8283 H       1  LIG1        0.1376
     42 H          -0.2715    6.9376   -1.1551 H       1  LIG1        0.1346
     43 H           3.7492    3.4557   -1.9473 H       1  LIG1        0.1486
     44 H           2.1769    4.0892    1.1359 H       1  LIG1        0.3211
@<TRIPOS>BOND
     1     1     2   ar
     2     1     8   ar
     3     2     9   ar
     4     3     5   ar
     5     3    11   ar
     6     4     6   ar
     7     4    12   ar
     8     5    14   ar
     9     6    15   ar
    10     7    10   ar
    11     7    13   ar
    12     8    16   ar
    13     9    17   ar
    14    10    16   ar
    15    11    18   ar
    16    12    19   ar
    17    13    20   ar
    18    14    21   ar
    19    15    22   ar
    20    16    17   ar
    21    17    20   ar
    22    18    21   ar
    23    18    24    1
    24    19    22   ar
    25    19    24    1
    26    20    25    1
    27    21    27    1
    28    22    27    1
    29    23    24    1
    30    23    25   am
    31    23    26    2
    32     1    28    1
    33     2    29    1
    34     3    30    1
    35     4    31    1
    36     5    32    1
    37     6    33    1
    38     7    34    1
    39     8    35    1
    40     9    36    1
    41    10    37    1
    42    11    38    1
    43    12    39    1
    44    13    40    1
    45    14    41    1
    46    15    42    1
    47    24    43    1
    48    25    44    1
