@<TRIPOS>MOLECULE
AN-975/13809008
 33 35 0 0 0
SMALL
USER_CHARGES

@<TRIPOS>ATOM
      1 C           0.0457    0.4260   -1.5746 C.ar    1  LIG1       -0.1018
      2 C           2.0944    7.8236   -1.7641 C.ar    1  LIG1       -0.1012
      3 C           1.4208    0.3490   -1.7259 C.ar    1  LIG1       -0.1022
      4 C           3.3112    7.1750   -1.9013 C.ar    1  LIG1       -0.1019
      5 C          -0.5304    1.6078   -1.1135 C.ar    1  LIG1       -0.0844
      6 C           0.9990    7.1297   -1.2547 C.ar    1  LIG1       -0.0838
      7 C           2.2115    1.4547   -1.4147 C.ar    1  LIG1       -0.0748
      8 C           3.4249    5.8365   -1.5274 C.ar    1  LIG1       -0.0752
      9 C           0.2556    2.7377   -0.8051 C.ar    1  LIG1       -0.0521
     10 C           1.0960    5.7727   -0.8823 C.ar    1  LIG1       -0.0524
     11 C           1.6534    2.6670   -0.9446 C.ar    1  LIG1       -0.0388
     12 C           2.3292    5.1080   -1.0069 C.ar    1  LIG1       -0.0393
     13 C          -0.4606    3.8909   -0.2489 C.2     1  LIG1       -0.0770
     14 C          -0.1038    5.1794   -0.2815 C.2     1  LIG1       -0.0771
     15 C           2.3316    2.7266    2.4238 C.2     1  LIG1       -0.0934
     16 C           2.9239    3.6957    1.7153 C.2     1  LIG1       -0.0245
     17 C           3.5310    3.4947    0.3615 C.3     1  LIG1        0.0198
     18 N           2.5233    3.7479   -0.6783 N.pl3   1  LIG1       -0.3555
     19 CL          3.0701    5.2868    2.3856 Cl      1  LIG1       -0.1527
     20 H          -0.5797   -0.4305   -1.8090 H       1  LIG1        0.1162
     21 H           1.9948    8.8676   -2.0462 H       1  LIG1        0.1170
     22 H           1.8805   -0.5646   -2.0881 H       1  LIG1        0.1215
     23 H           4.1701    7.7043   -2.3007 H       1  LIG1        0.1227
     24 H          -1.6125    1.6370   -0.9922 H       1  LIG1        0.1288
     25 H           0.0575    7.6668   -1.1462 H       1  LIG1        0.1299
     26 H           3.2833    1.3581   -1.5693 H       1  LIG1        0.1196
     27 H           4.3915    5.3608   -1.6729 H       1  LIG1        0.1185
     28 H          -1.4160    3.6580    0.2293 H       1  LIG1        0.1248
     29 H          -0.7977    5.8920    0.1727 H       1  LIG1        0.1245
     30 H           1.9185    2.9112    3.4101 H       1  LIG1        0.1057
     31 H           2.2441    1.7194    2.0294 H       1  LIG1        0.1032
     32 H           3.9094    2.4734    0.2440 H       1  LIG1        0.1073
     33 H           4.3842    4.1679    0.2228 H       1  LIG1        0.1288
@<TRIPOS>BOND
     1     1     3   ar
     2     1     5   ar
     3     2     4   ar
     4     2     6   ar
     5     3     7   ar
     6     4     8   ar
     7     5     9   ar
     8     6    10   ar
     9     7    11   ar
    10     8    12   ar
    11     9    11   ar
    12     9    13    1
    13    10    12   ar
    14    10    14    1
    15    11    18    1
    16    12    18    1
    17    13    14    2
    18    15    16    2
    19    16    17    1
    20    16    19    1
    21    17    18    1
    22     1    20    1
    23     2    21    1
    24     3    22    1
    25     4    23    1
    26     5    24    1
    27     6    25    1
    28     7    26    1
    29     8    27    1
    30    13    28    1
    31    14    29    1
    32    15    30    1
    33    15    31    1
    34    17    32    1
    35    17    33    1
