@<TRIPOS>MOLECULE
AG-664/15180001
 44 47 0 0 0
SMALL
USER_CHARGES

@<TRIPOS>ATOM
      1 C           2.3648    6.6235   -2.5431 C.ar    1  LIG1       -0.0977
      2 C           1.8185    7.5843   -1.6944 C.ar    1  LIG1       -0.0909
      3 C           3.1326    4.4959    4.2862 C.ar    1  LIG1       -0.0652
      4 C           0.7371    4.7351    4.0814 C.ar    1  LIG1       -0.0764
      5 C           2.6645    5.3502   -2.0566 C.ar    1  LIG1       -0.0891
      6 C           2.0669    2.0485   -2.0146 C.ar    1  LIG1       -0.0858
      7 C           0.6058    2.2738   -0.1037 C.ar    1  LIG1       -0.0816
      8 C           1.5778    7.2760   -0.3568 C.ar    1  LIG1       -0.0518
      9 C           3.0142    4.5003    5.6760 C.ar    1  LIG1       -0.0471
     10 C           0.6188    4.7394    5.4712 C.ar    1  LIG1       -0.0609
     11 C           1.1943    1.1136   -2.5716 C.ar    1  LIG1       -0.0506
     12 C          -0.2668    1.3390   -0.6608 C.ar    1  LIG1       -0.0482
     13 C           1.9941    4.6134    3.4889 C.ar    1  LIG1       -0.0237
     14 C           1.7726    2.6285   -0.7807 C.ar    1  LIG1       -0.0831
     15 C           2.4186    5.0252   -0.7142 C.ar    1  LIG1       -0.0498
     16 C           1.8845    6.0036    0.1297 C.ar    1  LIG1        0.0287
     17 C           1.7573    4.6220    6.2685 C.ar    1  LIG1       -0.0074
     18 C           0.0275    0.7588   -1.8947 C.ar    1  LIG1        0.0582
     19 C           2.1175    4.6089    2.0395 C.2     1  LIG1        0.0474
     20 C           2.6433    3.5783    1.3405 C.2     1  LIG1        0.0184
     21 C           3.1820    2.3792    2.0021 C.2     1  LIG1        0.0710
     22 C           2.7103    3.6346   -0.1815 C.3     1  LIG1        0.0112
     23 C           2.8464    4.5027    8.3793 C.3     1  LIG1        0.0266
     24 O           2.4964    1.6646    2.7168 O.2     1  LIG1       -0.4754
     25 O           1.6394    5.7759    1.4616 O.3     1  LIG1       -0.3410
     26 O           1.6418    4.6264    7.6247 O.3     1  LIG1       -0.4130
     27 F          -0.8119   -0.1369   -2.4308 F       1  LIG1       -0.2725
     28 H           2.5554    6.8649   -3.5847 H       1  LIG1        0.1213
     29 H           1.5838    8.5744   -2.0740 H       1  LIG1        0.1324
     30 H           4.1191    4.4002    3.8390 H       1  LIG1        0.1491
     31 H          -0.1595    4.8275    3.4732 H       1  LIG1        0.1416
     32 H           3.0863    4.6107   -2.7327 H       1  LIG1        0.1311
     33 H           2.9740    2.3179   -2.5491 H       1  LIG1        0.1259
     34 H           0.3681    2.7208    0.8579 H       1  LIG1        0.1370
     35 H           1.1581    8.0321    0.3013 H       1  LIG1        0.1366
     36 H           3.9047    4.4085    6.2919 H       1  LIG1        0.1369
     37 H          -0.3631    4.8347    5.9270 H       1  LIG1        0.1206
     38 H           1.4229    0.6624   -3.5325 H       1  LIG1        0.1278
     39 H          -1.1752    1.0622   -0.1339 H       1  LIG1        0.1302
     40 H           4.2453    2.1807    1.8030 H       1  LIG1        0.2339
     41 H           3.7320    3.3712   -0.4845 H       1  LIG1        0.1176
     42 H           2.6120    4.5202    9.4466 H       1  LIG1        0.0915
     43 H           3.5200    5.3262    8.1297 H       1  LIG1        0.0919
     44 H           3.3263    3.5535    8.1296 H       1  LIG1        0.1242
@<TRIPOS>BOND
     1     1     2   ar
     2     1     5   ar
     3     2     8   ar
     4     3     9   ar
     5     3    13   ar
     6     4    10   ar
     7     4    13   ar
     8     5    15   ar
     9     6    11   ar
    10     6    14   ar
    11     7    12   ar
    12     7    14   ar
    13     8    16   ar
    14     9    17   ar
    15    10    17   ar
    16    11    18   ar
    17    12    18   ar
    18    13    19    1
    19    14    22    1
    20    15    16   ar
    21    15    22    1
    22    16    25    1
    23    17    26    1
    24    18    27    1
    25    19    20    2
    26    19    25    1
    27    20    21    1
    28    20    22    1
    29    21    24    2
    30    23    26    1
    31     1    28    1
    32     2    29    1
    33     3    30    1
    34     4    31    1
    35     5    32    1
    36     6    33    1
    37     7    34    1
    38     8    35    1
    39     9    36    1
    40    10    37    1
    41    11    38    1
    42    12    39    1
    43    21    40    1
    44    22    41    1
    45    23    42    1
    46    23    43    1
    47    23    44    1
