@<TRIPOS>MOLECULE
AG-205/12125039
 46 49 0 0 0
SMALL
USER_CHARGES

@<TRIPOS>ATOM
      1 C           0.8447    0.5003   -1.7785 C.ar    1  LIG1       -0.1267
      2 C           2.6513    7.4400   -2.4841 C.ar    1  LIG1       -0.1239
      3 C           1.8949    1.3631   -2.0920 C.ar    1  LIG1       -0.1207
      4 C          -0.1287    0.8916   -0.8594 C.ar    1  LIG1       -0.1232
      5 C           1.2926    7.1268   -2.5208 C.ar    1  LIG1       -0.1177
      6 C           3.5011    6.7579   -1.6133 C.ar    1  LIG1       -0.1177
      7 C           1.9717    2.6172   -1.4863 C.ar    1  LIG1       -0.1024
      8 C          -0.0520    2.1457   -0.2536 C.ar    1  LIG1       -0.1023
      9 C           0.7834    6.1317   -1.6863 C.ar    1  LIG1       -0.1043
     10 C           2.9920    5.7628   -0.7789 C.ar    1  LIG1       -0.1007
     11 C           0.9982    3.0086   -0.5671 C.ar    1  LIG1       -0.0756
     12 C           1.6332    5.4497   -0.8155 C.ar    1  LIG1       -0.0670
     13 C           3.2998    5.6010    5.7839 C.2     1  LIG1       -0.1797
     14 C           3.1909    4.3699    6.3068 C.2     1  LIG1       -0.1590
     15 C           1.6125    5.1031    2.4064 C.2     1  LIG1        0.5404
     16 C           1.3520    2.5044    3.5587 C.2     1  LIG1        0.4647
     17 C           1.1106    4.9417    5.4972 C.3     1  LIG1       -0.1132
     18 C           2.1870    5.7564    4.7707 C.3     1  LIG1       -0.0566
     19 C           2.0055    3.7054    5.6418 C.3     1  LIG1       -0.0581
     20 C           2.5238    4.8426    3.5678 C.3     1  LIG1       -0.0876
     21 C           2.3981    3.4193    4.1721 C.3     1  LIG1       -0.1167
     22 C           1.0811    4.3694    0.0909 C.3     1  LIG1        0.2298
     23 N           1.8455    4.2883    1.3149 N.am    1  LIG1       -0.7079
     24 O           0.1761    2.9628    3.5453 O.co2   1  LIG1       -0.5000
     25 O           0.7587    5.9778    2.4927 O.2     1  LIG1       -0.5298
     26 O           1.7957    1.3986    3.1396 O.co2   1  LIG1       -0.5000
     27 H           0.7843   -0.4757   -2.2513 H       1  LIG1        0.1168
     28 H           3.0478    8.2139   -3.1349 H       1  LIG1        0.1180
     29 H           2.6524    1.0589   -2.8085 H       1  LIG1        0.1193
     30 H          -0.9471    0.2206   -0.6159 H       1  LIG1        0.1180
     31 H           0.6310    7.6571   -3.1995 H       1  LIG1        0.1196
     32 H           4.5591    7.0007   -1.5853 H       1  LIG1        0.1203
     33 H           2.7937    3.2827   -1.7365 H       1  LIG1        0.1215
     34 H          -0.8148    2.4421    0.4615 H       1  LIG1        0.1169
     35 H          -0.2766    5.8946   -1.7215 H       1  LIG1        0.1162
     36 H           3.6614    5.2367   -0.1035 H       1  LIG1        0.1216
     37 H           4.0687    6.3248    6.0015 H       1  LIG1        0.1205
     38 H           3.8558    3.9166    7.0241 H       1  LIG1        0.1203
     39 H           0.8095    5.3770    6.4594 H       1  LIG1        0.0584
     40 H           0.2107    4.7687    4.8988 H       1  LIG1        0.1081
     41 H           1.9028    6.7856    4.5465 H       1  LIG1        0.0956
     42 H           1.5576    2.8860    6.2066 H       1  LIG1        0.0959
     43 H           3.5481    5.0172    3.2147 H       1  LIG1        0.0795
     44 H           3.3598    2.8940    4.1149 H       1  LIG1        0.0731
     45 H           0.0776    4.6756    0.4139 H       1  LIG1        0.1015
     46 H           2.5893    3.5996    1.3757 H       1  LIG1        0.3966
@<TRIPOS>BOND
     1     1     3   ar
     2     1     4   ar
     3     2     5   ar
     4     2     6   ar
     5     3     7   ar
     6     4     8   ar
     7     5     9   ar
     8     6    10   ar
     9     7    11   ar
    10     8    11   ar
    11     9    12   ar
    12    10    12   ar
    13    11    22    1
    14    12    22    1
    15    13    14    2
    16    13    18    1
    17    14    19    1
    18    15    20    1
    19    15    23   am
    20    15    25    2
    21    16    21    1
    22    16    24   ar
    23    16    26   ar
    24    17    18    1
    25    17    19    1
    26    18    20    1
    27    19    21    1
    28    20    21    1
    29    22    23    1
    30     1    27    1
    31     2    28    1
    32     3    29    1
    33     4    30    1
    34     5    31    1
    35     6    32    1
    36     7    33    1
    37     8    34    1
    38     9    35    1
    39    10    36    1
    40    13    37    1
    41    14    38    1
    42    17    39    1
    43    17    40    1
    44    18    41    1
    45    19    42    1
    46    20    43    1
    47    21    44    1
    48    22    45    1
    49    23    46    1
