@<TRIPOS>MOLECULE
AH-487/15148111
 43 45 0 0 0
SMALL
USER_CHARGES

@<TRIPOS>ATOM
      1 C           0.2331    1.0892   -2.3228 C.ar    1  LIG1       -0.1073
      2 C           1.8402    7.1830   -2.5159 C.ar    1  LIG1       -0.1064
      3 C          -0.4689    1.7021   -1.2850 C.ar    1  LIG1       -0.1033
      4 C           1.6252    1.1670   -2.3647 C.ar    1  LIG1       -0.1047
      5 C           0.9150    7.0226   -1.4845 C.ar    1  LIG1       -0.1033
      6 C           3.0370    6.4667   -2.4970 C.ar    1  LIG1       -0.1018
      7 C           0.2212    2.3932   -0.2891 C.ar    1  LIG1       -0.0926
      8 C           2.3153    1.8581   -1.3687 C.ar    1  LIG1       -0.0955
      9 C           1.1867    6.1460   -0.4340 C.ar    1  LIG1       -0.0901
     10 C           3.3086    5.5901   -1.4466 C.ar    1  LIG1       -0.0889
     11 C           1.6133    2.4712   -0.3308 C.ar    1  LIG1       -0.0824
     12 C           2.3835    5.4296   -0.4151 C.ar    1  LIG1       -0.0580
     13 C           2.3413    3.1998    0.7188 C.2     1  LIG1       -0.0522
     14 C           2.6706    4.5048    0.6929 C.2     1  LIG1        0.0409
     15 C           3.3747    5.0001    1.8942 C.2     1  LIG1        0.1216
     16 C           1.5864    4.3205    5.7963 C.3     1  LIG1       -0.0628
     17 C           3.0837    4.4427    5.5098 C.3     1  LIG1       -0.0493
     18 C           0.7157    4.7172    4.6058 C.3     1  LIG1       -0.0487
     19 C           3.3727    5.3648    4.3319 C.3     1  LIG1       -0.0227
     20 C           1.3555    4.3348    3.2758 C.3     1  LIG1       -0.0215
     21 N           2.7064    4.8944    3.1133 N.am    1  LIG1       -0.3533
     22 O           4.5054    5.4667    1.7502 O.2     1  LIG1       -0.4720
     23 H          -0.3041    0.5501   -3.0975 H       1  LIG1        0.1157
     24 H           1.6282    7.8645   -3.3343 H       1  LIG1        0.1156
     25 H          -1.5528    1.6406   -1.2516 H       1  LIG1        0.1147
     26 H           2.1720    0.6888   -3.1720 H       1  LIG1        0.1150
     27 H          -0.0175    7.5793   -1.4996 H       1  LIG1        0.1173
     28 H           3.7570    6.5906   -3.3006 H       1  LIG1        0.1173
     29 H          -0.3400    2.8660    0.5135 H       1  LIG1        0.1297
     30 H           3.4004    1.9100   -1.4152 H       1  LIG1        0.1221
     31 H           0.4556    6.0316    0.3629 H       1  LIG1        0.1247
     32 H           4.2459    5.0389   -1.4460 H       1  LIG1        0.1220
     33 H           2.6203    2.5777    1.5679 H       1  LIG1        0.1426
     34 H           1.3511    3.2834    6.0987 H       1  LIG1        0.0428
     35 H           1.3298    4.9536    6.6672 H       1  LIG1        0.0441
     36 H           3.6024    4.8073    6.4068 H       1  LIG1        0.0573
     37 H           3.4867    3.4420    5.2947 H       1  LIG1        0.0496
     38 H          -0.2646    4.2229    4.6963 H       1  LIG1        0.0573
     39 H           0.5250    5.8005    4.6300 H       1  LIG1        0.0496
     40 H           3.0005    6.3768    4.5355 H       1  LIG1        0.0970
     41 H           4.4553    5.4317    4.2080 H       1  LIG1        0.1084
     42 H           1.3753    3.2396    3.1768 H       1  LIG1        0.1144
     43 H           0.7499    4.7132    2.4370 H       1  LIG1        0.0969
@<TRIPOS>BOND
     1     1     3   ar
     2     1     4   ar
     3     2     5   ar
     4     2     6   ar
     5     3     7   ar
     6     4     8   ar
     7     5     9   ar
     8     6    10   ar
     9     7    11   ar
    10     8    11   ar
    11     9    12   ar
    12    10    12   ar
    13    11    13    1
    14    12    14    1
    15    13    14    2
    16    14    15    1
    17    15    21   am
    18    15    22    2
    19    16    17    1
    20    16    18    1
    21    17    19    1
    22    18    20    1
    23    19    21    1
    24    20    21    1
    25     1    23    1
    26     2    24    1
    27     3    25    1
    28     4    26    1
    29     5    27    1
    30     6    28    1
    31     7    29    1
    32     8    30    1
    33     9    31    1
    34    10    32    1
    35    13    33    1
    36    16    34    1
    37    16    35    1
    38    17    36    1
    39    17    37    1
    40    18    38    1
    41    18    39    1
    42    19    40    1
    43    19    41    1
    44    20    42    1
    45    20    43    1
