@<TRIPOS>MOLECULE
AK-918/41701941
 36 37 0 0 0
SMALL
USER_CHARGES

@<TRIPOS>ATOM
      1 C           1.5524    4.9723    6.3497 C.ar    1  LIG1       -0.1066
      2 C           2.5913    4.0503    6.2222 C.ar    1  LIG1       -0.1039
      3 C           0.8250    5.3632    5.2254 C.ar    1  LIG1       -0.1039
      4 C           3.4647    5.8749   -1.4598 C.ar    1  LIG1       -0.0618
      5 C           1.2028    5.7217   -0.6246 C.ar    1  LIG1       -0.0638
      6 C           2.9029    3.5192    4.9706 C.ar    1  LIG1       -0.0954
      7 C           1.1366    4.8321    3.9738 C.ar    1  LIG1       -0.0954
      8 C           3.0644    6.8590   -2.3635 C.ar    1  LIG1       -0.0593
      9 C           0.8025    6.7060   -1.5283 C.ar    1  LIG1       -0.0612
     10 C           2.5339    5.3061   -0.5903 C.ar    1  LIG1        0.0339
     11 C           2.1755    3.9101    3.8465 C.ar    1  LIG1       -0.0746
     12 C           1.7333    7.2746   -2.3978 C.ar    1  LIG1       -0.0670
     13 C           2.9512    4.2801    0.3519 C.2     1  LIG1        0.1697
     14 C           2.2880    8.8667   -4.2193 C.3     1  LIG1       -0.0336
     15 C          -0.0550    8.6984   -3.3647 C.3     1  LIG1       -0.0336
     16 C           2.5103    3.3394    2.4998 C.3     1  LIG1        0.0539
     17 N           1.3286    8.2697   -3.3116 N.pl3   1  LIG1       -0.4197
     18 O           3.8766    3.4816    0.1534 O.2     1  LIG1       -0.4596
     19 O           2.1939    4.3050    1.4912 O.3     1  LIG1       -0.3398
     20 H           1.3090    5.3848    7.3246 H       1  LIG1        0.1177
     21 H           3.1571    3.7451    7.0977 H       1  LIG1        0.1168
     22 H           0.0153    6.0801    5.3244 H       1  LIG1        0.1168
     23 H           4.5045    5.5585   -1.4415 H       1  LIG1        0.1515
     24 H           0.4691    5.2854    0.0483 H       1  LIG1        0.1496
     25 H           3.7141    2.8016    4.8809 H       1  LIG1        0.1226
     26 H           0.5645    5.1425    3.1035 H       1  LIG1        0.1226
     27 H           3.7980    7.2954   -3.0366 H       1  LIG1        0.1180
     28 H          -0.2372    7.0225   -1.5467 H       1  LIG1        0.1167
     29 H           1.7961    9.6130   -4.8483 H       1  LIG1        0.0816
     30 H           2.7282    8.0996   -4.8621 H       1  LIG1        0.0951
     31 H           3.0887    9.3538   -3.6561 H       1  LIG1        0.0938
     32 H          -0.1798    9.4711   -4.1277 H       1  LIG1        0.0987
     33 H          -0.3617    9.1059   -2.3976 H       1  LIG1        0.0859
     34 H          -0.7035    7.8531   -3.6104 H       1  LIG1        0.0861
     35 H           3.5747    3.0897    2.4337 H       1  LIG1        0.1240
     36 H           1.9378    2.4244    2.3133 H       1  LIG1        0.1240
@<TRIPOS>BOND
     1     1     2   ar
     2     1     3   ar
     3     2     6   ar
     4     3     7   ar
     5     4     8   ar
     6     4    10   ar
     7     5     9   ar
     8     5    10   ar
     9     6    11   ar
    10     7    11   ar
    11     8    12   ar
    12     9    12   ar
    13    10    13    1
    14    11    16    1
    15    12    17    1
    16    13    18    2
    17    13    19    1
    18    14    17    1
    19    15    17    1
    20    16    19    1
    21     1    20    1
    22     2    21    1
    23     3    22    1
    24     4    23    1
    25     5    24    1
    26     6    25    1
    27     7    26    1
    28     8    27    1
    29     9    28    1
    30    14    29    1
    31    14    30    1
    32    14    31    1
    33    15    32    1
    34    15    33    1
    35    15    34    1
    36    16    35    1
    37    16    36    1
