@<TRIPOS>MOLECULE
AO-840/42717723
 34 35 0 0 0
SMALL
USER_CHARGES

@<TRIPOS>ATOM
      1 C           1.5516    7.4107   -2.0957 C.ar    1  LIG1       -0.1014
      2 C           0.7444    6.7466   -1.1721 C.ar    1  LIG1       -0.0986
      3 C           2.8780    7.0168   -2.2729 C.ar    1  LIG1       -0.0970
      4 C           1.2635    5.6887   -0.4258 C.ar    1  LIG1       -0.0806
      5 C           3.3971    5.9589   -1.5266 C.ar    1  LIG1       -0.0784
      6 C           3.0648    4.8480    4.9795 C.ar    1  LIG1       -0.0945
      7 C           0.8286    4.4637    4.1494 C.ar    1  LIG1       -0.0940
      8 C           2.5991    4.7294    6.2890 C.ar    1  LIG1       -0.1032
      9 C           0.3629    4.3452    5.4589 C.ar    1  LIG1       -0.1025
     10 C           2.1795    4.7152    3.9097 C.ar    1  LIG1       -0.0873
     11 C           2.5898    5.2949   -0.6030 C.ar    1  LIG1       -0.0025
     12 C           1.2482    4.4779    6.5286 C.ar    1  LIG1       -0.1186
     13 C           2.6649    4.8389    2.5441 C.2     1  LIG1       -0.0770
     14 C           3.1416    4.1702    0.1905 C.2     1  LIG1        0.0938
     15 C           2.6004    3.9116    1.5586 C.2     1  LIG1       -0.0235
     16 C           0.7515    4.3490    7.9289 C.3     1  LIG1       -0.0438
     17 C           2.0160    2.5459    1.7607 C.3     1  LIG1       -0.0303
     18 O           4.0141    3.4493   -0.2827 O.2     1  LIG1       -0.4506
     19 H           1.1474    8.2344   -2.6767 H       1  LIG1        0.1258
     20 H          -0.2882    7.0536   -1.0342 H       1  LIG1        0.1194
     21 H           3.5065    7.5338   -2.9922 H       1  LIG1        0.1204
     22 H           0.6256    5.1781    0.2911 H       1  LIG1        0.1328
     23 H           4.4321    5.6607   -1.6730 H       1  LIG1        0.1367
     24 H           4.1205    5.0443    4.8084 H       1  LIG1        0.1250
     25 H           0.1264    4.3574    3.3260 H       1  LIG1        0.1244
     26 H           3.2960    4.8338    7.1163 H       1  LIG1        0.1169
     27 H          -0.6912    4.1492    5.6368 H       1  LIG1        0.1174
     28 H           3.1238    5.8041    2.3083 H       1  LIG1        0.1345
     29 H           0.4409    5.3273    8.3158 H       1  LIG1        0.0570
     30 H          -0.1047    3.6644    7.9866 H       1  LIG1        0.0535
     31 H           1.5274    3.9433    8.5912 H       1  LIG1        0.0535
     32 H           0.9425    2.5223    1.5456 H       1  LIG1        0.0592
     33 H           2.5026    1.8226    1.0979 H       1  LIG1        0.0610
     34 H           2.1555    2.2170    2.7956 H       1  LIG1        0.0527
@<TRIPOS>BOND
     1     1     2   ar
     2     1     3   ar
     3     2     4   ar
     4     3     5   ar
     5     4    11   ar
     6     5    11   ar
     7     6     8   ar
     8     6    10   ar
     9     7     9   ar
    10     7    10   ar
    11     8    12   ar
    12     9    12   ar
    13    10    13    1
    14    11    14    1
    15    12    16    1
    16    13    15    2
    17    14    15    1
    18    14    18    2
    19    15    17    1
    20     1    19    1
    21     2    20    1
    22     3    21    1
    23     4    22    1
    24     5    23    1
    25     6    24    1
    26     7    25    1
    27     8    26    1
    28     9    27    1
    29    13    28    1
    30    16    29    1
    31    16    30    1
    32    16    31    1
    33    17    32    1
    34    17    33    1
    35    17    34    1
