@<TRIPOS>MOLECULE
AA-768/40918557
 44 47 0 0 0
SMALL
USER_CHARGES

@<TRIPOS>ATOM
      1 C           0.3133    1.2075   -2.1741 C.ar    1  LIG1       -0.0957
      2 C           1.0371    4.3295    6.0101 C.ar    1  LIG1       -0.0893
      3 C           2.2260    5.0523    5.9496 C.ar    1  LIG1       -0.0833
      4 C          -0.4316    2.2185   -1.5668 C.ar    1  LIG1       -0.0883
      5 C           1.5198    0.7948   -1.6088 C.ar    1  LIG1       -0.0883
      6 C           1.8505    6.2728   -3.0927 C.ar    1  LIG1       -0.1024
      7 C           0.5940    3.6222    4.8934 C.ar    1  LIG1       -0.0629
      8 C           0.8435    6.9884   -2.4451 C.ar    1  LIG1       -0.1041
      9 C           2.9335    5.7789   -2.3653 C.ar    1  LIG1       -0.0993
     10 C           2.9751    5.0657    4.7723 C.ar    1  LIG1       -0.0504
     11 C           0.0301    2.8168   -0.3944 C.ar    1  LIG1       -0.0614
     12 C           1.9815    1.3930   -0.4364 C.ar    1  LIG1       -0.0614
     13 C           2.0025    6.7168   -0.3427 C.ar    1  LIG1       -0.0980
     14 C           1.3487    3.6395    3.7142 C.ar    1  LIG1        0.0577
     15 C           0.9195    7.2104   -1.0701 C.ar    1  LIG1       -0.1149
     16 C           3.0094    6.0010   -0.9903 C.ar    1  LIG1       -0.0912
     17 C           2.5422    4.3595    3.6438 C.ar    1  LIG1       -0.0092
     18 C           1.2367    2.4040    0.1708 C.ar    1  LIG1       -0.0145
     19 C           0.8799    2.9158    2.5127 C.ar    1  LIG1        0.1559
     20 C           2.9229    3.7319    1.4456 C.ar    1  LIG1        0.1021
     21 C          -0.1584    7.9744   -0.3782 C.3     1  LIG1       -0.0432
     22 C           4.1774    5.4692   -0.2063 C.3     1  LIG1        0.0456
     23 N           3.3339    4.3781    2.4904 N.ar    1  LIG1       -0.3553
     24 N           1.7121    3.0204    1.3786 N.ar    1  LIG1       -0.2298
     25 O          -0.1983    2.3287    2.5675 O.2     1  LIG1       -0.4501
     26 S           4.0473    3.6954    0.0893 S.3     1  LIG1       -0.0489
     27 H          -0.0464    0.7409   -3.0866 H       1  LIG1        0.1280
     28 H           0.4541    4.3179    6.9263 H       1  LIG1        0.1234
     29 H           2.5728    5.6036    6.8189 H       1  LIG1        0.1374
     30 H          -1.3715    2.5395   -2.0061 H       1  LIG1        0.1283
     31 H           2.0991    0.0068   -2.0814 H       1  LIG1        0.1284
     32 H           1.7912    6.0998   -4.1634 H       1  LIG1        0.1191
     33 H          -0.3396    3.0701    4.9585 H       1  LIG1        0.1458
     34 H           0.0031    7.3688   -3.0200 H       1  LIG1        0.1189
     35 H           3.7138    5.2231   -2.8783 H       1  LIG1        0.1215
     36 H           3.9039    5.6304    4.7415 H       1  LIG1        0.1434
     37 H          -0.5591    3.6035    0.0700 H       1  LIG1        0.1350
     38 H           2.9234    1.0631   -0.0049 H       1  LIG1        0.1351
     39 H           2.0618    6.8887    0.7295 H       1  LIG1        0.1235
     40 H          -0.9461    7.2946   -0.0314 H       1  LIG1        0.0570
     41 H           0.2347    8.5223    0.4880 H       1  LIG1        0.0538
     42 H          -0.6106    8.7191   -1.0463 H       1  LIG1        0.0540
     43 H           5.1143    5.6718   -0.7370 H       1  LIG1        0.1140
     44 H           4.2480    5.9827    0.7590 H       1  LIG1        0.1136
@<TRIPOS>BOND
     1     1     4   ar
     2     1     5   ar
     3     2     3   ar
     4     2     7   ar
     5     3    10   ar
     6     4    11   ar
     7     5    12   ar
     8     6     8   ar
     9     6     9   ar
    10     7    14   ar
    11     8    15   ar
    12     9    16   ar
    13    10    17   ar
    14    11    18   ar
    15    12    18   ar
    16    13    15   ar
    17    13    16   ar
    18    14    17   ar
    19    14    19   ar
    20    15    21    1
    21    16    22    1
    22    17    23   ar
    23    18    24    1
    24    19    24   ar
    25    19    25    2
    26    20    23   ar
    27    20    24   ar
    28    20    26    1
    29    22    26    1
    30     1    27    1
    31     2    28    1
    32     3    29    1
    33     4    30    1
    34     5    31    1
    35     6    32    1
    36     7    33    1
    37     8    34    1
    38     9    35    1
    39    10    36    1
    40    11    37    1
    41    12    38    1
    42    13    39    1
    43    21    40    1
    44    21    41    1
    45    21    42    1
    46    22    43    1
    47    22    44    1
