@<TRIPOS>MOLECULE
AQ-344/43100145
 49 53 0 0 0
SMALL
USER_CHARGES

@<TRIPOS>ATOM
      1 C           2.2437    7.3272   -2.1620 C.ar    1  LIG1       -0.1052
      2 C           1.3679    4.6230    6.1255 C.ar    1  LIG1       -0.1069
      3 C           0.1655    0.8582   -2.3030 C.ar    1  LIG1       -0.1046
      4 C           1.3780    7.5472   -1.0907 C.ar    1  LIG1       -0.1023
      5 C           3.0081    6.1615   -2.2129 C.ar    1  LIG1       -0.1041
      6 C           2.6986    4.2735    5.8962 C.ar    1  LIG1       -0.1047
      7 C           0.5510    4.9962    5.0582 C.ar    1  LIG1       -0.1028
      8 C          -0.5020    1.7784   -1.4947 C.ar    1  LIG1       -0.0940
      9 C           1.5406    0.6733   -2.1605 C.ar    1  LIG1       -0.1031
     10 C           3.0925   -0.2083    3.5008 C.ar    1  LIG1       -0.0963
     11 C           1.2766    6.6016   -0.0704 C.ar    1  LIG1       -0.0953
     12 C           2.9067    5.2158   -1.1926 C.ar    1  LIG1       -0.0986
     13 C           3.2124    4.2974    4.5997 C.ar    1  LIG1       -0.0951
     14 C           1.0648    5.0200    3.7617 C.ar    1  LIG1       -0.0916
     15 C           0.2057    2.5138   -0.5440 C.ar    1  LIG1       -0.0671
     16 C           2.2484    1.4088   -1.2098 C.ar    1  LIG1       -0.0803
     17 C           2.7244    1.1095    3.1382 C.ar    1  LIG1       -0.0815
     18 C           4.0284   -0.6114    2.5769 C.ar    1  LIG1        0.0024
     19 C           2.0408    5.4358   -0.1212 C.ar    1  LIG1       -0.0807
     20 C           2.3956    4.6705    3.5324 C.ar    1  LIG1       -0.0688
     21 C           1.5809    2.3290   -0.4015 C.ar    1  LIG1       -0.0511
     22 C           3.4619    1.4177    2.0188 C.ar    1  LIG1        0.0458
     23 C           1.9308    4.4033    0.9922 C.3     1  LIG1        0.0338
     24 C           2.9556    4.6970    2.1179 C.3     1  LIG1        0.0601
     25 C           3.5465    2.6504    1.1401 C.3     1  LIG1        0.1023
     26 N           2.2826    3.0574    0.5406 N.pl3   1  LIG1       -0.3471
     27 O           4.2593    0.3741    1.6702 O.2     1  LIG1       -0.3682
     28 O           4.0230    3.7425    1.9460 O.3     1  LIG1       -0.3969
     29 H           2.3215    8.0630   -2.9570 H       1  LIG1        0.1160
     30 H           0.9676    4.6031    7.1350 H       1  LIG1        0.1164
     31 H          -0.3858    0.2857   -3.0435 H       1  LIG1        0.1142
     32 H           0.7819    8.4543   -1.0513 H       1  LIG1        0.1163
     33 H           3.6814    5.9893   -3.0474 H       1  LIG1        0.1155
     34 H           3.3346    3.9819    6.7270 H       1  LIG1        0.1163
     35 H          -0.4855    5.2672    5.2363 H       1  LIG1        0.1164
     36 H          -1.5726    1.9223   -1.6058 H       1  LIG1        0.1204
     37 H           2.0603   -0.0433   -2.7901 H       1  LIG1        0.1169
     38 H           2.7218   -0.7915    4.3313 H       1  LIG1        0.1132
     39 H           0.5994    6.7815    0.7606 H       1  LIG1        0.1214
     40 H           3.5060    4.3105   -1.2406 H       1  LIG1        0.1134
     41 H           4.2507    4.0237    4.4305 H       1  LIG1        0.1195
     42 H           0.4210    5.3122    2.9363 H       1  LIG1        0.1274
     43 H          -0.3237    3.2284    0.0809 H       1  LIG1        0.1339
     44 H           3.3199    1.2561   -1.1076 H       1  LIG1        0.1124
     45 H           2.0099    1.7515    3.6333 H       1  LIG1        0.1202
     46 H           4.5946   -1.5200    2.4342 H       1  LIG1        0.2181
     47 H           0.8963    4.4168    1.3769 H       1  LIG1        0.1441
     48 H           3.4268    5.7144    1.9657 H       1  LIG1        0.1386
     49 H           4.2770    2.4589    0.3426 H       1  LIG1        0.1909
@<TRIPOS>BOND
     1     1     4   ar
     2     1     5   ar
     3     2     6   ar
     4     2     7   ar
     5     3     8   ar
     6     3     9   ar
     7     4    11   ar
     8     5    12   ar
     9     6    13   ar
    10     7    14   ar
    11     8    15   ar
    12     9    16   ar
    13    10    17   ar
    14    10    18   ar
    15    11    19   ar
    16    12    19   ar
    17    13    20   ar
    18    14    20   ar
    19    15    21   ar
    20    16    21   ar
    21    17    22   ar
    22    18    27   ar
    23    19    23    1
    24    20    24    1
    25    21    26    1
    26    22    25    1
    27    22    27   ar
    28    23    24    1
    29    23    26    1
    30    24    28    1
    31    25    26    1
    32    25    28    1
    33     1    29    1
    34     2    30    1
    35     3    31    1
    36     4    32    1
    37     5    33    1
    38     6    34    1
    39     7    35    1
    40     8    36    1
    41     9    37    1
    42    10    38    1
    43    11    39    1
    44    12    40    1
    45    13    41    1
    46    14    42    1
    47    15    43    1
    48    16    44    1
    49    17    45    1
    50    18    46    1
    51    23    47    1
    52    24    48    1
    53    25    49    1
