@<TRIPOS>MOLECULE
AG-690/36595005
 38 40 0 0 0
SMALL
USER_CHARGES

@<TRIPOS>ATOM
      1 C           0.4212    0.5874   -1.3421 C.ar    1  LIG1       -0.1052
      2 C           2.2458    7.6393   -2.4921 C.ar    1  LIG1       -0.1033
      3 C           1.7883    0.8456   -1.4403 C.ar    1  LIG1       -0.1025
      4 C          -0.4266    1.5297   -0.7598 C.ar    1  LIG1       -0.0977
      5 C           1.0084    7.0562   -2.2195 C.ar    1  LIG1       -0.0985
      6 C           3.4043    7.1200   -1.9140 C.ar    1  LIG1       -0.0969
      7 C           1.7656    3.7558    5.6226 C.ar    1  LIG1       -0.1104
      8 C           2.3079    2.0460   -0.9559 C.ar    1  LIG1       -0.0835
      9 C           0.0930    2.7302   -0.2754 C.ar    1  LIG1       -0.0772
     10 C           0.9294    5.9537   -1.3686 C.ar    1  LIG1       -0.0755
     11 C           3.3251    6.0175   -1.0631 C.ar    1  LIG1       -0.0728
     12 C           2.6807    4.6225    4.9580 C.ar    1  LIG1       -0.0900
     13 C           0.5664    3.6572    4.9518 C.ar    1  LIG1       -0.0483
     14 C           1.4603    2.9884   -0.3735 C.ar    1  LIG1       -0.0249
     15 C           2.0877    5.4344   -0.7904 C.ar    1  LIG1       -0.0181
     16 C           2.1461    5.1530    3.8045 C.ar    1  LIG1        0.0081
     17 C           2.0020    4.2399    0.1316 C.2     1  LIG1        0.0317
     18 C           2.7701    6.0920    2.8323 C.2     1  LIG1        0.0036
     19 C           3.2184    7.4516    3.3332 C.3     1  LIG1        0.0154
     20 N           2.4429    4.4157    1.3615 N.2     1  LIG1       -0.3182
     21 N           2.9112    5.7001    1.6014 N.2     1  LIG1       -0.3264
     22 S           0.5471    4.6066    3.5269 S.2     1  LIG1       -0.1177
     23 H           0.0166   -0.3474   -1.7192 H       1  LIG1        0.1188
     24 H           2.3074    8.4977   -3.1546 H       1  LIG1        0.1214
     25 H           2.4482    0.1116   -1.8936 H       1  LIG1        0.1160
     26 H          -1.4912    1.3288   -0.6836 H       1  LIG1        0.1166
     27 H           0.1066    7.4608   -2.6695 H       1  LIG1        0.1194
     28 H           4.3678    7.5738   -2.1266 H       1  LIG1        0.1184
     29 H           1.9757    3.2326    6.5462 H       1  LIG1        0.1079
     30 H           3.3748    2.2370   -1.0374 H       1  LIG1        0.1263
     31 H          -0.5769    3.4571    0.1766 H       1  LIG1        0.1329
     32 H          -0.0400    5.5070   -1.1629 H       1  LIG1        0.1328
     33 H           4.2343    5.6213   -0.6182 H       1  LIG1        0.1363
     34 H           3.6800    4.8419    5.3127 H       1  LIG1        0.1433
     35 H          -0.2995    3.0735    5.2312 H       1  LIG1        0.1603
     36 H           4.2556    7.3869    3.6743 H       1  LIG1        0.0883
     37 H           2.5914    7.8127    4.1518 H       1  LIG1        0.0867
     38 H           3.1483    8.1901    2.5285 H       1  LIG1        0.0829
@<TRIPOS>BOND
     1     1     3   ar
     2     1     4   ar
     3     2     5   ar
     4     2     6   ar
     5     3     8   ar
     6     4     9   ar
     7     5    10   ar
     8     6    11   ar
     9     7    12   ar
    10     7    13   ar
    11     8    14   ar
    12     9    14   ar
    13    10    15   ar
    14    11    15   ar
    15    12    16   ar
    16    13    22   ar
    17    14    17    1
    18    15    17    1
    19    16    18    1
    20    16    22   ar
    21    17    20    2
    22    18    19    1
    23    18    21    2
    24    20    21    1
    25     1    23    1
    26     2    24    1
    27     3    25    1
    28     4    26    1
    29     5    27    1
    30     6    28    1
    31     7    29    1
    32     8    30    1
    33     9    31    1
    34    10    32    1
    35    11    33    1
    36    12    34    1
    37    13    35    1
    38    19    36    1
    39    19    37    1
    40    19    38    1
