@<TRIPOS>MOLECULE
AE-641/00334020
 28 30 0 0 0
SMALL
USER_CHARGES

@<TRIPOS>ATOM
      1 C           1.9457    7.5893   -2.2803 C.ar    1  LIG1       -0.1052
      2 C           3.0713    6.8041   -2.5087 C.ar    1  LIG1       -0.0982
      3 C           1.0012    7.1930   -1.3353 C.ar    1  LIG1       -0.1016
      4 C           3.2575    5.6236   -1.7888 C.ar    1  LIG1       -0.0803
      5 C          -0.4877    1.7826   -1.2764 C.ar    1  LIG1       -0.0718
      6 C           0.1740    0.6659   -1.7833 C.ar    1  LIG1       -0.0718
      7 C           2.2714    1.6745   -1.1884 C.ar    1  LIG1       -0.0673
      8 C           1.1792    6.0104   -0.6019 C.ar    1  LIG1       -0.0832
      9 C           2.3247    5.2206   -0.8198 C.ar    1  LIG1       -0.0573
     10 C           1.6259    2.8136   -0.6549 C.ar    1  LIG1       -0.0499
     11 C           0.2128    2.8729   -0.7123 C.ar    1  LIG1       -0.0441
     12 C           1.5566    0.6139   -1.7431 C.ar    1  LIG1       -0.0339
     13 C           0.1418    5.5744    0.3935 C.3     1  LIG1        0.0149
     14 C           2.4772    3.9220   -0.0545 C.3     1  LIG1        0.0247
     15 O           3.8656    3.5887    0.0499 O.3     1  LIG1       -0.4713
     16 S          -0.8938    4.1957   -0.1797 S.3     1  LIG1       -0.1852
     17 BR          2.4704   -0.8870   -2.4393 Br      1  LIG1       -0.0999
     18 H           1.8056    8.5130   -2.8347 H       1  LIG1        0.1199
     19 H           3.8067    7.1108   -3.2477 H       1  LIG1        0.1227
     20 H           0.1283    7.8180   -1.1706 H       1  LIG1        0.1136
     21 H           4.1376    5.0215   -1.9943 H       1  LIG1        0.1334
     22 H          -1.5750    1.7867   -1.3324 H       1  LIG1        0.1420
     23 H          -0.4077   -0.1493   -2.2054 H       1  LIG1        0.1446
     24 H           3.3575    1.6171   -1.1707 H       1  LIG1        0.1369
     25 H           0.6417    5.2318    1.3174 H       1  LIG1        0.1005
     26 H          -0.4860    6.4136    0.7361 H       1  LIG1        0.1215
     27 H           2.1435    4.1157    0.9432 H       1  LIG1        0.1209
     28 H           4.2864    4.3219    0.5227 H       1  LIG1        0.3253
@<TRIPOS>BOND
     1     1     2   ar
     2     1     3   ar
     3     2     4   ar
     4     3     8   ar
     5     4     9   ar
     6     5     6   ar
     7     5    11   ar
     8     6    12   ar
     9     7    10   ar
    10     7    12   ar
    11     8     9   ar
    12     8    13    1
    13     9    14    1
    14    10    11   ar
    15    10    14    1
    16    11    16    1
    17    12    17    1
    18    13    16    1
    19    14    15    1
    20     1    18    1
    21     2    19    1
    22     3    20    1
    23     4    21    1
    24     5    22    1
    25     6    23    1
    26     7    24    1
    27    13    25    1
    28    13    26    1
    29    14    27    1
    30    15    28    1
