@<TRIPOS>MOLECULE
AO-080/42479949
 40 43 0 0 0
SMALL
USER_CHARGES

@<TRIPOS>ATOM
      1 C           0.3584    1.1525   -2.4017 C.ar    1  LIG1       -0.0956
      2 C           0.9274    4.1797    5.8301 C.ar    1  LIG1       -0.0889
      3 C           2.1114    4.9123    5.7974 C.ar    1  LIG1       -0.0830
      4 C          -0.4040    2.1502   -1.7943 C.ar    1  LIG1       -0.0884
      5 C           1.5590    0.7421   -1.8223 C.ar    1  LIG1       -0.0881
      6 C           0.9069    7.1317   -1.2620 C.ar    1  LIG1       -0.0688
      7 C           0.5077    3.4827    4.6980 C.ar    1  LIG1       -0.0626
      8 C           1.9665    6.6518   -0.5005 C.ar    1  LIG1       -0.0858
      9 C           2.8789    4.9459    4.6325 C.ar    1  LIG1       -0.0503
     10 C           0.0343    2.7376   -0.6075 C.ar    1  LIG1       -0.0617
     11 C           1.9973    1.3295   -0.6355 C.ar    1  LIG1       -0.0614
     12 C           0.9251    6.8871   -2.6257 C.ar    1  LIG1       -0.0421
     13 C           2.9222    5.7597   -2.4872 C.ar    1  LIG1       -0.0362
     14 C           1.2808    3.5202    3.5313 C.ar    1  LIG1        0.0580
     15 C           2.9975    5.9517   -1.1171 C.ar    1  LIG1       -0.0589
     16 C           2.4696    4.2502    3.4888 C.ar    1  LIG1       -0.0090
     17 C           1.2349    2.3273   -0.0281 C.ar    1  LIG1       -0.0147
     18 C           0.8370    2.8077    2.3138 C.ar    1  LIG1        0.1564
     19 C           2.8901    3.6525    1.2895 C.ar    1  LIG1        0.1024
     20 C           4.1571    5.4194   -0.3210 C.3     1  LIG1        0.0491
     21 N           1.9090    6.2109   -3.2602 N.ar    1  LIG1       -0.4009
     22 N           3.2794    4.2890    2.3485 N.ar    1  LIG1       -0.3549
     23 N           1.6862    2.9325    1.1946 N.ar    1  LIG1       -0.2296
     24 O          -0.2373    2.2116    2.3443 O.2     1  LIG1       -0.4494
     25 S           4.0362    3.6412   -0.0490 S.3     1  LIG1       -0.0493
     26 H           0.0170    0.6943   -3.3254 H       1  LIG1        0.1282
     27 H           0.3300    4.1525    6.7367 H       1  LIG1        0.1238
     28 H           2.4400    5.4556    6.6788 H       1  LIG1        0.1377
     29 H          -1.3393    2.4693   -2.2446 H       1  LIG1        0.1284
     30 H           2.1519   -0.0355   -2.2950 H       1  LIG1        0.1287
     31 H           0.0922    7.6798   -0.8027 H       1  LIG1        0.1271
     32 H          -0.4224    2.9227    4.7415 H       1  LIG1        0.1461
     33 H           1.9804    6.8276    0.5718 H       1  LIG1        0.1410
     34 H           3.8037    5.5181    4.6234 H       1  LIG1        0.1438
     35 H          -0.5684    3.5141   -0.1430 H       1  LIG1        0.1349
     36 H           2.9348    1.0016   -0.1930 H       1  LIG1        0.1355
     37 H           0.1219    7.2409   -3.2636 H       1  LIG1        0.2015
     38 H           3.6972    5.2208   -3.0233 H       1  LIG1        0.2053
     39 H           5.1006    5.6356   -0.8342 H       1  LIG1        0.1164
     40 H           4.2083    5.9215    0.6515 H       1  LIG1        0.1152
@<TRIPOS>BOND
     1     1     4   ar
     2     1     5   ar
     3     2     3   ar
     4     2     7   ar
     5     3     9   ar
     6     4    10   ar
     7     5    11   ar
     8     6     8   ar
     9     6    12   ar
    10     7    14   ar
    11     8    15   ar
    12     9    16   ar
    13    10    17   ar
    14    11    17   ar
    15    12    21   ar
    16    13    15   ar
    17    13    21   ar
    18    14    16   ar
    19    14    18   ar
    20    15    20    1
    21    16    22   ar
    22    17    23    1
    23    18    23   ar
    24    18    24    2
    25    19    22   ar
    26    19    23   ar
    27    19    25    1
    28    20    25    1
    29     1    26    1
    30     2    27    1
    31     3    28    1
    32     4    29    1
    33     5    30    1
    34     6    31    1
    35     7    32    1
    36     8    33    1
    37     9    34    1
    38    10    35    1
    39    11    36    1
    40    12    37    1
    41    13    38    1
    42    20    39    1
    43    20    40    1
