@<TRIPOS>MOLECULE
AO-080/43342494
 48 51 0 0 0
SMALL
USER_CHARGES

@<TRIPOS>ATOM
      1 C           0.3742    0.6082   -1.9675 C.ar    1  LIG1       -0.1059
      2 C           2.1878    7.5533   -2.4921 C.ar    1  LIG1       -0.1079
      3 C           1.7051    0.9574   -2.1962 C.ar    1  LIG1       -0.1043
      4 C          -0.4071    1.3696   -1.0983 C.ar    1  LIG1       -0.1042
      5 C           3.1765    6.5771   -2.6141 C.ar    1  LIG1       -0.1023
      6 C           1.1623    7.3947   -1.5598 C.ar    1  LIG1       -0.1064
      7 C           2.9518    4.2672    6.0748 C.ar    1  LIG1       -0.0666
      8 C           0.6333    4.7903    5.6418 C.ar    1  LIG1       -0.0689
      9 C           2.2547    2.0679   -1.5558 C.ar    1  LIG1       -0.0988
     10 C           0.1425    2.4802   -0.4578 C.ar    1  LIG1       -0.0980
     11 C           3.1398    5.4421   -1.8041 C.ar    1  LIG1       -0.0920
     12 C           1.1256    6.2597   -0.7499 C.ar    1  LIG1       -0.0973
     13 C           3.1731    4.1146    4.7061 C.ar    1  LIG1       -0.0555
     14 C           0.8545    4.6378    4.2731 C.ar    1  LIG1       -0.0602
     15 C           2.2176    4.6619    9.0939 C.ar    1  LIG1       -0.0217
     16 C           1.6819    4.6050    6.5427 C.ar    1  LIG1       -0.0376
     17 C           1.4735    2.8293   -0.6865 C.ar    1  LIG1       -0.0743
     18 C           2.1143    5.2834   -0.8719 C.ar    1  LIG1       -0.0685
     19 C           2.1245    4.2999    3.8052 C.ar    1  LIG1       -0.0476
     20 C           1.4529    4.7625    7.9582 C.ar    1  LIG1        0.0413
     21 C           0.2665    5.1724    9.6904 C.ar    1  LIG1        0.0520
     22 C           1.4265    4.3016    1.3830 C.2     1  LIG1        0.1113
     23 C          -0.9778    5.5234   10.3916 C.3     1  LIG1        0.0311
     24 C           2.0735    4.0428    0.0138 C.3     1  LIG1        0.0877
     25 N           1.4520    4.9260   10.2006 N.ar    1  LIG1       -0.3890
     26 N           2.3456    4.1472    2.4361 N.am    1  LIG1       -0.3082
     27 O           0.2425    4.6069    1.4955 O.2     1  LIG1       -0.4657
     28 O           0.1859    5.0931    8.3339 O.2     1  LIG1       -0.3434
     29 H          -0.0540   -0.2558   -2.4673 H       1  LIG1        0.1171
     30 H           2.2173    8.4377   -3.1219 H       1  LIG1        0.1147
     31 H           2.3133    0.3653   -2.8739 H       1  LIG1        0.1175
     32 H          -1.4437    1.0986   -0.9208 H       1  LIG1        0.1183
     33 H           3.9757    6.7010   -3.3391 H       1  LIG1        0.1149
     34 H           0.3929    8.1551   -1.4638 H       1  LIG1        0.1145
     35 H           3.7793    4.1193    6.7649 H       1  LIG1        0.1367
     36 H          -0.3623    5.0539    5.9911 H       1  LIG1        0.1395
     37 H           3.2927    2.3324   -1.7400 H       1  LIG1        0.1169
     38 H          -0.4737    3.0673    0.2179 H       1  LIG1        0.1211
     39 H           3.9144    4.6866   -1.9063 H       1  LIG1        0.1233
     40 H           0.3228    6.1445   -0.0264 H       1  LIG1        0.1181
     41 H           4.1665    3.8506    4.3526 H       1  LIG1        0.1409
     42 H           0.0291    4.7844    3.5808 H       1  LIG1        0.1324
     43 H           3.2661    4.4154    9.1761 H       1  LIG1        0.1962
     44 H          -1.0791    6.6166   10.5092 H       1  LIG1        0.1024
     45 H          -1.8759    5.1638    9.8569 H       1  LIG1        0.1082
     46 H          -1.0304    5.0759   11.4011 H       1  LIG1        0.0986
     47 H           3.1233    3.7948    0.2363 H       1  LIG1        0.1444
     48 H           3.3017    3.8983    2.1580 H       1  LIG1        0.3249
@<TRIPOS>BOND
     1     1     3   ar
     2     1     4   ar
     3     2     5   ar
     4     2     6   ar
     5     3     9   ar
     6     4    10   ar
     7     5    11   ar
     8     6    12   ar
     9     7    13   ar
    10     7    16   ar
    11     8    14   ar
    12     8    16   ar
    13     9    17   ar
    14    10    17   ar
    15    11    18   ar
    16    12    18   ar
    17    13    19   ar
    18    14    19   ar
    19    15    20   ar
    20    15    25   ar
    21    16    20    1
    22    17    24    1
    23    18    24    1
    24    19    26    1
    25    20    28   ar
    26    21    23    1
    27    21    25   ar
    28    21    28   ar
    29    22    24    1
    30    22    26   am
    31    22    27    2
    32     1    29    1
    33     2    30    1
    34     3    31    1
    35     4    32    1
    36     5    33    1
    37     6    34    1
    38     7    35    1
    39     8    36    1
    40     9    37    1
    41    10    38    1
    42    11    39    1
    43    12    40    1
    44    13    41    1
    45    14    42    1
    46    15    43    1
    47    23    44    1
    48    23    45    1
    49    23    46    1
    50    24    47    1
    51    26    48    1
