@<TRIPOS>MOLECULE
AN-329/15538317
 42 44 0 0 0
SMALL
USER_CHARGES

@<TRIPOS>ATOM
      1 C           0.3474    0.5965   -2.0379 C.ar    1  LIG1       -0.1058
      2 C           2.1769    7.5754   -2.4585 C.ar    1  LIG1       -0.1075
      3 C           1.6767    0.9488   -2.2709 C.ar    1  LIG1       -0.1046
      4 C          -0.4293    1.3481   -1.1560 C.ar    1  LIG1       -0.1037
      5 C           3.1446    6.5852   -2.6279 C.ar    1  LIG1       -0.1024
      6 C           1.1665    7.4083   -1.5114 C.ar    1  LIG1       -0.1059
      7 C           2.2295    2.0529   -1.6220 C.ar    1  LIG1       -0.0993
      8 C           0.1236    2.4522   -0.5072 C.ar    1  LIG1       -0.0973
      9 C           3.1019    5.4279   -1.8503 C.ar    1  LIG1       -0.0924
     10 C           1.1238    6.2511   -0.7338 C.ar    1  LIG1       -0.0968
     11 C           2.9609    4.3114    6.0309 C.ar    1  LIG1       -0.0864
     12 C           3.1791    4.1420    4.6636 C.ar    1  LIG1       -0.0659
     13 C           0.8520    4.6273    4.2322 C.ar    1  LIG1       -0.0116
     14 C           1.4530    2.8046   -0.7401 C.ar    1  LIG1       -0.0740
     15 C           2.0914    5.2609   -0.9032 C.ar    1  LIG1       -0.0683
     16 C           1.6882    4.6387    6.4988 C.ar    1  LIG1       -0.0629
     17 C           2.1247    4.3000    3.7643 C.ar    1  LIG1       -0.0444
     18 C           0.6339    4.7966    5.5994 C.ar    1  LIG1        0.0717
     19 C           1.4175    4.2549    1.3452 C.2     1  LIG1        0.1115
     20 C           1.4597    4.8208    7.9615 C.3     1  LIG1       -0.0375
     21 C           2.0436    3.9851   -0.0457 C.3     1  LIG1        0.0881
     22 N           2.3456    4.1263    2.3773 N.am    1  LIG1       -0.3079
     23 O           0.2282    4.5385    1.4584 O.2     1  LIG1       -0.4659
     24 F          -0.5925    5.1111    6.0394 F       1  LIG1       -0.2639
     25 H          -0.0833   -0.2624   -2.5443 H       1  LIG1        0.1171
     26 H           2.2111    8.4770   -3.0631 H       1  LIG1        0.1150
     27 H           2.2811    0.3644   -2.9583 H       1  LIG1        0.1175
     28 H          -1.4645    1.0747   -0.9753 H       1  LIG1        0.1185
     29 H           3.9320    6.7154   -3.3644 H       1  LIG1        0.1152
     30 H           0.4136    8.1796   -1.3784 H       1  LIG1        0.1150
     31 H           3.2662    2.3200   -1.8095 H       1  LIG1        0.1152
     32 H          -0.4890    3.0319    0.1783 H       1  LIG1        0.1218
     33 H           3.8599    4.6616   -1.9893 H       1  LIG1        0.1213
     34 H           0.3328    6.1296    0.0015 H       1  LIG1        0.1181
     35 H           3.7891    4.1881    6.7239 H       1  LIG1        0.1366
     36 H           4.1750    3.8872    4.3099 H       1  LIG1        0.1284
     37 H           0.0225    4.7524    3.5408 H       1  LIG1        0.1509
     38 H           1.6252    5.8669    8.2464 H       1  LIG1        0.0583
     39 H           0.4360    4.5414    8.2424 H       1  LIG1        0.0550
     40 H           2.1350    4.1881    8.5518 H       1  LIG1        0.0571
     41 H           3.1078    3.7613    0.1832 H       1  LIG1        0.1454
     42 H           3.3007    3.8873    2.1188 H       1  LIG1        0.3262
@<TRIPOS>BOND
     1     1     3   ar
     2     1     4   ar
     3     2     5   ar
     4     2     6   ar
     5     3     7   ar
     6     4     8   ar
     7     5     9   ar
     8     6    10   ar
     9     7    14   ar
    10     8    14   ar
    11     9    15   ar
    12    10    15   ar
    13    11    12   ar
    14    11    16   ar
    15    12    17   ar
    16    13    17   ar
    17    13    18   ar
    18    14    21    1
    19    15    21    1
    20    16    18   ar
    21    16    20    1
    22    17    22    1
    23    18    24    1
    24    19    21    1
    25    19    22   am
    26    19    23    2
    27     1    25    1
    28     2    26    1
    29     3    27    1
    30     4    28    1
    31     5    29    1
    32     6    30    1
    33     7    31    1
    34     8    32    1
    35     9    33    1
    36    10    34    1
    37    11    35    1
    38    12    36    1
    39    13    37    1
    40    20    38    1
    41    20    39    1
    42    20    40    1
    43    21    41    1
    44    22    42    1
