@<TRIPOS>MOLECULE
AK-968/12686241
 39 40 0 0 0
SMALL
USER_CHARGES

@<TRIPOS>ATOM
      1 C           0.4092    0.7563   -1.9243 C.ar    1  LIG1       -0.1039
      2 C           2.6957    7.1781   -2.9801 C.ar    1  LIG1       -0.1049
      3 C           1.7832    0.8396   -1.6987 C.ar    1  LIG1       -0.1001
      4 C          -0.4593    1.6293   -1.2690 C.ar    1  LIG1       -0.1040
      5 C           3.5356    6.8798   -1.9072 C.ar    1  LIG1       -0.1071
      6 C           1.3340    6.8858   -2.9021 C.ar    1  LIG1       -0.1002
      7 C           2.2886    1.7957   -0.8178 C.ar    1  LIG1       -0.0943
      8 C           0.0462    2.5853   -0.3880 C.ar    1  LIG1       -0.1002
      9 C           3.0139    6.2891   -0.7563 C.ar    1  LIG1       -0.0981
     10 C           0.8123    6.2951   -1.7512 C.ar    1  LIG1       -0.0901
     11 C           1.4202    2.6686   -0.1624 C.ar    1  LIG1       -0.0715
     12 C           1.6522    5.9967   -0.6783 C.ar    1  LIG1       -0.0607
     13 C           2.0590    3.1866    2.2249 C.2     1  LIG1        0.1009
     14 C           1.0558    4.2402    5.1305 C.3     1  LIG1       -0.0653
     15 C           2.5613    4.4037    5.2849 C.3     1  LIG1       -0.0535
     16 C           3.3511    3.5152    4.3314 C.3     1  LIG1       -0.0362
     17 C           1.9681    3.7064    0.7940 C.3     1  LIG1        0.1124
     18 N           3.0704    3.8097    2.9445 N.am    1  LIG1       -0.3515
     19 O           1.3038    2.3299    2.6809 O.2     1  LIG1       -0.4740
     20 S           0.9925    5.2488    0.7776 S.3     1  LIG1       -0.1449
     21 H           0.0160    0.0127   -2.6112 H       1  LIG1        0.1195
     22 H           3.1025    7.6379   -3.8760 H       1  LIG1        0.1155
     23 H           2.4597    0.1607   -2.2097 H       1  LIG1        0.1204
     24 H          -1.5290    1.5655   -1.4452 H       1  LIG1        0.1187
     25 H           4.5960    7.1070   -1.9678 H       1  LIG1        0.1185
     26 H           0.6806    7.1184   -3.7379 H       1  LIG1        0.1235
     27 H           3.3606    1.8531   -0.6480 H       1  LIG1        0.1304
     28 H          -0.6381    3.2612    0.1182 H       1  LIG1        0.1196
     29 H           3.6843    6.0638    0.0695 H       1  LIG1        0.1175
     30 H          -0.2516    6.0745   -1.7091 H       1  LIG1        0.1250
     31 H           0.7373    4.4841    4.1121 H       1  LIG1        0.0339
     32 H           0.7664    3.2047    5.3366 H       1  LIG1        0.0360
     33 H           0.5108    4.8855    5.8263 H       1  LIG1        0.0341
     34 H           2.8372    4.1506    6.3151 H       1  LIG1        0.0506
     35 H           2.8273    5.4556    5.1268 H       1  LIG1        0.0504
     36 H           4.4246    3.6680    4.4799 H       1  LIG1        0.0949
     37 H           3.1309    2.4564    4.5004 H       1  LIG1        0.0957
     38 H           2.9748    4.0001    0.4726 H       1  LIG1        0.1446
     39 H           3.6401    4.5061    2.4735 H       1  LIG1        0.2984
@<TRIPOS>BOND
     1     1     3   ar
     2     1     4   ar
     3     2     5   ar
     4     2     6   ar
     5     3     7   ar
     6     4     8   ar
     7     5     9   ar
     8     6    10   ar
     9     7    11   ar
    10     8    11   ar
    11     9    12   ar
    12    10    12   ar
    13    11    17    1
    14    12    20    1
    15    13    17    1
    16    13    18   am
    17    13    19    2
    18    14    15    1
    19    15    16    1
    20    16    18    1
    21    17    20    1
    22     1    21    1
    23     2    22    1
    24     3    23    1
    25     4    24    1
    26     5    25    1
    27     6    26    1
    28     7    27    1
    29     8    28    1
    30     9    29    1
    31    10    30    1
    32    14    31    1
    33    14    32    1
    34    14    33    1
    35    15    34    1
    36    15    35    1
    37    16    36    1
    38    16    37    1
    39    17    38    1
    40    18    39    1
