@<TRIPOS>MOLECULE
AE-641/30156010
 48 52 0 0 0
SMALL
USER_CHARGES

@<TRIPOS>ATOM
      1 C           0.2717    0.6572   -2.1040 C.ar    1  LIG1       -0.1016
      2 C          -0.4890    1.3888   -1.1974 C.ar    1  LIG1       -0.0986
      3 C           1.6011    1.0047   -2.3364 C.ar    1  LIG1       -0.0999
      4 C           0.0796    2.4661   -0.5174 C.ar    1  LIG1       -0.0888
      5 C           2.7859    6.4589   -2.9207 C.ar    1  LIG1       -0.0731
      6 C           2.0664    7.5804   -2.5130 C.ar    1  LIG1       -0.0624
      7 C           1.3545    6.3778   -0.5593 C.ar    1  LIG1       -0.0575
      8 C           2.1856    2.0831   -1.6557 C.ar    1  LIG1       -0.0891
      9 C           1.4231    2.8168   -0.7262 C.ar    1  LIG1       -0.0629
     10 C           2.0858    5.2300   -0.9418 C.ar    1  LIG1       -0.0467
     11 C           2.8084    5.2690   -2.1584 C.ar    1  LIG1       -0.0485
     12 C           1.3457    7.5381   -1.3319 C.ar    1  LIG1       -0.0052
     13 C           3.6104    2.4703   -1.9338 C.3     1  LIG1        0.0139
     14 C           2.5736    5.4482    3.5901 C.3     1  LIG1       -0.0622
     15 C           3.6472    3.2503    4.0587 C.3     1  LIG1       -0.0625
     16 C           1.4328    5.1225    4.5549 C.3     1  LIG1       -0.0983
     17 C           2.5436    2.9521    5.0760 C.3     1  LIG1       -0.0984
     18 C           0.8507    3.0784    3.2475 C.3     1  LIG1       -0.0702
     19 C           2.0551    4.0082   -0.0361 C.3     1  LIG1        0.0540
     20 C           3.1113    4.1586    2.9405 C.3     1  LIG1       -0.0383
     21 C           1.9514    3.4225    2.2392 C.3     1  LIG1       -0.0039
     22 N           1.2657    3.6182    4.6045 N.4     1  LIG1        0.4077
     23 O           1.4015    4.2371    1.2168 O.3     1  LIG1       -0.4366
     24 S           3.7808    3.9689   -2.9472 S.3     1  LIG1       -0.1895
     25 CL          0.4415    8.9108   -0.8215 Cl      1  LIG1       -0.1288
     26 H          -0.1686   -0.1875   -2.6264 H       1  LIG1        0.1250
     27 H          -1.5268    1.1208   -1.0180 H       1  LIG1        0.1264
     28 H           2.1798    0.4222   -3.0476 H       1  LIG1        0.1170
     29 H          -0.5382    3.0300    0.1750 H       1  LIG1        0.1296
     30 H           3.3339    6.5314   -3.8587 H       1  LIG1        0.1433
     31 H           2.0786    8.4744   -3.1308 H       1  LIG1        0.1469
     32 H           0.7770    6.3643    0.3625 H       1  LIG1        0.1413
     33 H           4.1278    2.6743   -0.9790 H       1  LIG1        0.1031
     34 H           4.1908    1.6403   -2.3696 H       1  LIG1        0.1230
     35 H           2.2237    6.1534    2.8271 H       1  LIG1        0.0751
     36 H           3.3783    5.9607    4.1313 H       1  LIG1        0.0698
     37 H           4.4957    3.7263    4.5646 H       1  LIG1        0.0701
     38 H           4.0262    2.3114    3.6375 H       1  LIG1        0.0745
     39 H           1.6423    5.4651    5.5735 H       1  LIG1        0.0887
     40 H           0.4788    5.5476    4.2263 H       1  LIG1        0.0893
     41 H           2.3427    1.8796    5.1659 H       1  LIG1        0.0906
     42 H           2.7758    3.3539    6.0679 H       1  LIG1        0.0885
     43 H          -0.1221    3.5175    3.0024 H       1  LIG1        0.0974
     44 H           0.7340    1.9960    3.3660 H       1  LIG1        0.0940
     45 H           3.0591    3.7256    0.2010 H       1  LIG1        0.1639
     46 H           3.9016    4.4098    2.2247 H       1  LIG1        0.0948
     47 H           2.3100    2.5037    1.7610 H       1  LIG1        0.1276
     48 H           0.5205    3.3986    5.2791 H       1  LIG1        0.1678
@<TRIPOS>BOND
     1     1     2   ar
     2     1     3   ar
     3     2     4   ar
     4     3     8   ar
     5     4     9   ar
     6     5     6   ar
     7     5    11   ar
     8     6    12   ar
     9     7    10   ar
    10     7    12   ar
    11     8     9   ar
    12     8    13    1
    13     9    19    1
    14    10    11   ar
    15    10    19    1
    16    11    24    1
    17    12    25    1
    18    13    24    1
    19    14    16    1
    20    14    20    1
    21    15    17    1
    22    15    20    1
    23    16    22    1
    24    17    22    1
    25    18    21    1
    26    18    22    1
    27    19    23    1
    28    20    21    1
    29    21    23    1
    30     1    26    1
    31     2    27    1
    32     3    28    1
    33     4    29    1
    34     5    30    1
    35     6    31    1
    36     7    32    1
    37    13    33    1
    38    13    34    1
    39    14    35    1
    40    14    36    1
    41    15    37    1
    42    15    38    1
    43    16    39    1
    44    16    40    1
    45    17    41    1
    46    17    42    1
    47    18    43    1
    48    18    44    1
    49    19    45    1
    50    20    46    1
    51    21    47    1
    52    22    48    1
