@<TRIPOS>MOLECULE
AN-329/40887443
 44 47 0 0 0
SMALL
USER_CHARGES

@<TRIPOS>ATOM
      1 C           0.3895    0.6669   -1.6632 C.ar    1  LIG1       -0.1060
      2 C           2.1650    7.5241   -2.6572 C.ar    1  LIG1       -0.1051
      3 C           5.0826    2.5736    4.6489 C.ar    1  LIG1       -0.0944
      4 C           5.1441    2.9820    5.9779 C.ar    1  LIG1       -0.0941
      5 C           1.7180    1.0057   -1.9202 C.ar    1  LIG1       -0.1044
      6 C          -0.3886    1.4752   -0.8344 C.ar    1  LIG1       -0.1013
      7 C           1.0611    6.6723   -2.6195 C.ar    1  LIG1       -0.1042
      8 C           3.2446    7.3050   -1.8016 C.ar    1  LIG1       -0.1022
      9 C           3.9582    2.8710    3.8782 C.ar    1  LIG1       -0.0782
     10 C           4.0817    3.6892    6.5413 C.ar    1  LIG1       -0.0801
     11 C           2.2683    2.1528   -1.3482 C.ar    1  LIG1       -0.0960
     12 C           0.1617    2.6222   -0.2625 C.ar    1  LIG1       -0.0921
     13 C           1.0368    5.6014   -1.7261 C.ar    1  LIG1       -0.0981
     14 C           3.2204    6.2342   -0.9082 C.ar    1  LIG1       -0.0945
     15 C           0.6777    4.5970    4.2312 C.ar    1  LIG1       -0.0383
     16 C           0.7392    5.0054    5.5603 C.ar    1  LIG1       -0.0621
     17 C           2.8796    3.5820    4.4288 C.ar    1  LIG1       -0.0245
     18 C           2.9422    3.9971    5.7804 C.ar    1  LIG1       -0.0496
     19 C           1.4902    2.9609   -0.5193 C.ar    1  LIG1       -0.0660
     20 C           2.1165    5.3823   -0.8704 C.ar    1  LIG1       -0.0694
     21 C           1.7402    3.8899    3.6678 C.ar    1  LIG1        0.0467
     22 C           1.8635    4.7080    6.3310 C.ar    1  LIG1       -0.0199
     23 C           1.4790    4.5783    1.4560 C.2     1  LIG1        0.1947
     24 C           2.0905    4.2132    0.1056 C.3     1  LIG1        0.1043
     25 O           0.9689    5.6564    1.7347 O.2     1  LIG1       -0.4327
     26 O           1.6346    3.5092    2.3603 O.3     1  LIG1       -0.2928
     27 BR          1.8114    5.3269    8.1360 Br      1  LIG1       -0.0955
     28 H          -0.0392   -0.2255   -2.1097 H       1  LIG1        0.1172
     29 H           2.1842    8.3572   -3.3539 H       1  LIG1        0.1181
     30 H           5.9101    2.0231    4.2113 H       1  LIG1        0.1260
     31 H           6.0202    2.7493    6.5766 H       1  LIG1        0.1276
     32 H           2.3237    0.3771   -2.5664 H       1  LIG1        0.1168
     33 H          -1.4232    1.2122   -0.6350 H       1  LIG1        0.1168
     34 H           0.2209    6.8421   -3.2863 H       1  LIG1        0.1182
     35 H           4.1047    7.9675   -1.8315 H       1  LIG1        0.1197
     36 H           3.9419    2.5371    2.8431 H       1  LIG1        0.1252
     37 H           4.1855    3.9817    7.5821 H       1  LIG1        0.1349
     38 H           3.3044    2.4088   -1.5538 H       1  LIG1        0.1212
     39 H          -0.4520    3.2459    0.3822 H       1  LIG1        0.1234
     40 H           0.1725    4.9430   -1.7035 H       1  LIG1        0.1155
     41 H           4.0660    6.0713   -0.2452 H       1  LIG1        0.1240
     42 H          -0.2016    4.8331    3.6375 H       1  LIG1        0.1451
     43 H          -0.1012    5.5557    5.9764 H       1  LIG1        0.1479
     44 H           3.1359    3.9823    0.3635 H       1  LIG1        0.1582
@<TRIPOS>BOND
     1     1     5   ar
     2     1     6   ar
     3     2     7   ar
     4     2     8   ar
     5     3     4   ar
     6     3     9   ar
     7     4    10   ar
     8     5    11   ar
     9     6    12   ar
    10     7    13   ar
    11     8    14   ar
    12     9    17   ar
    13    10    18   ar
    14    11    19   ar
    15    12    19   ar
    16    13    20   ar
    17    14    20   ar
    18    15    16   ar
    19    15    21   ar
    20    16    22   ar
    21    17    18   ar
    22    17    21   ar
    23    18    22   ar
    24    19    24    1
    25    20    24    1
    26    21    26    1
    27    22    27    1
    28    23    24    1
    29    23    25    2
    30    23    26    1
    31     1    28    1
    32     2    29    1
    33     3    30    1
    34     4    31    1
    35     5    32    1
    36     6    33    1
    37     7    34    1
    38     8    35    1
    39     9    36    1
    40    10    37    1
    41    11    38    1
    42    12    39    1
    43    13    40    1
    44    14    41    1
    45    15    42    1
    46    16    43    1
    47    24    44    1
