@<TRIPOS>MOLECULE
AK-968/36800061
 33 35 0 0 0
SMALL
USER_CHARGES

@<TRIPOS>ATOM
      1 C           0.2351    0.5625   -1.7768 C.ar    1  LIG1       -0.1025
      2 C           2.3866    7.5443   -2.2017 C.ar    1  LIG1       -0.0830
      3 C           1.5535    0.8427   -2.1361 C.ar    1  LIG1       -0.1000
      4 C          -0.4191    1.3662   -0.8430 C.ar    1  LIG1       -0.0996
      5 C           1.1223    7.1006   -1.7809 C.ar    1  LIG1       -0.0826
      6 C           3.5321    6.8101   -1.8957 C.ar    1  LIG1       -0.0640
      7 C           2.2177    1.9264   -1.5616 C.ar    1  LIG1       -0.0867
      8 C           0.2451    2.4499   -0.2685 C.ar    1  LIG1       -0.0849
      9 C           0.9889    5.9155   -1.0504 C.ar    1  LIG1       -0.0674
     10 C           3.3663    5.6420   -1.1734 C.ar    1  LIG1        0.0488
     11 C           1.5634    2.7301   -0.6278 C.ar    1  LIG1       -0.0304
     12 C           2.1303    5.1864   -0.7559 C.ar    1  LIG1       -0.0013
     13 C           4.3909    4.7148   -0.7260 C.2     1  LIG1        0.2095
     14 C           2.2878    3.9128   -0.0003 C.3     1  LIG1        0.1455
     15 C           2.1373    3.5363    3.6603 C.3     1  LIG1       -0.0371
     16 C           2.5796    3.2478    2.2416 C.3     1  LIG1        0.0109
     17 O           5.5877    4.8040   -0.9139 O.2     1  LIG1       -0.4074
     18 O           3.7340    3.7200   -0.0536 O.3     1  LIG1       -0.2801
     19 O           1.9099    4.1376    1.3576 O.3     1  LIG1       -0.4051
     20 H          -0.2824   -0.2806   -2.2252 H       1  LIG1        0.1225
     21 H           2.4710    8.4680   -2.7674 H       1  LIG1        0.1350
     22 H           2.0626    0.2177   -2.8639 H       1  LIG1        0.1211
     23 H          -1.4458    1.1490   -0.5639 H       1  LIG1        0.1216
     24 H           0.2396    7.6857   -2.0246 H       1  LIG1        0.1413
     25 H           4.5106    7.1504   -2.2147 H       1  LIG1        0.1496
     26 H           3.2448    2.1370   -1.8475 H       1  LIG1        0.1229
     27 H          -0.2725    3.0704    0.4581 H       1  LIG1        0.1305
     28 H           0.0098    5.5797   -0.7252 H       1  LIG1        0.1418
     29 H           2.3844    4.5629    3.9449 H       1  LIG1        0.0553
     30 H           1.0572    3.3908    3.7650 H       1  LIG1        0.0468
     31 H           2.6206    2.8490    4.3625 H       1  LIG1        0.0466
     32 H           2.3296    2.2197    1.9633 H       1  LIG1        0.0921
     33 H           3.6589    3.3946    2.1385 H       1  LIG1        0.0901
@<TRIPOS>BOND
     1     1     3   ar
     2     1     4   ar
     3     2     5   ar
     4     2     6   ar
     5     3     7   ar
     6     4     8   ar
     7     5     9   ar
     8     6    10   ar
     9     7    11   ar
    10     8    11   ar
    11     9    12   ar
    12    10    12   ar
    13    10    13    1
    14    11    14    1
    15    12    14    1
    16    13    17    2
    17    13    18    1
    18    14    18    1
    19    14    19    1
    20    15    16    1
    21    16    19    1
    22     1    20    1
    23     2    21    1
    24     3    22    1
    25     4    23    1
    26     5    24    1
    27     6    25    1
    28     7    26    1
    29     8    27    1
    30     9    28    1
    31    15    29    1
    32    15    30    1
    33    15    31    1
    34    16    32    1
    35    16    33    1
