@<TRIPOS>MOLECULE
AN-892/40779938
 48 52 0 0 0
SMALL
USER_CHARGES

@<TRIPOS>ATOM
      1 C           0.2943    0.7890   -2.4428 C.ar    1  LIG1       -0.1065
      2 C           1.3166    1.6719   -2.7903 C.ar    1  LIG1       -0.0970
      3 C          -0.1502    0.7215   -1.1223 C.ar    1  LIG1       -0.0987
      4 C           3.0811    4.0375    4.7647 C.ar    1  LIG1       -0.0650
      5 C           0.8951    4.9296    4.2520 C.ar    1  LIG1       -0.0622
      6 C           1.2367    5.6273   -0.6363 C.ar    1  LIG1       -0.0824
      7 C           3.4990    6.0916   -1.3459 C.ar    1  LIG1       -0.0834
      8 C           1.8946    2.4874   -1.8173 C.ar    1  LIG1       -0.0566
      9 C           0.4276    1.5371   -0.1494 C.ar    1  LIG1       -0.0605
     10 C           2.8807    4.3225    6.1153 C.ar    1  LIG1       -0.0638
     11 C           0.6948    5.2146    5.6027 C.ar    1  LIG1       -0.0628
     12 C           0.7752    6.6909   -1.4115 C.ar    1  LIG1       -0.0680
     13 C           3.0374    7.1554   -2.1213 C.ar    1  LIG1       -0.0690
     14 C           6.3351    2.7861    2.6406 C.ar    1  LIG1       -0.0509
     15 C           5.0614    2.8011    2.1230 C.ar    1  LIG1       -0.0508
     16 C           5.7561    4.8342    2.6131 C.ar    1  LIG1       -0.0009
     17 C           2.0883    4.3409    3.8330 C.ar    1  LIG1       -0.0208
     18 C           2.5987    5.3276   -0.6034 C.ar    1  LIG1       -0.0655
     19 C           1.4501    2.4200   -0.4969 C.ar    1  LIG1       -0.0243
     20 C           1.6876    4.9112    6.5344 C.ar    1  LIG1       -0.0103
     21 C           1.6755    7.4550   -2.1541 C.ar    1  LIG1       -0.0117
     22 C           2.2967    4.0434    2.4249 C.2     1  LIG1        0.0500
     23 C           3.0937    4.1867    0.2260 C.3     1  LIG1        0.0530
     24 C           3.4456    4.6607    1.6540 C.3     1  LIG1        0.0786
     25 N           6.7617    4.0547    2.9441 N.ar    1  LIG1       -0.4027
     26 N           1.5456    3.2400    1.7360 N.2     1  LIG1       -0.3023
     27 N           4.7038    4.1199    2.1118 N.ar    1  LIG1       -0.3429
     28 N           2.0172    3.2208    0.4588 N.pl3   1  LIG1       -0.3085
     29 CL          1.4400    5.2616    8.2006 Cl      1  LIG1       -0.1371
     30 CL          1.1058    8.7671   -3.1105 Cl      1  LIG1       -0.1377
     31 H          -0.1554    0.1537   -3.2004 H       1  LIG1        0.1094
     32 H           1.6627    1.7242   -3.8182 H       1  LIG1        0.1251
     33 H          -0.9464    0.0338   -0.8520 H       1  LIG1        0.1247
     34 H           4.0148    3.5792    4.4491 H       1  LIG1        0.1379
     35 H           0.1146    5.1701    3.5349 H       1  LIG1        0.1473
     36 H           0.5291    5.0368   -0.0603 H       1  LIG1        0.1316
     37 H           4.5616    5.8646   -1.3261 H       1  LIG1        0.1336
     38 H           2.6906    3.1720   -2.0984 H       1  LIG1        0.1282
     39 H           0.0729    1.4760    0.8763 H       1  LIG1        0.1178
     40 H           3.6627    4.0802    6.8305 H       1  LIG1        0.1383
     41 H          -0.2399    5.6738    5.9144 H       1  LIG1        0.1384
     42 H          -0.2888    6.9125   -1.4275 H       1  LIG1        0.1360
     43 H           3.7505    7.7420   -2.6946 H       1  LIG1        0.1371
     44 H           6.9665    1.9263    2.8105 H       1  LIG1        0.1830
     45 H           4.4039    2.0167    1.7749 H       1  LIG1        0.1775
     46 H           5.7324    5.9108    2.7127 H       1  LIG1        0.2561
     47 H           3.9440    3.7184   -0.2826 H       1  LIG1        0.1566
     48 H           3.4893    5.7456    1.7827 H       1  LIG1        0.1823
@<TRIPOS>BOND
     1     1     2   ar
     2     1     3   ar
     3     2     8   ar
     4     3     9   ar
     5     4    10   ar
     6     4    17   ar
     7     5    11   ar
     8     5    17   ar
     9     6    12   ar
    10     6    18   ar
    11     7    13   ar
    12     7    18   ar
    13     8    19   ar
    14     9    19   ar
    15    10    20   ar
    16    11    20   ar
    17    12    21   ar
    18    13    21   ar
    19    14    15   ar
    20    14    25   ar
    21    15    27   ar
    22    16    25   ar
    23    16    27   ar
    24    17    22    1
    25    18    23    1
    26    19    28    1
    27    20    29    1
    28    21    30    1
    29    22    24    1
    30    22    26    2
    31    23    24    1
    32    23    28    1
    33    24    27    1
    34    26    28    1
    35     1    31    1
    36     2    32    1
    37     3    33    1
    38     4    34    1
    39     5    35    1
    40     6    36    1
    41     7    37    1
    42     8    38    1
    43     9    39    1
    44    10    40    1
    45    11    41    1
    46    12    42    1
    47    13    43    1
    48    14    44    1
    49    15    45    1
    50    16    46    1
    51    23    47    1
    52    24    48    1
