@<TRIPOS>MOLECULE
AK-968/40710182
 38 39 0 0 0
SMALL
USER_CHARGES

@<TRIPOS>ATOM
      1 C           1.5034    4.2958    5.8992 C.ar    1  LIG1       -0.1015
      2 C           2.7891    3.8466    5.5979 C.ar    1  LIG1       -0.0946
      3 C           0.6328    4.6590    4.8717 C.ar    1  LIG1       -0.0998
      4 C           3.2043    3.7609    4.2691 C.ar    1  LIG1       -0.0679
      5 C           1.0479    4.5732    3.5429 C.ar    1  LIG1       -0.0762
      6 C           3.2862    6.7844   -2.3770 C.ar    1  LIG1       -0.1050
      7 C           0.9450    7.0897   -1.8640 C.ar    1  LIG1       -0.1030
      8 C           3.2589    5.5347   -1.7583 C.ar    1  LIG1       -0.0980
      9 C           0.9177    5.8397   -1.2453 C.ar    1  LIG1       -0.0948
     10 C           2.3337    4.1242    3.2415 C.ar    1  LIG1        0.0189
     11 C           2.1293    7.5620   -2.4298 C.ar    1  LIG1       -0.1185
     12 C           2.0746    5.0622   -1.1925 C.ar    1  LIG1       -0.0870
     13 C           2.7761    4.0329    1.8262 C.2     1  LIG1        0.1021
     14 C           2.1575    8.8982   -3.0914 C.3     1  LIG1       -0.0441
     15 C           0.9911    1.3854   -0.5360 C.3     1  LIG1       -0.0636
     16 C           1.0390    2.7570   -1.1982 C.3     1  LIG1       -0.0430
     17 C           2.0454    3.7037   -0.5219 C.3     1  LIG1       -0.0145
     18 N           1.7722    3.8373    0.8916 N.am    1  LIG1       -0.3387
     19 O           3.9737    4.1120    1.5655 O.2     1  LIG1       -0.4780
     20 H           1.1802    4.3626    6.9340 H       1  LIG1        0.1245
     21 H           3.4669    3.5641    6.3981 H       1  LIG1        0.1220
     22 H          -0.3684    5.0084    5.1064 H       1  LIG1        0.1194
     23 H           4.2084    3.4097    4.0455 H       1  LIG1        0.1415
     24 H           0.3611    4.8591    2.7503 H       1  LIG1        0.1240
     25 H           4.2134    7.1446   -2.8149 H       1  LIG1        0.1171
     26 H           0.0387    7.6883   -1.9020 H       1  LIG1        0.1185
     27 H           4.1646    4.9352   -1.7234 H       1  LIG1        0.1149
     28 H          -0.0091    5.4790   -0.8070 H       1  LIG1        0.1221
     29 H           1.9112    8.8026   -4.1560 H       1  LIG1        0.0567
     30 H           1.4390    9.5873   -2.6288 H       1  LIG1        0.0532
     31 H           3.1471    9.3655   -3.0038 H       1  LIG1        0.0534
     32 H           0.7499    1.4721    0.5283 H       1  LIG1        0.0330
     33 H           0.2213    0.7667   -1.0080 H       1  LIG1        0.0277
     34 H           1.9473    0.8619   -0.6320 H       1  LIG1        0.0367
     35 H           1.2828    2.6249   -2.2599 H       1  LIG1        0.0516
     36 H           0.0337    3.1954   -1.1561 H       1  LIG1        0.0583
     37 H           3.0435    3.2527   -0.5850 H       1  LIG1        0.1337
     38 H           0.8093    3.7187    1.1882 H       1  LIG1        0.2986
@<TRIPOS>BOND
     1     1     2   ar
     2     1     3   ar
     3     2     4   ar
     4     3     5   ar
     5     4    10   ar
     6     5    10   ar
     7     6     8   ar
     8     6    11   ar
     9     7     9   ar
    10     7    11   ar
    11     8    12   ar
    12     9    12   ar
    13    10    13    1
    14    11    14    1
    15    12    17    1
    16    13    18   am
    17    13    19    2
    18    15    16    1
    19    16    17    1
    20    17    18    1
    21     1    20    1
    22     2    21    1
    23     3    22    1
    24     4    23    1
    25     5    24    1
    26     6    25    1
    27     7    26    1
    28     8    27    1
    29     9    28    1
    30    14    29    1
    31    14    30    1
    32    14    31    1
    33    15    32    1
    34    15    33    1
    35    15    34    1
    36    16    35    1
    37    16    36    1
    38    17    37    1
    39    18    38    1
