@<TRIPOS>MOLECULE
AK-968/12688791
 46 48 0 0 0
SMALL
USER_CHARGES

@<TRIPOS>ATOM
      1 C           4.4285    3.8805    4.8770 C.1     1  LIG1        0.0500
      2 C           0.3682    0.6032   -1.8507 C.ar    1  LIG1       -0.1068
      3 C           2.1978    7.5825   -2.2779 C.ar    1  LIG1       -0.1047
      4 C           1.6960    0.9556   -2.0923 C.ar    1  LIG1       -0.1015
      5 C          -0.4025    1.3543   -0.9632 C.ar    1  LIG1       -0.1053
      6 C           1.0813    6.7480   -2.3255 C.ar    1  LIG1       -0.1037
      7 C           3.2757    7.2591   -1.4536 C.ar    1  LIG1       -0.1033
      8 C           2.2531    2.0592   -1.4462 C.ar    1  LIG1       -0.0917
      9 C           0.1548    2.4578   -0.3172 C.ar    1  LIG1       -0.0967
     10 C           1.0424    5.5900   -1.5486 C.ar    1  LIG1       -0.0993
     11 C           3.2368    6.1012   -0.6768 C.ar    1  LIG1       -0.0983
     12 C           3.0420    4.2058    5.0159 C.ar    1  LIG1        0.0682
     13 C           1.4826    2.8103   -0.5587 C.ar    1  LIG1       -0.0679
     14 C           2.1201    5.2666   -0.7243 C.ar    1  LIG1       -0.0750
     15 C           2.3833    4.4663    6.2521 C.ar    1  LIG1       -0.0757
     16 C           1.0474    4.7525    6.0764 C.ar    1  LIG1       -0.0246
     17 C           2.1843    4.3025    3.9422 C.ar    1  LIG1        0.0653
     18 C           1.4610    4.2592    1.5278 C.2     1  LIG1        0.1252
     19 C           0.0235    5.0749    7.0951 C.3     1  LIG1       -0.0268
     20 C           3.2869    3.0118    8.0836 C.3     1  LIG1       -0.0611
     21 C           3.0502    4.4354    7.5790 C.3     1  LIG1       -0.0444
     22 C           2.0778    3.9902    0.1326 C.3     1  LIG1        0.0901
     23 N           5.5530    3.6167    4.7643 N.1     1  LIG1       -0.3827
     24 N           2.3960    4.1297    2.5537 N.am    1  LIG1       -0.2791
     25 O           0.2725    4.5427    1.6491 O.2     1  LIG1       -0.4512
     26 S           0.5921    4.7062    4.4263 S.2     1  LIG1       -0.0320
     27 H          -0.0659   -0.2554   -2.3548 H       1  LIG1        0.1160
     28 H           2.2285    8.4833   -2.8838 H       1  LIG1        0.1188
     29 H           2.2958    0.3716   -2.7841 H       1  LIG1        0.1162
     30 H          -1.4366    1.0808   -0.7757 H       1  LIG1        0.1155
     31 H           0.2424    6.9990   -2.9681 H       1  LIG1        0.1189
     32 H           4.1456    7.9080   -1.4172 H       1  LIG1        0.1194
     33 H           3.2886    2.3263   -1.6404 H       1  LIG1        0.1242
     34 H          -0.4532    3.0371    0.3727 H       1  LIG1        0.1191
     35 H           0.1681    4.9458   -1.5919 H       1  LIG1        0.1182
     36 H           4.0810    5.8573   -0.0374 H       1  LIG1        0.1220
     37 H          -0.0229    6.1598    7.2764 H       1  LIG1        0.0708
     38 H          -0.9803    4.7400    6.7879 H       1  LIG1        0.0675
     39 H           0.2323    4.5796    8.0572 H       1  LIG1        0.0725
     40 H           2.3459    2.4535    8.1345 H       1  LIG1        0.0325
     41 H           3.7308    3.0201    9.0841 H       1  LIG1        0.0379
     42 H           3.9644    2.4682    7.4164 H       1  LIG1        0.0382
     43 H           4.0183    4.9648    7.5416 H       1  LIG1        0.0708
     44 H           2.4531    4.9836    8.3286 H       1  LIG1        0.0609
     45 H           3.1436    3.7662    0.3543 H       1  LIG1        0.1493
     46 H           3.3492    3.8909    2.2886 H       1  LIG1        0.3441
@<TRIPOS>BOND
     1     1    12    1
     2     1    23    3
     3     2     4   ar
     4     2     5   ar
     5     3     6   ar
     6     3     7   ar
     7     4     8   ar
     8     5     9   ar
     9     6    10   ar
    10     7    11   ar
    11     8    13   ar
    12     9    13   ar
    13    10    14   ar
    14    11    14   ar
    15    12    15   ar
    16    12    17   ar
    17    13    22    1
    18    14    22    1
    19    15    16   ar
    20    15    21    1
    21    16    19    1
    22    16    26   ar
    23    17    24    1
    24    17    26   ar
    25    18    22    1
    26    18    24   am
    27    18    25    2
    28    20    21    1
    29     2    27    1
    30     3    28    1
    31     4    29    1
    32     5    30    1
    33     6    31    1
    34     7    32    1
    35     8    33    1
    36     9    34    1
    37    10    35    1
    38    11    36    1
    39    19    37    1
    40    19    38    1
    41    19    39    1
    42    20    40    1
    43    20    41    1
    44    20    42    1
    45    21    43    1
    46    21    44    1
    47    22    45    1
    48    24    46    1
