@<TRIPOS>MOLECULE
AB-131/42301081
 32 33 0 0 0
SMALL
USER_CHARGES

@<TRIPOS>ATOM
      1 C           1.1412    7.3187   -1.1925 C.ar    1  LIG1       -0.1036
      2 C           3.0021    6.7138   -2.6096 C.ar    1  LIG1       -0.1042
      3 C           1.2869    6.1222   -0.4905 C.ar    1  LIG1       -0.0971
      4 C           3.1479    5.5174   -1.9075 C.ar    1  LIG1       -0.0988
      5 C           0.3506    2.5309   -0.2210 C.ar    1  LIG1       -0.0838
      6 C           2.2010    1.9816   -1.6739 C.ar    1  LIG1       -0.0821
      7 C          -0.3835    1.4721   -0.7555 C.ar    1  LIG1       -0.0743
      8 C           1.4669    0.9227   -2.2085 C.ar    1  LIG1       -0.0737
      9 C           1.9987    7.6145   -2.2522 C.ar    1  LIG1       -0.1180
     10 C           2.2903    5.2216   -0.8479 C.ar    1  LIG1       -0.0785
     11 C           1.6428    2.7856   -0.6802 C.ar    1  LIG1       -0.0672
     12 C           0.1747    0.6680   -1.7492 C.ar    1  LIG1        0.0256
     13 C           1.8439    8.8936   -3.0029 C.3     1  LIG1       -0.0436
     14 C           2.4466    3.9433   -0.0957 C.3     1  LIG1        0.0225
     15 C          -0.6102   -0.4649   -2.3192 C.3     1  LIG1        0.3460
     16 O           3.8344    3.5879    0.0324 O.3     1  LIG1       -0.4661
     17 F          -1.8563   -0.5962   -1.7750 F       1  LIG1       -0.1913
     18 F          -0.8186   -0.3631   -3.6652 F       1  LIG1       -0.1916
     19 F          -0.0007   -1.6719   -2.1334 F       1  LIG1       -0.1916
     20 H           0.3564    8.0144   -0.9072 H       1  LIG1        0.1183
     21 H           3.6756    6.9371   -3.4330 H       1  LIG1        0.1180
     22 H           0.6152    5.9011    0.3347 H       1  LIG1        0.1210
     23 H           3.9323    4.8212   -2.1924 H       1  LIG1        0.1154
     24 H          -0.0926    3.1524    0.5528 H       1  LIG1        0.1272
     25 H           3.2078    2.1722   -2.0364 H       1  LIG1        0.1326
     26 H          -1.3889    1.2802   -0.3904 H       1  LIG1        0.1402
     27 H           1.9093    0.3010   -2.9824 H       1  LIG1        0.1404
     28 H           2.4513    9.6827   -2.5429 H       1  LIG1        0.0570
     29 H           2.1546    8.7814   -4.0499 H       1  LIG1        0.0539
     30 H           0.7968    9.2237   -3.0163 H       1  LIG1        0.0537
     31 H           2.1193    4.0839    0.9505 H       1  LIG1        0.1653
     32 H           4.2494    4.3170    0.5114 H       1  LIG1        0.3280
@<TRIPOS>BOND
     1     1     3   ar
     2     1     9   ar
     3     2     4   ar
     4     2     9   ar
     5     3    10   ar
     6     4    10   ar
     7     5     7   ar
     8     5    11   ar
     9     6     8   ar
    10     6    11   ar
    11     7    12   ar
    12     8    12   ar
    13     9    13    1
    14    10    14    1
    15    11    14    1
    16    12    15    1
    17    14    16    1
    18    15    17    1
    19    15    18    1
    20    15    19    1
    21     1    20    1
    22     2    21    1
    23     3    22    1
    24     4    23    1
    25     5    24    1
    26     6    25    1
    27     7    26    1
    28     8    27    1
    29    13    28    1
    30    13    29    1
    31    13    30    1
    32    14    31    1
    33    16    32    1
