@<TRIPOS>MOLECULE
AE-848/37018100
 46 50 0 0 0
SMALL
USER_CHARGES

@<TRIPOS>ATOM
      1 C           1.8953    4.4571    6.8547 C.ar    1  LIG1       -0.1059
      2 C           0.6631    0.9337   -2.3527 C.ar    1  LIG1       -0.1009
      3 C           5.4417    5.7447   -2.4166 C.ar    1  LIG1       -0.1005
      4 C           0.7071    4.7676    6.1934 C.ar    1  LIG1       -0.0998
      5 C           3.0384    4.1375    6.1218 C.ar    1  LIG1       -0.0999
      6 C           5.0709    6.5186   -3.5144 C.ar    1  LIG1       -0.0981
      7 C           1.9684    1.0792   -1.8829 C.ar    1  LIG1       -0.0923
      8 C          -0.3631    1.7086   -1.8123 C.ar    1  LIG1       -0.0912
      9 C           4.5094    5.4118   -1.4272 C.ar    1  LIG1       -0.0860
     10 C           0.6618    4.7583    4.7993 C.ar    1  LIG1       -0.0769
     11 C           2.9931    4.1282    4.7278 C.ar    1  LIG1       -0.0766
     12 C           3.7606    6.9834   -3.6592 C.ar    1  LIG1       -0.0725
     13 C           2.2475    1.9996   -0.8726 C.ar    1  LIG1       -0.0543
     14 C          -0.0841    2.6290   -0.8020 C.ar    1  LIG1       -0.0527
     15 C           2.0252    5.5127    1.7702 C.ar    1  LIG1       -0.0272
     16 C           0.9921    6.4058   -1.3969 C.ar    1  LIG1       -0.0351
     17 C           3.1824    5.8691   -1.5515 C.ar    1  LIG1       -0.0479
     18 C           1.8049    4.4386    4.0664 C.ar    1  LIG1       -0.0363
     19 C           2.0070    5.7276   -0.7621 C.ar    1  LIG1       -0.0169
     20 C           2.8394    6.6428   -2.6624 C.ar    1  LIG1       -0.0488
     21 C           1.2212    2.7745   -0.3322 C.ar    1  LIG1       -0.0045
     22 C           1.7585    4.4287    2.6278 C.ar    1  LIG1        0.0079
     23 C           1.8494    5.0026    0.5071 C.ar    1  LIG1       -0.0039
     24 C           0.7376    7.7460   -3.4802 C.3     1  LIG1       -0.0089
     25 N           1.4373    3.3141    1.9656 N.ar    1  LIG1       -0.3144
     26 N           1.5038    6.9541   -2.5423 N.ar    1  LIG1       -0.3731
     27 N           1.5011    3.6950    0.6784 N.ar    1  LIG1       -0.2824
     28 H           1.9310    4.4654    7.9401 H       1  LIG1        0.1169
     29 H           0.4456    0.2186   -3.1405 H       1  LIG1        0.1206
     30 H           6.4671    5.3961   -2.3258 H       1  LIG1        0.1142
     31 H          -0.1827    5.0177    6.7636 H       1  LIG1        0.1185
     32 H           3.9636    3.8970    6.6370 H       1  LIG1        0.1172
     33 H           5.8113    6.7651   -4.2712 H       1  LIG1        0.1230
     34 H           2.7678    0.4769   -2.3044 H       1  LIG1        0.1252
     35 H          -1.3790    1.5957   -2.1797 H       1  LIG1        0.1266
     36 H           4.8155    4.8081   -0.5774 H       1  LIG1        0.1293
     37 H          -0.2720    5.0025    4.2983 H       1  LIG1        0.1296
     38 H           3.8930    3.8768    4.1710 H       1  LIG1        0.1304
     39 H           3.4775    7.5854   -4.5162 H       1  LIG1        0.1211
     40 H           3.2693    2.1037   -0.5160 H       1  LIG1        0.1335
     41 H          -0.8933    3.2272   -0.3902 H       1  LIG1        0.1368
     42 H           2.3062    6.5237    2.0322 H       1  LIG1        0.1337
     43 H          -0.0483    6.5450   -1.1327 H       1  LIG1        0.2051
     44 H           0.8084    8.7932   -3.1744 H       1  LIG1        0.1004
     45 H           1.1444    7.6133   -4.4865 H       1  LIG1        0.1082
     46 H          -0.3040    7.4128   -3.4682 H       1  LIG1        0.1087
@<TRIPOS>BOND
     1     1     4   ar
     2     1     5   ar
     3     2     7   ar
     4     2     8   ar
     5     3     6   ar
     6     3     9   ar
     7     4    10   ar
     8     5    11   ar
     9     6    12   ar
    10     7    13   ar
    11     8    14   ar
    12     9    17   ar
    13    10    18   ar
    14    11    18   ar
    15    12    20   ar
    16    13    21   ar
    17    14    21   ar
    18    15    22   ar
    19    15    23   ar
    20    16    19   ar
    21    16    26   ar
    22    17    19   ar
    23    17    20   ar
    24    18    22    1
    25    19    23    1
    26    20    26   ar
    27    21    27    1
    28    22    25   ar
    29    23    27   ar
    30    24    26    1
    31    25    27   ar
    32     1    28    1
    33     2    29    1
    34     3    30    1
    35     4    31    1
    36     5    32    1
    37     6    33    1
    38     7    34    1
    39     8    35    1
    40     9    36    1
    41    10    37    1
    42    11    38    1
    43    12    39    1
    44    13    40    1
    45    14    41    1
    46    15    42    1
    47    16    43    1
    48    24    44    1
    49    24    45    1
    50    24    46    1
