@<TRIPOS>MOLECULE
AJ-292/11484019
 45 47 0 0 0
SMALL
USER_CHARGES

@<TRIPOS>ATOM
      1 C           2.2045    7.3958   -2.3241 C.ar    1  LIG1       -0.1105
      2 C           1.4240    3.6280    6.3275 C.ar    1  LIG1       -0.1092
      3 C           1.2198    7.1054   -1.3799 C.ar    1  LIG1       -0.1093
      4 C           3.0258    6.3787   -2.8108 C.ar    1  LIG1       -0.1080
      5 C           0.5316    3.8675    5.2827 C.ar    1  LIG1       -0.1066
      6 C           2.7285    4.1168    6.2564 C.ar    1  LIG1       -0.1066
      7 C           1.0564    5.7979   -0.9222 C.ar    1  LIG1       -0.1038
      8 C           2.8624    5.0713   -2.3530 C.ar    1  LIG1       -0.1027
      9 C           0.9435    4.5955    4.1666 C.ar    1  LIG1       -0.1003
     10 C           3.1406    4.8450    5.1402 C.ar    1  LIG1       -0.1003
     11 C           1.8778    4.7808   -1.4087 C.ar    1  LIG1       -0.1064
     12 C           2.2480    5.0843    4.0954 C.ar    1  LIG1       -0.0838
     13 C           3.2791    5.0048    1.7914 C.2     1  LIG1        0.0750
     14 C           0.1430    1.4901   -0.5404 C.3     1  LIG1       -0.0703
     15 C           1.2264    1.0181   -1.5031 C.3     1  LIG1       -0.0689
     16 C           0.2476    3.0122   -0.4990 C.3     1  LIG1       -0.0567
     17 C           1.9306    2.2783   -1.9981 C.3     1  LIG1       -0.0551
     18 C           1.6995    3.3482   -0.9075 C.3     1  LIG1       -0.0380
     19 C           2.6935    5.8702    2.8906 C.3     1  LIG1        0.0666
     20 C           2.6622    3.1338    0.2785 C.3     1  LIG1       -0.0257
     21 N           2.3614    4.0629    1.3136 N.am    1  LIG1       -0.3556
     22 O           4.4271    5.1264    1.3717 O.2     1  LIG1       -0.4906
     23 H           2.3307    8.4136   -2.6815 H       1  LIG1        0.1116
     24 H           1.1027    3.0622    7.1971 H       1  LIG1        0.1130
     25 H           0.5795    7.8970   -1.0017 H       1  LIG1        0.1127
     26 H           3.7919    6.6042   -3.5467 H       1  LIG1        0.1136
     27 H          -0.4845    3.4878    5.3385 H       1  LIG1        0.1141
     28 H           3.4234    3.9316    7.0701 H       1  LIG1        0.1142
     29 H           0.2867    5.5810   -0.1862 H       1  LIG1        0.1179
     30 H           3.5070    4.2853   -2.7376 H       1  LIG1        0.1167
     31 H           0.2414    4.7771    3.3571 H       1  LIG1        0.1163
     32 H           4.1589    5.2217    5.0933 H       1  LIG1        0.1163
     33 H          -0.8539    1.1698   -0.8602 H       1  LIG1        0.0427
     34 H           0.3175    1.0669    0.4555 H       1  LIG1        0.0432
     35 H           1.9336    0.3644   -0.9795 H       1  LIG1        0.0453
     36 H           0.8084    0.4437   -2.3361 H       1  LIG1        0.0446
     37 H          -0.4644    3.4379   -1.2191 H       1  LIG1        0.0515
     38 H          -0.0173    3.4110    0.4865 H       1  LIG1        0.0512
     39 H           2.9929    2.0997   -2.1983 H       1  LIG1        0.0565
     40 H           1.4741    2.5910   -2.9473 H       1  LIG1        0.0539
     41 H           1.8434    6.4320    2.4833 H       1  LIG1        0.1151
     42 H           3.4442    6.6127    3.1893 H       1  LIG1        0.1153
     43 H           3.6740    3.2931   -0.0668 H       1  LIG1        0.1008
     44 H           2.5380    2.1269    0.6505 H       1  LIG1        0.1047
     45 H           1.4244    4.0408    1.7306 H       1  LIG1        0.2955
@<TRIPOS>BOND
     1     1     3   ar
     2     1     4   ar
     3     2     5   ar
     4     2     6   ar
     5     3     7   ar
     6     4     8   ar
     7     5     9   ar
     8     6    10   ar
     9     7    11   ar
    10     8    11   ar
    11     9    12   ar
    12    10    12   ar
    13    11    18    1
    14    12    19    1
    15    13    19    1
    16    13    21   am
    17    13    22    2
    18    14    15    1
    19    14    16    1
    20    15    17    1
    21    16    18    1
    22    17    18    1
    23    18    20    1
    24    20    21    1
    25     1    23    1
    26     2    24    1
    27     3    25    1
    28     4    26    1
    29     5    27    1
    30     6    28    1
    31     7    29    1
    32     8    30    1
    33     9    31    1
    34    10    32    1
    35    14    33    1
    36    14    34    1
    37    15    35    1
    38    15    36    1
    39    16    37    1
    40    16    38    1
    41    17    39    1
    42    17    40    1
    43    19    41    1
    44    19    42    1
    45    20    43    1
    46    20    44    1
    47    21    45    1
