@<TRIPOS>MOLECULE
AP-263/40792243
 45 47 0 0 0
SMALL
USER_CHARGES

@<TRIPOS>ATOM
      1 C           0.3748    0.5972   -1.9125 C.ar    1  LIG1       -0.1058
      2 C           2.2037    7.5761   -2.3361 C.ar    1  LIG1       -0.1077
      3 C           1.7057    0.9498   -2.1359 C.ar    1  LIG1       -0.1045
      4 C          -0.4093    1.3507   -1.0387 C.ar    1  LIG1       -0.1038
      5 C           3.1733    6.5860   -2.4954 C.ar    1  LIG1       -0.1025
      6 C           1.1859    7.4109   -1.3967 C.ar    1  LIG1       -0.1060
      7 C           2.2527    2.0558   -1.4853 C.ar    1  LIG1       -0.0993
      8 C           0.1379    2.4566   -0.3883 C.ar    1  LIG1       -0.0974
      9 C           3.1250    5.4307   -1.7152 C.ar    1  LIG1       -0.0923
     10 C           1.1377    6.2556   -0.6166 C.ar    1  LIG1       -0.0967
     11 C           1.6072    4.6723    6.6163 C.ar    1  LIG1       -0.1058
     12 C           2.8900    4.3428    6.1788 C.ar    1  LIG1       -0.1003
     13 C           0.8212    4.6459    4.3318 C.ar    1  LIG1       -0.0663
     14 C           1.4688    2.8093   -0.6115 C.ar    1  LIG1       -0.0741
     15 C           2.1072    5.2654   -0.7758 C.ar    1  LIG1       -0.0681
     16 C           0.5728    4.8238    5.6928 C.ar    1  LIG1       -0.1103
     17 C           3.1384    4.1648    4.8178 C.ar    1  LIG1       -0.0872
     18 C           2.1040    4.3164    3.8943 C.ar    1  LIG1       -0.0545
     19 C           1.4160    4.2648    1.4698 C.2     1  LIG1        0.1111
     20 C          -0.7986    5.1760    6.1615 C.3     1  LIG1       -0.0424
     21 C           4.5224    3.8130    4.3776 C.3     1  LIG1       -0.0400
     22 C           2.0532    3.9918    0.0846 C.3     1  LIG1        0.0879
     23 N           2.3360    4.1392    2.5095 N.am    1  LIG1       -0.3091
     24 O           0.2257    4.5479    1.5728 O.2     1  LIG1       -0.4661
     25 H          -0.0515   -0.2632   -2.4201 H       1  LIG1        0.1170
     26 H           2.2422    8.4762   -2.9427 H       1  LIG1        0.1147
     27 H           2.3158    0.3639   -2.8170 H       1  LIG1        0.1175
     28 H          -1.4458    1.0771   -0.8654 H       1  LIG1        0.1184
     29 H           3.9664    6.7149   -3.2260 H       1  LIG1        0.1151
     30 H           0.4315    8.1820   -1.2716 H       1  LIG1        0.1148
     31 H           3.2908    2.3229   -1.6653 H       1  LIG1        0.1149
     32 H          -0.4805    3.0377    0.2908 H       1  LIG1        0.1215
     33 H           3.8846    4.6645   -1.8463 H       1  LIG1        0.1212
     34 H           0.3410    6.1355    0.1128 H       1  LIG1        0.1178
     35 H           1.4229    4.8091    7.6786 H       1  LIG1        0.1122
     36 H           3.6888    4.2267    6.9064 H       1  LIG1        0.1219
     37 H           0.0125    4.7646    3.6139 H       1  LIG1        0.1407
     38 H          -0.9237    6.2653    6.1923 H       1  LIG1        0.0566
     39 H          -1.5663    4.7561    5.4988 H       1  LIG1        0.0543
     40 H          -0.9918    4.7750    7.1652 H       1  LIG1        0.0545
     41 H           4.6480    2.7246    4.3555 H       1  LIG1        0.0555
     42 H           4.7324    4.2103    3.3772 H       1  LIG1        0.0484
     43 H           5.2730    4.2386    5.0548 H       1  LIG1        0.0566
     44 H           3.1157    3.7692    0.3225 H       1  LIG1        0.1437
     45 H           3.2932    3.9002    2.2592 H       1  LIG1        0.3237
@<TRIPOS>BOND
     1     1     3   ar
     2     1     4   ar
     3     2     5   ar
     4     2     6   ar
     5     3     7   ar
     6     4     8   ar
     7     5     9   ar
     8     6    10   ar
     9     7    14   ar
    10     8    14   ar
    11     9    15   ar
    12    10    15   ar
    13    11    12   ar
    14    11    16   ar
    15    12    17   ar
    16    13    16   ar
    17    13    18   ar
    18    14    22    1
    19    15    22    1
    20    16    20    1
    21    17    18   ar
    22    17    21    1
    23    18    23    1
    24    19    22    1
    25    19    23   am
    26    19    24    2
    27     1    25    1
    28     2    26    1
    29     3    27    1
    30     4    28    1
    31     5    29    1
    32     6    30    1
    33     7    31    1
    34     8    32    1
    35     9    33    1
    36    10    34    1
    37    11    35    1
    38    12    36    1
    39    13    37    1
    40    20    38    1
    41    20    39    1
    42    20    40    1
    43    21    41    1
    44    21    42    1
    45    21    43    1
    46    22    44    1
    47    23    45    1
