@<TRIPOS>MOLECULE
AJ-292/37095016
 45 48 0 0 0
SMALL
USER_CHARGES

@<TRIPOS>ATOM
      1 C           1.0021    7.3831   -2.1160 C.ar    1  LIG1       -0.1057
      2 C           0.8319    4.3876    5.7498 C.ar    1  LIG1       -0.0896
      3 C           1.9738    6.7108   -2.8572 C.ar    1  LIG1       -0.1037
      4 C           1.0906    7.4238   -0.7245 C.ar    1  LIG1       -0.1035
      5 C           2.1655    4.7795    5.8374 C.ar    1  LIG1       -0.0836
      6 C           0.3350    3.8687    4.5550 C.ar    1  LIG1       -0.0632
      7 C           3.0338    6.0789   -2.2070 C.ar    1  LIG1       -0.0996
      8 C           2.1506    6.7920   -0.0743 C.ar    1  LIG1       -0.0994
      9 C           3.0030    4.6555    4.7283 C.ar    1  LIG1       -0.0504
     10 C           0.1061    2.8744   -0.7791 C.ar    1  LIG1       -0.0502
     11 C           1.8749    1.2545   -0.4885 C.ar    1  LIG1       -0.0596
     12 C          -0.3077    2.2149   -1.9364 C.ar    1  LIG1       -0.0415
     13 C           1.4610    0.5950   -1.6459 C.ar    1  LIG1       -0.0542
     14 C           1.1798    3.7455    3.4451 C.ar    1  LIG1        0.0576
     15 C           3.1223    6.1195   -0.8155 C.ar    1  LIG1       -0.0924
     16 C           2.5170    4.1366    3.5223 C.ar    1  LIG1       -0.0093
     17 C           1.1974    2.3942   -0.0552 C.ar    1  LIG1       -0.0126
     18 C           0.3697    1.0752   -2.3698 C.ar    1  LIG1       -0.0050
     19 C           0.6774    3.1689    2.1795 C.ar    1  LIG1        0.1555
     20 C           2.9304    3.5648    1.3135 C.ar    1  LIG1        0.1017
     21 C           0.7034   -0.7271   -3.8851 C.3     1  LIG1        0.0258
     22 C           4.2647    5.4385   -0.1138 C.3     1  LIG1        0.0450
     23 N           3.3808    4.0548    2.4252 N.ar    1  LIG1       -0.3554
     24 N           1.6240    3.0736    1.1373 N.ar    1  LIG1       -0.2312
     25 O          -0.4859    2.7742    2.1402 O.2     1  LIG1       -0.4502
     26 O          -0.0340    0.4317   -3.4992 O.3     1  LIG1       -0.4135
     27 S           4.0516    3.6494   -0.0457 S.3     1  LIG1       -0.0492
     28 H           0.1776    7.8762   -2.6225 H       1  LIG1        0.1181
     29 H           0.1783    4.4875    6.6115 H       1  LIG1        0.1229
     30 H           1.9057    6.6800   -3.9408 H       1  LIG1        0.1177
     31 H           0.3348    7.9481   -0.1472 H       1  LIG1        0.1180
     32 H           2.5554    5.1791    6.7690 H       1  LIG1        0.1369
     33 H          -0.7090    3.5719    4.5058 H       1  LIG1        0.1455
     34 H           3.7861    5.5573   -2.7927 H       1  LIG1        0.1226
     35 H           2.2113    6.8288    1.0102 H       1  LIG1        0.1231
     36 H           4.0425    4.9643    4.8117 H       1  LIG1        0.1431
     37 H          -0.4293    3.7616   -0.4506 H       1  LIG1        0.1496
     38 H           2.7267    0.8712    0.0676 H       1  LIG1        0.1441
     39 H          -1.1586    2.5938   -2.4961 H       1  LIG1        0.1404
     40 H           1.9928   -0.2923   -1.9785 H       1  LIG1        0.1231
     41 H           0.2770   -1.1430   -4.8012 H       1  LIG1        0.0911
     42 H           0.6646   -1.4685   -3.0831 H       1  LIG1        0.1236
     43 H           1.7428   -0.4431   -4.0660 H       1  LIG1        0.0906
     44 H           5.2096    5.6633   -0.6209 H       1  LIG1        0.1136
     45 H           4.3604    5.8207    0.9085 H       1  LIG1        0.1133
@<TRIPOS>BOND
     1     1     3   ar
     2     1     4   ar
     3     2     5   ar
     4     2     6   ar
     5     3     7   ar
     6     4     8   ar
     7     5     9   ar
     8     6    14   ar
     9     7    15   ar
    10     8    15   ar
    11     9    16   ar
    12    10    12   ar
    13    10    17   ar
    14    11    13   ar
    15    11    17   ar
    16    12    18   ar
    17    13    18   ar
    18    14    16   ar
    19    14    19   ar
    20    15    22    1
    21    16    23   ar
    22    17    24    1
    23    18    26    1
    24    19    24   ar
    25    19    25    2
    26    20    23   ar
    27    20    24   ar
    28    20    27    1
    29    21    26    1
    30    22    27    1
    31     1    28    1
    32     2    29    1
    33     3    30    1
    34     4    31    1
    35     5    32    1
    36     6    33    1
    37     7    34    1
    38     8    35    1
    39     9    36    1
    40    10    37    1
    41    11    38    1
    42    12    39    1
    43    13    40    1
    44    21    41    1
    45    21    42    1
    46    21    43    1
    47    22    44    1
    48    22    45    1
