@<TRIPOS>MOLECULE
AE-848/32195054
 24 25 0 0 0
SMALL
USER_CHARGES

@<TRIPOS>ATOM
      1 C           0.1395    0.9282   -1.7755 C.ar    1  LIG1       -0.1029
      2 C           1.8377    7.4189   -2.2449 C.ar    1  LIG1       -0.1029
      3 C           1.4842    1.0808   -2.1137 C.ar    1  LIG1       -0.0999
      4 C          -0.4061    1.6749   -0.7314 C.ar    1  LIG1       -0.1021
      5 C           1.0326    7.1796   -1.1313 C.ar    1  LIG1       -0.1021
      6 C           2.9237    6.5853   -2.5125 C.ar    1  LIG1       -0.0999
      7 C           2.2831    1.9800   -1.4076 C.ar    1  LIG1       -0.0586
      8 C           0.3929    2.5742   -0.0252 C.ar    1  LIG1       -0.0618
      9 C           1.3135    6.1069   -0.2851 C.ar    1  LIG1       -0.0618
     10 C           3.2046    5.5127   -1.6663 C.ar    1  LIG1       -0.0586
     11 C           1.7375    2.7268   -0.3633 C.ar    1  LIG1        0.1477
     12 C           2.3996    5.2734   -0.5526 C.ar    1  LIG1        0.1477
     13 O           4.1905    3.5013    0.2534 O.2     1  LIG1       -0.2618
     14 S           2.7645    3.8823    0.5452 S.O     1  LIG1       -0.0705
     15 H          -0.4832    0.2282   -2.3252 H       1  LIG1        0.1240
     16 H           1.6194    8.2541   -2.9043 H       1  LIG1        0.1240
     17 H           1.9088    0.4999   -2.9272 H       1  LIG1        0.1180
     18 H          -1.4532    1.5553   -0.4688 H       1  LIG1        0.1143
     19 H           0.1866    7.8282   -0.9234 H       1  LIG1        0.1143
     20 H           3.5501    6.7726   -3.3798 H       1  LIG1        0.1180
     21 H           3.3292    2.0877   -1.6833 H       1  LIG1        0.1365
     22 H          -0.0471    3.1480    0.7865 H       1  LIG1        0.1277
     23 H           0.6765    5.9336    0.5785 H       1  LIG1        0.1277
     24 H           4.0551    4.8728   -1.8880 H       1  LIG1        0.1365
@<TRIPOS>BOND
     1     1     3   ar
     2     1     4   ar
     3     2     5   ar
     4     2     6   ar
     5     3     7   ar
     6     4     8   ar
     7     5     9   ar
     8     6    10   ar
     9     7    11   ar
    10     8    11   ar
    11     9    12   ar
    12    10    12   ar
    13    11    14    1
    14    12    14    1
    15    13    14    2
    16     1    15    1
    17     2    16    1
    18     3    17    1
    19     4    18    1
    20     5    19    1
    21     6    20    1
    22     7    21    1
    23     8    22    1
    24     9    23    1
    25    10    24    1
