@<TRIPOS>MOLECULE
ZINC00214390
 45 48 0 0 0
SMALL
USER_CHARGES

@<TRIPOS>ATOM
      1 C           1.2705    4.1783    6.2916 C.ar    1  LIG1       -0.1094
      2 C           2.6135    7.1372   -2.7186 C.ar    1  LIG1       -0.1065
      3 C           0.8607    5.2799    5.5405 C.ar    1  LIG1       -0.1084
      4 C           2.2360    3.3086    5.7845 C.ar    1  LIG1       -0.1059
      5 C           1.2776    6.7423   -2.6476 C.ar    1  LIG1       -0.1046
      6 C           3.4826    6.8496   -1.6660 C.ar    1  LIG1       -0.1055
      7 C           2.0857    2.4376   -1.4271 C.ar    1  LIG1       -0.0551
      8 C           1.4161    5.5116    4.2821 C.ar    1  LIG1       -0.1010
      9 C           2.7915    3.5404    4.5262 C.ar    1  LIG1       -0.0972
     10 C           0.8107    6.0600   -1.5242 C.ar    1  LIG1       -0.0996
     11 C           3.0158    6.1674   -0.5426 C.ar    1  LIG1       -0.1003
     12 C           1.3246    1.8748   -2.4544 C.ar    1  LIG1       -0.0468
     13 C           0.5088    1.6290    0.2425 C.ar    1  LIG1       -0.0162
     14 C           1.6802    2.3153   -0.0864 C.ar    1  LIG1        0.0411
     15 C           2.3816    4.6419    3.7750 C.ar    1  LIG1       -0.0857
     16 C           1.6798    5.7724   -0.4716 C.ar    1  LIG1       -0.0903
     17 C           0.1722    1.2023   -2.1029 C.ar    1  LIG1        0.0362
     18 C          -0.2247    1.0825   -0.7906 C.ar    1  LIG1        0.0420
     19 C           2.4879    2.9086    0.9676 C.2     1  LIG1        0.1265
     20 C          -1.6747    0.0764   -2.0425 C.3     1  LIG1        0.1143
     21 C           2.9796    4.8906    2.4206 C.3     1  LIG1        0.0082
     22 C           1.1780    5.0383    0.7380 C.3     1  LIG1        0.0053
     23 N           2.2253    4.2332    1.3627 N.am    1  LIG1       -0.3338
     24 O           3.3653    2.1952    1.4717 O.2     1  LIG1       -0.4662
     25 O          -0.6900    0.5927   -2.9612 O.3     1  LIG1       -0.3743
     26 O          -1.3852    0.3832   -0.6632 O.3     1  LIG1       -0.3756
     27 H           0.8389    3.9987    7.2720 H       1  LIG1        0.1137
     28 H           2.9772    7.6672   -3.5940 H       1  LIG1        0.1169
     29 H           0.1097    5.9578    5.9357 H       1  LIG1        0.1127
     30 H           2.5562    2.4515    6.3695 H       1  LIG1        0.1141
     31 H           0.6010    6.9651   -3.4675 H       1  LIG1        0.1171
     32 H           4.5230    7.1560   -1.7215 H       1  LIG1        0.1165
     33 H           2.9984    2.9737   -1.6773 H       1  LIG1        0.1482
     34 H           1.0905    6.3723    3.7038 H       1  LIG1        0.1153
     35 H           3.5430    2.8574    4.1391 H       1  LIG1        0.1235
     36 H          -0.2317    5.7563   -1.4775 H       1  LIG1        0.1177
     37 H           3.7001    5.9477    0.2726 H       1  LIG1        0.1185
     38 H           1.6343    1.9661   -3.4890 H       1  LIG1        0.1463
     39 H           0.1828    1.5260    1.2722 H       1  LIG1        0.1595
     40 H          -2.6515    0.5022   -2.2991 H       1  LIG1        0.2057
     41 H          -1.7245   -1.0126   -2.1568 H       1  LIG1        0.1712
     42 H           3.0043    5.9635    2.2004 H       1  LIG1        0.1295
     43 H           4.0109    4.5252    2.3732 H       1  LIG1        0.1319
     44 H           0.8011    5.7422    1.4881 H       1  LIG1        0.1111
     45 H           0.3520    4.3685    0.4766 H       1  LIG1        0.1395
@<TRIPOS>BOND
     1     1     3   ar
     2     1     4   ar
     3     2     5   ar
     4     2     6   ar
     5     3     8   ar
     6     4     9   ar
     7     5    10   ar
     8     6    11   ar
     9     7    12   ar
    10     7    14   ar
    11     8    15   ar
    12     9    15   ar
    13    10    16   ar
    14    11    16   ar
    15    12    17   ar
    16    13    14   ar
    17    13    18   ar
    18    14    19    1
    19    15    21    1
    20    16    22    1
    21    17    18   ar
    22    17    25    1
    23    18    26    1
    24    19    23   am
    25    19    24    2
    26    20    25    1
    27    20    26    1
    28    21    23    1
    29    22    23    1
    30     1    27    1
    31     2    28    1
    32     3    29    1
    33     4    30    1
    34     5    31    1
    35     6    32    1
    36     7    33    1
    37     8    34    1
    38     9    35    1
    39    10    36    1
    40    11    37    1
    41    12    38    1
    42    13    39    1
    43    20    40    1
    44    20    41    1
    45    21    42    1
    46    21    43    1
    47    22    44    1
    48    22    45    1
