@<TRIPOS>MOLECULE
AG-927/31201047
 45 48 0 0 0
SMALL
USER_CHARGES

@<TRIPOS>ATOM
      1 C           1.8784    7.6006   -2.3166 C.ar    1  LIG1       -0.1049
      2 C           0.0857    0.7398   -1.8185 C.ar    1  LIG1       -0.1053
      3 C           1.0237    7.3005   -1.2559 C.ar    1  LIG1       -0.1008
      4 C           2.8914    6.7092   -2.6699 C.ar    1  LIG1       -0.1019
      5 C          -0.5592    1.8892   -1.3618 C.ar    1  LIG1       -0.1026
      6 C           1.4739    0.6370   -1.7298 C.ar    1  LIG1       -0.1018
      7 C           1.1821    6.1089   -0.5483 C.ar    1  LIG1       -0.0888
      8 C           3.0499    5.5176   -1.9623 C.ar    1  LIG1       -0.0898
      9 C           0.1843    2.9358   -0.8162 C.ar    1  LIG1       -0.0909
     10 C           2.2174    1.6836   -1.1843 C.ar    1  LIG1       -0.0893
     11 C           2.1952    5.2174   -0.9015 C.ar    1  LIG1       -0.0752
     12 C           1.5725    2.8330   -0.7274 C.ar    1  LIG1       -0.0770
     13 C           2.5548    4.1522    3.3194 C.2     1  LIG1        0.0703
     14 C           2.3653    3.9482   -0.1473 C.3     1  LIG1        0.0068
     15 C           2.9597    5.1052    2.1815 C.3     1  LIG1        0.0252
     16 C           2.4046    2.9776    2.3370 C.3     1  LIG1        0.0254
     17 C           2.7935    3.9401    1.2734 C.3     1  LIG1        0.0053
     18 C           4.3743    5.6213    2.3622 C.3     1  LIG1       -0.0415
     19 C           2.0100    6.2779    2.0382 C.3     1  LIG1       -0.0375
     20 C           1.0001    2.4075    2.3213 C.3     1  LIG1       -0.0373
     21 C           3.3950    1.8692    2.6367 C.3     1  LIG1       -0.0414
     22 O           2.4108    4.2773    4.5172 O.2     1  LIG1       -0.4383
     23 S           4.0218    3.5373    0.1498 S.3     1  LIG1       -0.2488
     24 H           1.7549    8.5284   -2.8676 H       1  LIG1        0.1182
     25 H          -0.4932   -0.0751   -2.2431 H       1  LIG1        0.1178
     26 H           0.2347    7.9944   -0.9807 H       1  LIG1        0.1185
     27 H           3.5569    6.9432   -3.4958 H       1  LIG1        0.1192
     28 H          -1.6401    1.9696   -1.4306 H       1  LIG1        0.1187
     29 H           1.9759   -0.2581   -2.0858 H       1  LIG1        0.1183
     30 H           0.5118    5.8843    0.2770 H       1  LIG1        0.1254
     31 H           3.8428    4.8301   -2.2452 H       1  LIG1        0.1265
     32 H          -0.3272    3.8275   -0.4636 H       1  LIG1        0.1269
     33 H           3.2987    1.5936   -1.1203 H       1  LIG1        0.1305
     34 H           4.6402    6.2948    1.5443 H       1  LIG1        0.0529
     35 H           5.0833    4.7902    2.3733 H       1  LIG1        0.0495
     36 H           4.4620    6.1665    3.3049 H       1  LIG1        0.0415
     37 H           2.3307    6.9297    1.2218 H       1  LIG1        0.0524
     38 H           1.9858    6.8627    2.9607 H       1  LIG1        0.0538
     39 H           0.9986    5.9243    1.8238 H       1  LIG1        0.0596
     40 H           0.9341    1.5777    1.6134 H       1  LIG1        0.0589
     41 H           0.2812    3.1751    2.0249 H       1  LIG1        0.0517
     42 H           0.7274    2.0403    3.3137 H       1  LIG1        0.0559
     43 H           3.2709    1.0468    1.9282 H       1  LIG1        0.0413
     44 H           3.2401    1.4841    3.6473 H       1  LIG1        0.0498
     45 H           4.4186    2.2432    2.5597 H       1  LIG1        0.0529
@<TRIPOS>BOND
     1     1     3   ar
     2     1     4   ar
     3     2     5   ar
     4     2     6   ar
     5     3     7   ar
     6     4     8   ar
     7     5     9   ar
     8     6    10   ar
     9     7    11   ar
    10     8    11   ar
    11     9    12   ar
    12    10    12   ar
    13    11    14    1
    14    12    14    1
    15    13    15    1
    16    13    16    1
    17    13    22    2
    18    14    17    1
    19    14    23    1
    20    15    17    1
    21    15    18    1
    22    15    19    1
    23    16    17    1
    24    16    20    1
    25    16    21    1
    26    17    23    1
    27     1    24    1
    28     2    25    1
    29     3    26    1
    30     4    27    1
    31     5    28    1
    32     6    29    1
    33     7    30    1
    34     8    31    1
    35     9    32    1
    36    10    33    1
    37    18    34    1
    38    18    35    1
    39    18    36    1
    40    19    37    1
    41    19    38    1
    42    19    39    1
    43    20    40    1
    44    20    41    1
    45    20    42    1
    46    21    43    1
    47    21    44    1
    48    21    45    1
