@<TRIPOS>MOLECULE
AG-690/12888207
 42 44 0 0 0
SMALL
USER_CHARGES

@<TRIPOS>ATOM
      1 C           0.9295    4.8547    3.9892 C.ar    1  LIG1       -0.0642
      2 C           3.1747    4.3541    4.7278 C.ar    1  LIG1       -0.0657
      3 C           1.0607    5.4320   -1.3313 C.ar    1  LIG1       -0.0748
      4 C           3.3377    6.1208   -0.9093 C.ar    1  LIG1       -0.0775
      5 C           0.4740    4.7512    5.3035 C.ar    1  LIG1       -0.0741
      6 C           2.7193    4.2507    6.0422 C.ar    1  LIG1       -0.0706
      7 C           0.8213    6.6329   -1.9992 C.ar    1  LIG1       -0.0764
      8 C           3.0982    7.3217   -1.5771 C.ar    1  LIG1       -0.0773
      9 C           2.2798    4.6561    3.7013 C.ar    1  LIG1        0.0329
     10 C           2.3190    5.1760   -0.7863 C.ar    1  LIG1       -0.0423
     11 C           1.3690    4.4493    6.3300 C.ar    1  LIG1       -0.1002
     12 C           1.8400    7.5778   -2.1222 C.ar    1  LIG1       -0.0390
     13 C           1.1139    2.2154    0.6558 C.2     1  LIG1       -0.0100
     14 C           2.7617    4.7655    2.3106 C.2     1  LIG1        0.1513
     15 C           1.7202    2.7305   -0.6149 C.3     1  LIG1        0.0545
     16 C           2.5799    3.8670   -0.0583 C.3     1  LIG1        0.0772
     17 C          -0.5380    0.9277   -0.6548 C.3     1  LIG1       -0.0498
     18 C           0.2269    1.0157    0.6497 C.3     1  LIG1       -0.0045
     19 N           1.3868    2.8806    1.7324 N.2     1  LIG1       -0.3174
     20 N           2.2178    3.9025    1.3687 N.am    1  LIG1       -0.2357
     21 N           0.9085    4.3446    7.6589 N.pl3   1  LIG1       -0.4181
     22 O           3.6191    5.6147    2.0737 O.2     1  LIG1       -0.4602
     23 O           3.9518    3.4821   -0.1386 O.3     1  LIG1       -0.4419
     24 BR          1.5146    9.2048   -3.0267 Br      1  LIG1       -0.1087
     25 H           0.2235    5.0905    3.1971 H       1  LIG1        0.1712
     26 H           4.2290    4.1974    4.5148 H       1  LIG1        0.1463
     27 H           0.2611    4.7016   -1.2404 H       1  LIG1        0.1397
     28 H           4.3209    5.9303   -0.4869 H       1  LIG1        0.1289
     29 H          -0.5803    4.9079    5.5168 H       1  LIG1        0.1088
     30 H           3.4252    4.0149    6.8344 H       1  LIG1        0.1114
     31 H          -0.1651    6.8172   -2.4172 H       1  LIG1        0.1374
     32 H           3.9027    8.0472   -1.6644 H       1  LIG1        0.1357
     33 H           2.3002    1.9416   -1.1022 H       1  LIG1        0.1220
     34 H           0.9105    3.0646   -1.2719 H       1  LIG1        0.1181
     35 H          -1.1562    1.8194   -0.7966 H       1  LIG1        0.0399
     36 H          -1.1923    0.0495   -0.6678 H       1  LIG1        0.0420
     37 H           0.1448    0.8447   -1.5068 H       1  LIG1        0.0399
     38 H           0.8459    0.1256    0.7944 H       1  LIG1        0.0952
     39 H          -0.4639    1.0987    1.4938 H       1  LIG1        0.0954
     40 H          -0.0526    4.5356    7.8588 H       1  LIG1        0.2548
     41 H           1.5675    4.1743    8.3915 H       1  LIG1        0.2549
     42 H           4.4686    4.1943    0.2728 H       1  LIG1        0.3506
@<TRIPOS>BOND
     1     1     5   ar
     2     1     9   ar
     3     2     6   ar
     4     2     9   ar
     5     3     7   ar
     6     3    10   ar
     7     4     8   ar
     8     4    10   ar
     9     5    11   ar
    10     6    11   ar
    11     7    12   ar
    12     8    12   ar
    13     9    14    1
    14    10    16    1
    15    11    21    1
    16    12    24    1
    17    13    15    1
    18    13    18    1
    19    13    19    2
    20    14    20   am
    21    14    22    2
    22    15    16    1
    23    16    20    1
    24    16    23    1
    25    17    18    1
    26    19    20    1
    27     1    25    1
    28     2    26    1
    29     3    27    1
    30     4    28    1
    31     5    29    1
    32     6    30    1
    33     7    31    1
    34     8    32    1
    35    15    33    1
    36    15    34    1
    37    17    35    1
    38    17    36    1
    39    17    37    1
    40    18    38    1
    41    18    39    1
    42    21    40    1
    43    21    41    1
    44    23    42    1
