@<TRIPOS>MOLECULE
AQ-344/43100207
 46 51 0 0 0
SMALL
USER_CHARGES

@<TRIPOS>ATOM
      1 C           0.0495    0.7798   -2.0977 C.ar    1  LIG1       -0.1074
      2 C           2.2026    7.4706   -2.5768 C.ar    1  LIG1       -0.1037
      3 C           1.4205    0.5298   -2.0393 C.ar    1  LIG1       -0.1020
      4 C          -0.4996    1.8309   -1.3634 C.ar    1  LIG1       -0.1045
      5 C           3.3417    6.7236   -2.2764 C.ar    1  LIG1       -0.0930
      6 C           1.0286    7.2752   -1.8495 C.ar    1  LIG1       -0.1032
      7 C           1.3463    7.9744    4.0104 C.ar    1  LIG1       -0.0918
      8 C           1.9228    3.7129    6.3112 C.ar    1  LIG1       -0.0923
      9 C           1.3281    7.3007    5.2489 C.ar    1  LIG1       -0.0861
     10 C           1.6516    5.0921    6.4450 C.ar    1  LIG1       -0.0862
     11 C           2.2424    1.3308   -1.2465 C.ar    1  LIG1       -0.0851
     12 C           0.3222    2.6319   -0.5706 C.ar    1  LIG1       -0.0901
     13 C           1.6321    7.2995    2.8096 C.ar    1  LIG1       -0.0817
     14 C           2.1127    3.1225    5.0513 C.ar    1  LIG1       -0.0838
     15 C           3.3066    5.7812   -1.2486 C.ar    1  LIG1       -0.0677
     16 C           0.9935    6.3327   -0.8217 C.ar    1  LIG1       -0.0827
     17 C           1.5868    5.9189    5.3051 C.ar    1  LIG1       -0.0776
     18 C           1.8148    5.2930    4.0817 C.ar    1  LIG1       -0.0631
     19 C           1.6933    2.3819   -0.5122 C.ar    1  LIG1       -0.0493
     20 C           1.8425    5.9352    2.8487 C.ar    1  LIG1       -0.0615
     21 C           2.0609    3.9375    3.9404 C.ar    1  LIG1       -0.0550
     22 C           2.1324    5.5857   -0.5213 C.ar    1  LIG1       -0.0532
     23 C           2.4260    4.9755    1.8621 C.3     1  LIG1        0.0336
     24 C           1.9622    3.6337    2.4828 C.3     1  LIG1        0.0625
     25 C           2.5829    3.2499    0.3470 C.3     1  LIG1        0.0717
     26 N           2.0975    4.6557    0.4932 N.pl3   1  LIG1       -0.3530
     27 O           2.6735    2.6818    1.7082 O.3     1  LIG1       -0.4051
     28 H          -0.5901    0.1569   -2.7161 H       1  LIG1        0.1160
     29 H           2.2301    8.2043   -3.3773 H       1  LIG1        0.1184
     30 H           1.8485   -0.2879   -2.6119 H       1  LIG1        0.1147
     31 H          -1.5668    2.0265   -1.4094 H       1  LIG1        0.1151
     32 H           4.2556    6.8758   -2.8427 H       1  LIG1        0.1229
     33 H           0.1416    7.8570   -2.0836 H       1  LIG1        0.1182
     34 H           1.1675    9.0467    3.9874 H       1  LIG1        0.1226
     35 H           1.9478    3.0889    7.2013 H       1  LIG1        0.1225
     36 H           1.1102    7.8572    6.1568 H       1  LIG1        0.1325
     37 H           1.4827    5.5085    7.4351 H       1  LIG1        0.1323
     38 H           3.3095    1.1285   -1.2070 H       1  LIG1        0.1320
     39 H          -0.1145    3.4486   -0.0018 H       1  LIG1        0.1203
     40 H           1.7321    7.8560    1.8813 H       1  LIG1        0.1284
     41 H           2.2513    2.0505    4.9590 H       1  LIG1        0.1323
     42 H           4.1995    5.2042   -1.0225 H       1  LIG1        0.1387
     43 H           0.0729    6.1892   -0.2616 H       1  LIG1        0.1132
     44 H           3.5372    5.0457    1.9375 H       1  LIG1        0.0975
     45 H           0.8910    3.4376    2.3056 H       1  LIG1        0.1576
     46 H           3.6179    3.2160   -0.0591 H       1  LIG1        0.1764
@<TRIPOS>BOND
     1     1     3   ar
     2     1     4   ar
     3     2     5   ar
     4     2     6   ar
     5     3    11   ar
     6     4    12   ar
     7     5    15   ar
     8     6    16   ar
     9     7     9   ar
    10     7    13   ar
    11     8    10   ar
    12     8    14   ar
    13     9    17   ar
    14    10    17   ar
    15    11    19   ar
    16    12    19   ar
    17    13    20   ar
    18    14    21   ar
    19    15    22   ar
    20    16    22   ar
    21    17    18   ar
    22    18    20   ar
    23    18    21   ar
    24    19    25    1
    25    20    23    1
    26    21    24    1
    27    22    26    1
    28    23    24    1
    29    23    26    1
    30    24    27    1
    31    25    26    1
    32    25    27    1
    33     1    28    1
    34     2    29    1
    35     3    30    1
    36     4    31    1
    37     5    32    1
    38     6    33    1
    39     7    34    1
    40     8    35    1
    41     9    36    1
    42    10    37    1
    43    11    38    1
    44    12    39    1
    45    13    40    1
    46    14    41    1
    47    15    42    1
    48    16    43    1
    49    23    44    1
    50    24    45    1
    51    25    46    1
