@<TRIPOS>MOLECULE
AE-641/30102045
 25 27 0 0 0
SMALL
USER_CHARGES

@<TRIPOS>ATOM
      1 C           1.8497    7.4608   -2.3333 C.ar    1  LIG1       -0.1056
      2 C           3.0095    6.7138   -2.5104 C.ar    1  LIG1       -0.0990
      3 C           0.8946    7.0523   -1.4048 C.ar    1  LIG1       -0.1014
      4 C           3.2193    5.5585   -1.7565 C.ar    1  LIG1       -0.0807
      5 C           2.1578    1.6449   -1.2905 C.ar    1  LIG1       -0.0984
      6 C           1.1947    0.8189   -1.8166 C.ar    1  LIG1       -0.0482
      7 C           1.0935    5.8948   -0.6355 C.ar    1  LIG1       -0.0797
      8 C           2.2746    5.1362   -0.8050 C.ar    1  LIG1       -0.0560
      9 C           1.6196    2.8276   -0.6655 C.ar    1  LIG1       -0.0669
     10 C           0.2302    2.8387   -0.7684 C.ar    1  LIG1       -0.0038
     11 C           0.0287    5.4553    0.3360 C.3     1  LIG1        0.0252
     12 C           2.4822    3.8697    0.0029 C.3     1  LIG1        0.0199
     13 O           3.8640    3.5158    0.0651 O.3     1  LIG1       -0.4693
     14 S          -0.3682    1.4413   -1.5749 S.2     1  LIG1       -0.1339
     15 S          -0.9474    4.0446   -0.2352 S.3     1  LIG1       -0.1613
     16 H           1.6902    8.3635   -2.9159 H       1  LIG1        0.1199
     17 H           3.7548    7.0309   -3.2351 H       1  LIG1        0.1226
     18 H          -0.0059    7.6474   -1.2831 H       1  LIG1        0.1133
     19 H           4.1309    4.9904   -1.9181 H       1  LIG1        0.1310
     20 H           3.2144    1.4177   -1.3506 H       1  LIG1        0.1134
     21 H           1.3429   -0.1196   -2.3329 H       1  LIG1        0.1745
     22 H           0.4965    5.1508    1.2807 H       1  LIG1        0.1059
     23 H          -0.6282    6.2844    0.6136 H       1  LIG1        0.1274
     24 H           2.1570    4.0344    1.0178 H       1  LIG1        0.1239
     25 H           4.3231    4.2586    0.4884 H       1  LIG1        0.3272
@<TRIPOS>BOND
     1     1     2   ar
     2     1     3   ar
     3     2     4   ar
     4     3     7   ar
     5     4     8   ar
     6     5     6   ar
     7     5     9   ar
     8     6    14   ar
     9     7     8   ar
    10     7    11    1
    11     8    12    1
    12     9    10   ar
    13     9    12    1
    14    10    14   ar
    15    10    15    1
    16    11    15    1
    17    12    13    1
    18     1    16    1
    19     2    17    1
    20     3    18    1
    21     4    19    1
    22     5    20    1
    23     6    21    1
    24    11    22    1
    25    11    23    1
    26    12    24    1
    27    13    25    1
