@<TRIPOS>MOLECULE
AN-329/10867052
 41 43 0 0 0
SMALL
USER_CHARGES

@<TRIPOS>ATOM
      1 C           0.3109    0.6168   -2.1513 C.ar    1  LIG1       -0.1052
      2 C           2.1520    7.5526   -1.8841 C.ar    1  LIG1       -0.1062
      3 C           1.6301    0.9920   -2.4051 C.ar    1  LIG1       -0.1045
      4 C          -0.4159    1.2577   -1.1481 C.ar    1  LIG1       -0.1022
      5 C           3.0939    6.5793   -2.2175 C.ar    1  LIG1       -0.1019
      6 C           1.2029    7.2950   -0.8949 C.ar    1  LIG1       -0.1045
      7 C           1.5088    4.8189    6.3966 C.ar    1  LIG1       -0.1008
      8 C           0.8577    5.5313    5.3895 C.ar    1  LIG1       -0.0952
      9 C           2.2226    2.0083   -1.6556 C.ar    1  LIG1       -0.0983
     10 C           0.1766    2.2740   -0.3985 C.ar    1  LIG1       -0.0942
     11 C           3.0867    5.3482   -1.5615 C.ar    1  LIG1       -0.0926
     12 C           1.1957    6.0640   -0.2390 C.ar    1  LIG1       -0.0957
     13 C           2.5419    3.9395    6.0726 C.ar    1  LIG1       -0.0940
     14 C           1.2398    5.3643    4.0585 C.ar    1  LIG1       -0.0591
     15 C           1.4958    2.6493   -0.6523 C.ar    1  LIG1       -0.0692
     16 C           2.1376    5.0906   -0.5724 C.ar    1  LIG1       -0.0661
     17 C           2.9239    3.7724    4.7415 C.ar    1  LIG1       -0.0719
     18 C           2.2729    4.4849    3.7345 C.ar    1  LIG1        0.0221
     19 C           1.6006    3.8655    1.5900 C.2     1  LIG1        0.1910
     20 C           4.0314    2.8267    4.4132 C.3     1  LIG1       -0.0346
     21 C           2.1289    3.7358    0.1497 C.3     1  LIG1        0.1040
     22 O           0.4571    3.6325    1.9617 O.2     1  LIG1       -0.4365
     23 O           2.6422    4.3290    2.3965 O.3     1  LIG1       -0.3031
     24 H          -0.1507   -0.1736   -2.7360 H       1  LIG1        0.1178
     25 H           2.1586    8.5116   -2.3940 H       1  LIG1        0.1169
     26 H           2.1958    0.4938   -3.1870 H       1  LIG1        0.1181
     27 H          -1.4434    0.9665   -0.9510 H       1  LIG1        0.1197
     28 H           3.8336    6.7801   -2.9869 H       1  LIG1        0.1166
     29 H           0.4702    8.0529   -0.6343 H       1  LIG1        0.1168
     30 H           1.2113    4.9482    7.4333 H       1  LIG1        0.1227
     31 H           0.0529    6.2152    5.6422 H       1  LIG1        0.1237
     32 H           3.2510    2.2939   -1.8602 H       1  LIG1        0.1142
     33 H          -0.3973    2.7677    0.3813 H       1  LIG1        0.1240
     34 H           3.8242    4.5957   -1.8279 H       1  LIG1        0.1222
     35 H           0.4524    5.8721    0.5303 H       1  LIG1        0.1209
     36 H           3.0419    3.3878    6.8644 H       1  LIG1        0.1252
     37 H           0.7289    5.9220    3.2783 H       1  LIG1        0.1303
     38 H           3.6322    1.8222    4.2298 H       1  LIG1        0.0585
     39 H           4.5803    3.1526    3.5209 H       1  LIG1        0.0592
     40 H           4.7597    2.7688    5.2319 H       1  LIG1        0.0550
     41 H           3.1953    3.4788    0.3246 H       1  LIG1        0.1571
@<TRIPOS>BOND
     1     1     3   ar
     2     1     4   ar
     3     2     5   ar
     4     2     6   ar
     5     3     9   ar
     6     4    10   ar
     7     5    11   ar
     8     6    12   ar
     9     7     8   ar
    10     7    13   ar
    11     8    14   ar
    12     9    15   ar
    13    10    15   ar
    14    11    16   ar
    15    12    16   ar
    16    13    17   ar
    17    14    18   ar
    18    15    21    1
    19    16    21    1
    20    17    18   ar
    21    17    20    1
    22    18    23    1
    23    19    21    1
    24    19    22    2
    25    19    23    1
    26     1    24    1
    27     2    25    1
    28     3    26    1
    29     4    27    1
    30     5    28    1
    31     6    29    1
    32     7    30    1
    33     8    31    1
    34     9    32    1
    35    10    33    1
    36    11    34    1
    37    12    35    1
    38    13    36    1
    39    14    37    1
    40    20    38    1
    41    20    39    1
    42    20    40    1
    43    21    41    1
