@<TRIPOS>MOLECULE
AN-652/12865159
 41 42 0 0 0
SMALL
USER_CHARGES

@<TRIPOS>ATOM
      1 C           0.5966    4.7383    6.2024 C.ar    1  LIG1       -0.1096
      2 C           2.1771    7.7568   -2.2325 C.ar    1  LIG1       -0.1096
      3 C           0.7727    5.4827    5.0360 C.ar    1  LIG1       -0.1082
      4 C           1.5438    3.7823    6.5692 C.ar    1  LIG1       -0.1082
      5 C           1.6866    7.6719   -0.9295 C.ar    1  LIG1       -0.1041
      6 C           2.5119    6.5955   -2.9288 C.ar    1  LIG1       -0.1081
      7 C           1.8957    5.2711    4.2364 C.ar    1  LIG1       -0.1060
      8 C           2.6670    3.5706    5.7695 C.ar    1  LIG1       -0.1059
      9 C           1.5313    6.4255   -0.3226 C.ar    1  LIG1       -0.0952
     10 C           2.3567    5.3492   -2.3220 C.ar    1  LIG1       -0.1002
     11 C           2.8430    4.3150    4.6032 C.ar    1  LIG1       -0.1104
     12 C           1.8664    5.2642   -1.0189 C.ar    1  LIG1       -0.0802
     13 C           2.9798    3.5137    0.3821 C.2     1  LIG1        0.0772
     14 C           1.1203    1.4390   -0.6999 C.3     1  LIG1       -0.0661
     15 C           4.0581    4.0854    3.7385 C.3     1  LIG1       -0.0253
     16 C           1.2872    2.8040   -1.3559 C.3     1  LIG1       -0.0379
     17 C           3.8348    3.0194    2.6686 C.3     1  LIG1       -0.0285
     18 C           1.6977    3.9064   -0.3584 C.3     1  LIG1        0.0578
     19 N           2.7781    3.3706    1.7479 N.am    1  LIG1       -0.3574
     20 O           4.0572    3.3615   -0.1899 O.2     1  LIG1       -0.4872
     21 H          -0.2773    4.9042    6.8257 H       1  LIG1        0.1135
     22 H           2.2966    8.7273   -2.7053 H       1  LIG1        0.1124
     23 H           0.0358    6.2280    4.7508 H       1  LIG1        0.1147
     24 H           1.4076    3.2032    7.4778 H       1  LIG1        0.1148
     25 H           1.4248    8.5760   -0.3876 H       1  LIG1        0.1138
     26 H           2.8928    6.6612   -3.9437 H       1  LIG1        0.1128
     27 H           2.0245    5.8557    3.3293 H       1  LIG1        0.1159
     28 H           3.3996    2.8235    6.0631 H       1  LIG1        0.1159
     29 H           1.1488    6.3690    0.6931 H       1  LIG1        0.1196
     30 H           2.6203    4.4497   -2.8720 H       1  LIG1        0.1155
     31 H           0.3550    1.4895    0.0813 H       1  LIG1        0.0341
     32 H           0.8068    0.6873   -1.4314 H       1  LIG1        0.0324
     33 H           2.0504    1.1009   -0.2332 H       1  LIG1        0.0353
     34 H           4.8922    3.7822    4.3838 H       1  LIG1        0.0747
     35 H           4.3653    5.0302    3.2719 H       1  LIG1        0.0748
     36 H           2.0591    2.7175   -2.1316 H       1  LIG1        0.0517
     37 H           0.3590    3.0665   -1.8780 H       1  LIG1        0.0524
     38 H           4.7440    2.8933    2.0723 H       1  LIG1        0.0970
     39 H           3.5795    2.0507    3.1105 H       1  LIG1        0.0976
     40 H           0.9032    3.9687    0.3990 H       1  LIG1        0.1207
     41 H           1.8439    3.5199    2.1175 H       1  LIG1        0.2936
@<TRIPOS>BOND
     1     1     3   ar
     2     1     4   ar
     3     2     5   ar
     4     2     6   ar
     5     3     7   ar
     6     4     8   ar
     7     5     9   ar
     8     6    10   ar
     9     7    11   ar
    10     8    11   ar
    11     9    12   ar
    12    10    12   ar
    13    11    15    1
    14    12    18    1
    15    13    18    1
    16    13    19   am
    17    13    20    2
    18    14    16    1
    19    15    17    1
    20    16    18    1
    21    17    19    1
    22     1    21    1
    23     2    22    1
    24     3    23    1
    25     4    24    1
    26     5    25    1
    27     6    26    1
    28     7    27    1
    29     8    28    1
    30     9    29    1
    31    10    30    1
    32    14    31    1
    33    14    32    1
    34    14    33    1
    35    15    34    1
    36    15    35    1
    37    16    36    1
    38    16    37    1
    39    17    38    1
    40    17    39    1
    41    18    40    1
    42    19    41    1
