@<TRIPOS>MOLECULE
AE-641/30116062
 44 46 0 0 0
SMALL
USER_CHARGES

@<TRIPOS>ATOM
      1 C           0.6674    0.3664   -1.9932 C.ar    1  LIG1       -0.1054
      2 C          -0.4232    1.1080   -1.5556 C.ar    1  LIG1       -0.1023
      3 C           1.4573    7.6929   -1.3076 C.ar    1  LIG1       -0.0989
      4 C           2.5270    7.6608   -2.1831 C.ar    1  LIG1       -0.0974
      5 C           1.9592    0.8466   -1.7875 C.ar    1  LIG1       -0.0973
      6 C          -0.2207    2.3273   -0.9096 C.ar    1  LIG1       -0.0858
      7 C           1.0918    6.5315   -0.6310 C.ar    1  LIG1       -0.0838
      8 C           3.2246    6.4688   -2.3718 C.ar    1  LIG1       -0.0831
      9 C           2.1764    2.0721   -1.1352 C.ar    1  LIG1       -0.0768
     10 C           1.0768    2.8244   -0.6876 C.ar    1  LIG1       -0.0542
     11 C           1.7757    5.3014   -0.8092 C.ar    1  LIG1       -0.0474
     12 C           2.8762    5.2765   -1.6930 C.ar    1  LIG1       -0.0466
     13 C           1.6835    4.7481    2.4083 C.2     1  LIG1        0.1942
     14 C           3.5754    2.5864   -0.9722 C.3     1  LIG1        0.0157
     15 C           1.2487    4.1472    0.0311 C.3     1  LIG1        0.0329
     16 C           0.8124    3.5921    4.8689 C.3     1  LIG1       -0.0370
     17 C           3.1330    4.0722    5.7018 C.3     1  LIG1       -0.0329
     18 C           1.6406    5.9653    4.9970 C.3     1  LIG1       -0.0371
     19 C           2.0279    4.5094    4.7427 C.3     1  LIG1        0.0115
     20 N           1.9756    4.0193    1.2767 N.am    1  LIG1       -0.2958
     21 O           0.7915    5.5833    2.5144 O.2     1  LIG1       -0.4571
     22 O           2.5443    4.4008    3.4113 O.3     1  LIG1       -0.3368
     23 S           3.9473    3.9060   -2.1510 S.3     1  LIG1       -0.1913
     24 H           0.5140   -0.5822   -2.4990 H       1  LIG1        0.1182
     25 H          -1.4321    0.7397   -1.7163 H       1  LIG1        0.1205
     26 H           0.9072    8.6147   -1.1464 H       1  LIG1        0.1220
     27 H           2.8241    8.5568   -2.7191 H       1  LIG1        0.1248
     28 H           2.8006    0.2591   -2.1476 H       1  LIG1        0.1137
     29 H          -1.0902    2.8891   -0.5762 H       1  LIG1        0.1207
     30 H           0.2488    6.5931    0.0560 H       1  LIG1        0.1200
     31 H           4.0619    6.4876   -3.0694 H       1  LIG1        0.1278
     32 H           3.7908    2.9052    0.0502 H       1  LIG1        0.1159
     33 H           4.2897    1.7777   -1.1673 H       1  LIG1        0.1073
     34 H           0.2441    4.4296    0.3747 H       1  LIG1        0.1561
     35 H           0.0169    3.9026    4.1820 H       1  LIG1        0.0381
     36 H           1.0696    2.5497    4.6546 H       1  LIG1        0.0462
     37 H           0.3871    3.6432    5.8778 H       1  LIG1        0.0588
     38 H           4.0071    4.7275    5.6145 H       1  LIG1        0.0524
     39 H           3.4804    3.0607    5.4620 H       1  LIG1        0.0629
     40 H           2.7930    4.0844    6.7424 H       1  LIG1        0.0525
     41 H           2.5122    6.6235    4.9065 H       1  LIG1        0.0587
     42 H           0.8746    6.3077    4.2937 H       1  LIG1        0.0463
     43 H           1.2600    6.0949    6.0167 H       1  LIG1        0.0379
     44 H           2.7420    3.3568    1.3181 H       1  LIG1        0.3118
@<TRIPOS>BOND
     1     1     2   ar
     2     1     5   ar
     3     2     6   ar
     4     3     4   ar
     5     3     7   ar
     6     4     8   ar
     7     5     9   ar
     8     6    10   ar
     9     7    11   ar
    10     8    12   ar
    11     9    10   ar
    12     9    14    1
    13    10    15    1
    14    11    12   ar
    15    11    15    1
    16    12    23    1
    17    13    20   am
    18    13    21    2
    19    13    22    1
    20    14    23    1
    21    15    20    1
    22    16    19    1
    23    17    19    1
    24    18    19    1
    25    19    22    1
    26     1    24    1
    27     2    25    1
    28     3    26    1
    29     4    27    1
    30     5    28    1
    31     6    29    1
    32     7    30    1
    33     8    31    1
    34    14    32    1
    35    14    33    1
    36    15    34    1
    37    16    35    1
    38    16    36    1
    39    16    37    1
    40    17    38    1
    41    17    39    1
    42    17    40    1
    43    18    41    1
    44    18    42    1
    45    18    43    1
    46    20    44    1
