@<TRIPOS>MOLECULE
AG-670/34887026
 43 44 0 0 0
SMALL
USER_CHARGES

@<TRIPOS>ATOM
      1 C           2.7469    3.2955    2.4349 C.1     1  LIG1       -0.1707
      2 C           3.3099    2.5288    3.1678 C.1     1  LIG1       -0.2270
      3 C           0.2296    0.7156   -1.7871 C.ar    1  LIG1       -0.1068
      4 C           1.9785    7.5832   -2.3120 C.ar    1  LIG1       -0.1044
      5 C          -0.4396    1.8666   -1.3709 C.ar    1  LIG1       -0.1053
      6 C           1.6107    0.6131   -1.6205 C.ar    1  LIG1       -0.1020
      7 C           1.0810    7.2983   -1.2830 C.ar    1  LIG1       -0.1026
      8 C           3.0243    6.7027   -2.5891 C.ar    1  LIG1       -0.1048
      9 C           0.2724    2.9151   -0.7882 C.ar    1  LIG1       -0.0930
     10 C           2.3226    1.6615   -1.0378 C.ar    1  LIG1       -0.0867
     11 C           1.2292    6.1329   -0.5310 C.ar    1  LIG1       -0.0952
     12 C           3.1724    5.5373   -1.8372 C.ar    1  LIG1       -0.0993
     13 C           1.6536    2.8125   -0.6216 C.ar    1  LIG1       -0.0637
     14 C           2.2749    5.2523   -0.8081 C.ar    1  LIG1       -0.0740
     15 C           6.0569    0.1859    4.2353 C.3     1  LIG1       -0.0844
     16 C           4.9825    0.5232    2.0143 C.3     1  LIG1       -0.0858
     17 C           2.0806    4.2367    1.5124 C.3     1  LIG1        0.0492
     18 C           4.0120    1.5941    4.0421 C.3     1  LIG1       -0.0514
     19 C           2.4390    3.9679    0.0203 C.3     1  LIG1        0.0329
     20 N           5.2502    1.1245    3.3720 N.4     1  LIG1        0.4120
     21 O           3.8194    3.5509    0.0321 O.3     1  LIG1       -0.4602
     22 H          -0.3252   -0.1012   -2.2396 H       1  LIG1        0.1174
     23 H           1.8622    8.4901   -2.8983 H       1  LIG1        0.1203
     24 H          -1.5151    1.9462   -1.4995 H       1  LIG1        0.1170
     25 H           2.1318   -0.2833   -1.9433 H       1  LIG1        0.1171
     26 H           0.2660    7.9833   -1.0678 H       1  LIG1        0.1201
     27 H           3.7226    6.9237   -3.3908 H       1  LIG1        0.1189
     28 H          -0.2573    3.8081   -0.4672 H       1  LIG1        0.1161
     29 H           3.3985    1.5729   -0.9121 H       1  LIG1        0.1307
     30 H           0.5252    5.9191    0.2689 H       1  LIG1        0.1255
     31 H           3.9903    4.8571   -2.0602 H       1  LIG1        0.1150
     32 H           5.4462   -0.6980    4.4284 H       1  LIG1        0.0834
     33 H           6.9640   -0.0756    3.6873 H       1  LIG1        0.0823
     34 H           6.2959    0.7082    5.1636 H       1  LIG1        0.0816
     35 H           4.3473   -0.3530    2.1566 H       1  LIG1        0.0816
     36 H           4.4794    1.2785    1.4076 H       1  LIG1        0.0805
     37 H           5.9433    0.2445    1.5770 H       1  LIG1        0.0776
     38 H           2.3515    5.2566    1.8111 H       1  LIG1        0.1261
     39 H           0.9966    4.1360    1.6569 H       1  LIG1        0.1236
     40 H           4.3196    2.0625    4.9807 H       1  LIG1        0.1392
     41 H           3.4133    0.7049    4.2572 H       1  LIG1        0.1396
     42 H           5.8519    1.9493    3.2062 H       1  LIG1        0.1717
     43 H           4.0543    3.4054   -0.8926 H       1  LIG1        0.3379
@<TRIPOS>BOND
     1     1     2    3
     2     1    17    1
     3     2    18    1
     4     3     5   ar
     5     3     6   ar
     6     4     7   ar
     7     4     8   ar
     8     5     9   ar
     9     6    10   ar
    10     7    11   ar
    11     8    12   ar
    12     9    13   ar
    13    10    13   ar
    14    11    14   ar
    15    12    14   ar
    16    13    19    1
    17    14    19    1
    18    15    20    1
    19    16    20    1
    20    17    19    1
    21    18    20    1
    22    19    21    1
    23     3    22    1
    24     4    23    1
    25     5    24    1
    26     6    25    1
    27     7    26    1
    28     8    27    1
    29     9    28    1
    30    10    29    1
    31    11    30    1
    32    12    31    1
    33    15    32    1
    34    15    33    1
    35    15    34    1
    36    16    35    1
    37    16    36    1
    38    16    37    1
    39    17    38    1
    40    17    39    1
    41    18    40    1
    42    18    41    1
    43    20    42    1
    44    21    43    1
