@<TRIPOS>MOLECULE
AE-641/30156011
 48 52 0 0 0
SMALL
USER_CHARGES

@<TRIPOS>ATOM
      1 C           0.2718    0.6572   -2.1037 C.ar    1  LIG1       -0.1015
      2 C          -0.4889    1.3889   -1.1972 C.ar    1  LIG1       -0.0985
      3 C           1.6012    1.0048   -2.3362 C.ar    1  LIG1       -0.0999
      4 C           0.0797    2.4663   -0.5172 C.ar    1  LIG1       -0.0888
      5 C           2.7858    6.4589   -2.9209 C.ar    1  LIG1       -0.0729
      6 C           2.0663    7.5805   -2.5133 C.ar    1  LIG1       -0.0710
      7 C           1.3545    6.3780   -0.5595 C.ar    1  LIG1       -0.0647
      8 C           2.1857    2.0832   -1.6555 C.ar    1  LIG1       -0.0891
      9 C           1.4232    2.8170   -0.7261 C.ar    1  LIG1       -0.0630
     10 C           2.0858    5.2302   -0.9419 C.ar    1  LIG1       -0.0457
     11 C           2.8084    5.2691   -2.1585 C.ar    1  LIG1       -0.0470
     12 C           1.3457    7.5383   -1.3322 C.ar    1  LIG1       -0.0305
     13 C           3.6105    2.4704   -1.9337 C.3     1  LIG1        0.0144
     14 C           2.5739    5.4480    3.5902 C.3     1  LIG1       -0.0622
     15 C           3.6469    3.2498    4.0587 C.3     1  LIG1       -0.0625
     16 C           1.4330    5.1225    4.5550 C.3     1  LIG1       -0.0983
     17 C           2.5432    2.9518    5.0760 C.3     1  LIG1       -0.0984
     18 C           0.8505    3.0787    3.2473 C.3     1  LIG1       -0.0703
     19 C           2.0551    4.0085   -0.0361 C.3     1  LIG1        0.0539
     20 C           3.1112    4.1583    2.9406 C.3     1  LIG1       -0.0383
     21 C           1.9512    3.4226    2.2391 C.3     1  LIG1       -0.0040
     22 N           1.2655    3.6183    4.6045 N.4     1  LIG1        0.4077
     23 O           1.4015    4.2375    1.2168 O.3     1  LIG1       -0.4368
     24 S           3.7808    3.9690   -2.9472 S.3     1  LIG1       -0.1875
     25 BR          0.3529    9.0458   -0.7719 Br      1  LIG1       -0.0952
     26 H          -0.1687   -0.1872   -2.6264 H       1  LIG1        0.1251
     27 H          -1.5265    1.1204   -1.0177 H       1  LIG1        0.1265
     28 H           2.1799    0.4229   -3.0478 H       1  LIG1        0.1170
     29 H          -0.5382    3.0295    0.1757 H       1  LIG1        0.1297
     30 H           3.3343    6.5314   -3.8586 H       1  LIG1        0.1422
     31 H           2.0809    8.4740   -3.1319 H       1  LIG1        0.1475
     32 H           0.7777    6.3627    0.3627 H       1  LIG1        0.1440
     33 H           4.1280    2.6738   -0.9788 H       1  LIG1        0.1033
     34 H           4.1906    1.6403   -2.3696 H       1  LIG1        0.1233
     35 H           2.2242    6.1533    2.8273 H       1  LIG1        0.0752
     36 H           3.3788    5.9602    4.1315 H       1  LIG1        0.0698
     37 H           4.4955    3.7254    4.5647 H       1  LIG1        0.0701
     38 H           4.0257    2.3108    3.6373 H       1  LIG1        0.0745
     39 H           1.6425    5.4650    5.5736 H       1  LIG1        0.0887
     40 H           0.4791    5.5479    4.2264 H       1  LIG1        0.0894
     41 H           2.3420    1.8793    5.1657 H       1  LIG1        0.0906
     42 H           2.7755    3.3534    6.0678 H       1  LIG1        0.0885
     43 H          -0.1222    3.5181    3.0023 H       1  LIG1        0.0972
     44 H           0.7334    1.9963    3.3658 H       1  LIG1        0.0939
     45 H           3.0591    3.7256    0.2011 H       1  LIG1        0.1636
     46 H           3.9016    4.4093    2.2249 H       1  LIG1        0.0948
     47 H           2.3095    2.5037    1.7609 H       1  LIG1        0.1275
     48 H           0.5202    3.3989    5.2790 H       1  LIG1        0.1678
@<TRIPOS>BOND
     1     1     2   ar
     2     1     3   ar
     3     2     4   ar
     4     3     8   ar
     5     4     9   ar
     6     5     6   ar
     7     5    11   ar
     8     6    12   ar
     9     7    10   ar
    10     7    12   ar
    11     8     9   ar
    12     8    13    1
    13     9    19    1
    14    10    11   ar
    15    10    19    1
    16    11    24    1
    17    12    25    1
    18    13    24    1
    19    14    16    1
    20    14    20    1
    21    15    17    1
    22    15    20    1
    23    16    22    1
    24    17    22    1
    25    18    21    1
    26    18    22    1
    27    19    23    1
    28    20    21    1
    29    21    23    1
    30     1    26    1
    31     2    27    1
    32     3    28    1
    33     4    29    1
    34     5    30    1
    35     6    31    1
    36     7    32    1
    37    13    33    1
    38    13    34    1
    39    14    35    1
    40    14    36    1
    41    15    37    1
    42    15    38    1
    43    16    39    1
    44    16    40    1
    45    17    41    1
    46    17    42    1
    47    18    43    1
    48    18    44    1
    49    19    45    1
    50    20    46    1
    51    21    47    1
    52    22    48    1
