@<TRIPOS>MOLECULE
AK-968/12163368
 45 48 0 0 0
SMALL
USER_CHARGES

@<TRIPOS>ATOM
      1 C           1.2230    0.4016   -0.8098 C.ar    1  LIG1       -0.0999
      2 C           3.0711    7.4762   -1.3294 C.ar    1  LIG1       -0.0973
      3 C          -0.0444    0.7841   -1.2436 C.ar    1  LIG1       -0.0900
      4 C           1.7630    7.7037   -1.7511 C.ar    1  LIG1       -0.0911
      5 C           2.1930    1.3701   -0.5480 C.ar    1  LIG1       -0.0951
      6 C           3.4558    6.2044   -0.9033 C.ar    1  LIG1       -0.0873
      7 C           0.7260    4.6539    3.7399 C.ar    1  LIG1       -0.0664
      8 C           3.0561    4.0740    4.0077 C.ar    1  LIG1       -0.0639
      9 C          -0.3416    2.1343   -1.4204 C.ar    1  LIG1       -0.0495
     10 C           0.8402    6.6592   -1.7521 C.ar    1  LIG1       -0.0510
     11 C           0.6003    4.7874    5.1225 C.ar    1  LIG1       -0.0625
     12 C           2.9304    4.2075    5.3904 C.ar    1  LIG1       -0.0538
     13 C           1.9045    2.7323   -0.7190 C.ar    1  LIG1       -0.0353
     14 C           2.5350    5.1460   -0.8960 C.ar    1  LIG1       -0.0281
     15 C           1.9540    4.2972    3.1823 C.ar    1  LIG1       -0.0550
     16 C           0.6317    3.1043   -1.1644 C.ar    1  LIG1        0.0222
     17 C           1.2270    5.3836   -1.3312 C.ar    1  LIG1        0.0248
     18 C           1.7024    4.5642    5.9479 C.ar    1  LIG1       -0.0137
     19 C           3.2207    3.8153    1.0641 C.2     1  LIG1        0.1074
     20 C           2.9429    3.7793   -0.4107 C.3     1  LIG1        0.0930
     21 C           3.1890    6.4561    7.5003 C.3     1  LIG1       -0.0350
     22 C           2.7402    5.1062    8.0179 C.3     1  LIG1        0.0123
     23 N           2.0817    4.1618    1.7796 N.am    1  LIG1       -0.3149
     24 O           4.3379    3.5553    1.4993 O.2     1  LIG1       -0.4679
     25 O           0.2568    4.4101   -1.3768 O.3     1  LIG1       -0.3564
     26 O           1.5797    4.6944    7.2971 O.3     1  LIG1       -0.4206
     27 H           1.4560   -0.6504   -0.6731 H       1  LIG1        0.1210
     28 H           3.7910    8.2893   -1.3297 H       1  LIG1        0.1189
     29 H          -0.8000    0.0306   -1.4456 H       1  LIG1        0.1353
     30 H           1.4628    8.6941   -2.0806 H       1  LIG1        0.1332
     31 H           3.1762    1.0563   -0.2058 H       1  LIG1        0.1257
     32 H           4.4790    6.0437   -0.5726 H       1  LIG1        0.1308
     33 H          -0.1395    4.8303    3.1062 H       1  LIG1        0.1453
     34 H           4.0179    3.7956    3.5844 H       1  LIG1        0.1358
     35 H          -1.3313    2.4244   -1.7631 H       1  LIG1        0.1370
     36 H          -0.1774    6.8438   -2.0862 H       1  LIG1        0.1342
     37 H          -0.3589    5.0655    5.5508 H       1  LIG1        0.1161
     38 H           3.7925    4.0323    6.0282 H       1  LIG1        0.1330
     39 H           3.8703    3.4987   -0.9271 H       1  LIG1        0.1484
     40 H           3.4392    6.4029    6.4371 H       1  LIG1        0.0480
     41 H           2.4023    7.2046    7.6413 H       1  LIG1        0.0568
     42 H           4.0664    6.8088    8.0525 H       1  LIG1        0.0480
     43 H           2.4915    5.1664    9.0816 H       1  LIG1        0.0941
     44 H           3.5270    4.3593    7.8755 H       1  LIG1        0.0939
     45 H           1.2339    4.3408    1.2454 H       1  LIG1        0.3190
@<TRIPOS>BOND
     1     1     3   ar
     2     1     5   ar
     3     2     4   ar
     4     2     6   ar
     5     3     9   ar
     6     4    10   ar
     7     5    13   ar
     8     6    14   ar
     9     7    11   ar
    10     7    15   ar
    11     8    12   ar
    12     8    15   ar
    13     9    16   ar
    14    10    17   ar
    15    11    18   ar
    16    12    18   ar
    17    13    16   ar
    18    13    20    1
    19    14    17   ar
    20    14    20    1
    21    15    23    1
    22    16    25    1
    23    17    25    1
    24    18    26    1
    25    19    20    1
    26    19    23   am
    27    19    24    2
    28    21    22    1
    29    22    26    1
    30     1    27    1
    31     2    28    1
    32     3    29    1
    33     4    30    1
    34     5    31    1
    35     6    32    1
    36     7    33    1
    37     8    34    1
    38     9    35    1
    39    10    36    1
    40    11    37    1
    41    12    38    1
    42    20    39    1
    43    21    40    1
    44    21    41    1
    45    21    42    1
    46    22    43    1
    47    22    44    1
    48    23    45    1
