@<TRIPOS>MOLECULE
AN-512/13208019
 46 47 0 0 0
SMALL
USER_CHARGES

@<TRIPOS>ATOM
      1 C           2.9107    4.1940    2.6664 C.1     1  LIG1       -0.1712
      2 C           3.7510    4.5630    3.4410 C.1     1  LIG1       -0.2291
      3 C           0.1292    1.1110   -2.3279 C.ar    1  LIG1       -0.1047
      4 C           1.5037    1.2398   -2.5272 C.ar    1  LIG1       -0.1046
      5 C          -0.4949    1.8125   -1.2964 C.ar    1  LIG1       -0.1042
      6 C           2.2542    2.0702   -1.6948 C.ar    1  LIG1       -0.0996
      7 C           0.2557    2.6428   -0.4639 C.ar    1  LIG1       -0.0999
      8 C           1.6302    2.7717   -0.6632 C.ar    1  LIG1       -0.0837
      9 C           2.6234    6.4877   -2.2784 C.3     1  LIG1       -0.0735
     10 C           1.3644    6.8554   -1.4913 C.3     1  LIG1       -0.0758
     11 C           3.0841    5.1385   -1.7351 C.3     1  LIG1       -0.0600
     12 C           1.1178    5.7011   -0.5254 C.3     1  LIG1       -0.0627
     13 C           2.4995    5.0861   -0.3270 C.3     1  LIG1       -0.0367
     14 C           6.2921    3.1411    3.6815 C.3     1  LIG1       -0.0845
     15 C           6.4510    5.3520    2.5467 C.3     1  LIG1       -0.0860
     16 C           1.9026    3.7281    1.6967 C.3     1  LIG1        0.0422
     17 C           4.7888    5.0042    4.3679 C.3     1  LIG1       -0.0529
     18 C           2.4528    3.6822    0.2502 C.3     1  LIG1        0.0090
     19 N           6.1220    4.6329    3.8319 N.4     1  LIG1        0.4119
     20 O           3.8147    3.2337    0.3158 O.3     1  LIG1       -0.4695
     21 H          -0.4553    0.4655   -2.9770 H       1  LIG1        0.1197
     22 H           1.9895    0.6945   -3.3310 H       1  LIG1        0.1187
     23 H          -1.5652    1.7133   -1.1417 H       1  LIG1        0.1196
     24 H           3.3247    2.1643   -1.8573 H       1  LIG1        0.1182
     25 H          -0.2390    3.1855    0.3373 H       1  LIG1        0.1157
     26 H           2.4309    6.4372   -3.3548 H       1  LIG1        0.0413
     27 H           3.3962    7.2483   -2.1181 H       1  LIG1        0.0398
     28 H           1.5322    7.7862   -0.9369 H       1  LIG1        0.0377
     29 H           0.5044    7.0159   -2.1493 H       1  LIG1        0.0356
     30 H           2.6778    4.3316   -2.3574 H       1  LIG1        0.0571
     31 H           4.1744    5.0461   -1.7378 H       1  LIG1        0.0473
     32 H           0.6736    6.0412    0.4153 H       1  LIG1        0.0394
     33 H           0.4295    4.9785   -0.9811 H       1  LIG1        0.0536
     34 H           3.0918    5.7359    0.3335 H       1  LIG1        0.0799
     35 H           5.5515    2.7917    2.9597 H       1  LIG1        0.0832
     36 H           7.3067    2.9548    3.3245 H       1  LIG1        0.0824
     37 H           6.1307    2.6861    4.6606 H       1  LIG1        0.0815
     38 H           5.7140    5.0533    1.7989 H       1  LIG1        0.0809
     39 H           6.3999    6.4249    2.7417 H       1  LIG1        0.0799
     40 H           7.4576    5.0552    2.2461 H       1  LIG1        0.0785
     41 H           1.0446    4.4110    1.7432 H       1  LIG1        0.1201
     42 H           1.5386    2.7412    2.0064 H       1  LIG1        0.1238
     43 H           4.7912    6.0901    4.4944 H       1  LIG1        0.1382
     44 H           4.6971    4.5232    5.3454 H       1  LIG1        0.1395
     45 H           6.8339    4.9343    4.5189 H       1  LIG1        0.1715
     46 H           4.2698    3.8506    0.9049 H       1  LIG1        0.3319
@<TRIPOS>BOND
     1     1     2    3
     2     1    16    1
     3     2    17    1
     4     3     4   ar
     5     3     5   ar
     6     4     6   ar
     7     5     7   ar
     8     6     8   ar
     9     7     8   ar
    10     8    18    1
    11     9    10    1
    12     9    11    1
    13    10    12    1
    14    11    13    1
    15    12    13    1
    16    13    18    1
    17    14    19    1
    18    15    19    1
    19    16    18    1
    20    17    19    1
    21    18    20    1
    22     3    21    1
    23     4    22    1
    24     5    23    1
    25     6    24    1
    26     7    25    1
    27     9    26    1
    28     9    27    1
    29    10    28    1
    30    10    29    1
    31    11    30    1
    32    11    31    1
    33    12    32    1
    34    12    33    1
    35    13    34    1
    36    14    35    1
    37    14    36    1
    38    14    37    1
    39    15    38    1
    40    15    39    1
    41    15    40    1
    42    16    41    1
    43    16    42    1
    44    17    43    1
    45    17    44    1
    46    19    45    1
    47    20    46    1
