@<TRIPOS>MOLECULE
AK-968/11492112
 46 49 0 0 0
SMALL
USER_CHARGES

@<TRIPOS>ATOM
      1 C          -0.4502    2.0183   -1.3137 C.ar    1  LIG1       -0.0985
      2 C           1.0822    5.4069    5.7698 C.ar    1  LIG1       -0.0884
      3 C           2.4359    6.8479   -2.6386 C.ar    1  LIG1       -0.1053
      4 C           0.3925    2.8307   -0.5551 C.ar    1  LIG1       -0.0894
      5 C           1.1021    5.2479    4.3843 C.ar    1  LIG1       -0.0531
      6 C           0.0723    0.9276   -2.0087 C.ar    1  LIG1       -0.0614
      7 C           1.8206    4.5457    6.5815 C.ar    1  LIG1       -0.0839
      8 C           2.8362    5.8153   -1.7421 C.ar    1  LIG1       -0.0851
      9 C           2.5990    3.3663    4.6219 C.ar    1  LIG1       -0.0333
     10 C           1.3070    7.5045   -2.2004 C.ar    1  LIG1       -0.0401
     11 C           1.7580    2.5525   -0.4917 C.ar    1  LIG1       -0.0367
     12 C           1.8605    4.2276    3.8102 C.ar    1  LIG1       -0.0188
     13 C           1.4377    0.6495   -1.9453 C.ar    1  LIG1        0.0312
     14 C           2.2806    1.4619   -1.1868 C.ar    1  LIG1        0.0402
     15 C           2.5790    3.5254    6.0074 C.ar    1  LIG1       -0.0337
     16 C           1.9981    5.7220   -0.6529 C.ar    1  LIG1        0.0186
     17 C           2.0648    4.8268    0.4488 C.2     1  LIG1        0.0331
     18 C           2.6545    3.0234    1.8010 C.3     1  LIG1        0.0188
     19 C           2.6441    3.4338    0.3254 C.3     1  LIG1        0.0530
     20 C           2.3691   -0.1867   -3.9675 C.3     1  LIG1        0.0256
     21 C           3.9897   -0.0858   -0.6045 C.3     1  LIG1        0.0189
     22 N           1.6339    5.1335    1.6348 N.2     1  LIG1       -0.3101
     23 N           1.8799    4.0714    2.4451 N.pl3   1  LIG1       -0.3236
     24 O           1.9347   -0.4189   -2.6291 O.3     1  LIG1       -0.4083
     25 O           3.6148    1.1862   -1.1276 O.3     1  LIG1       -0.4130
     26 S           0.7345    6.8761   -0.7138 S.2     1  LIG1       -0.1028
     27 BR          3.5792    2.3589    7.1079 Br      1  LIG1       -0.1048
     28 H          -1.5134    2.2350   -1.3632 H       1  LIG1        0.1287
     29 H           0.4916    6.2013    6.2168 H       1  LIG1        0.1361
     30 H           2.9492    7.0957   -3.5585 H       1  LIG1        0.1140
     31 H          -0.0242    3.6781   -0.0172 H       1  LIG1        0.1169
     32 H           0.5231    5.9248    3.7613 H       1  LIG1        0.1250
     33 H          -0.5897    0.2988   -2.5977 H       1  LIG1        0.1189
     34 H           1.7941    4.6834    7.6594 H       1  LIG1        0.1238
     35 H           3.6971    5.1761   -1.8937 H       1  LIG1        0.1290
     36 H           3.1887    2.5723    4.1687 H       1  LIG1        0.1439
     37 H           0.7907    8.3225   -2.6827 H       1  LIG1        0.1671
     38 H           2.2270    2.0320    1.9876 H       1  LIG1        0.1180
     39 H           3.6850    3.0339    2.1777 H       1  LIG1        0.1171
     40 H           3.6472    3.4553   -0.1072 H       1  LIG1        0.1305
     41 H           2.7422   -1.1195   -4.3973 H       1  LIG1        0.0887
     42 H           3.1587    0.5691   -3.9692 H       1  LIG1        0.0900
     43 H           1.5232    0.1717   -4.5587 H       1  LIG1        0.1229
     44 H           5.0785   -0.1775   -0.6127 H       1  LIG1        0.1181
     45 H           3.5422   -0.8768   -1.2115 H       1  LIG1        0.0789
     46 H           3.6271   -0.1685    0.4229 H       1  LIG1        0.0837
@<TRIPOS>BOND
     1     1     4   ar
     2     1     6   ar
     3     2     5   ar
     4     2     7   ar
     5     3     8   ar
     6     3    10   ar
     7     4    11   ar
     8     5    12   ar
     9     6    13   ar
    10     7    15   ar
    11     8    16   ar
    12     9    12   ar
    13     9    15   ar
    14    10    26   ar
    15    11    14   ar
    16    11    19    1
    17    12    23    1
    18    13    14   ar
    19    13    24    1
    20    14    25    1
    21    15    27    1
    22    16    17    1
    23    16    26   ar
    24    17    19    1
    25    17    22    2
    26    18    19    1
    27    18    23    1
    28    20    24    1
    29    21    25    1
    30    22    23    1
    31     1    28    1
    32     2    29    1
    33     3    30    1
    34     4    31    1
    35     5    32    1
    36     6    33    1
    37     7    34    1
    38     8    35    1
    39     9    36    1
    40    10    37    1
    41    18    38    1
    42    18    39    1
    43    19    40    1
    44    20    41    1
    45    20    42    1
    46    20    43    1
    47    21    44    1
    48    21    45    1
    49    21    46    1
