@<TRIPOS>MOLECULE
AN-829/14134005
 40 43 0 0 0
SMALL
USER_CHARGES

@<TRIPOS>ATOM
      1 C           1.0817    5.2681    6.0777 C.ar    1  LIG1       -0.1080
      2 C           0.4860    1.5317   -2.2285 C.ar    1  LIG1       -0.0889
      3 C           0.4997    0.4020   -1.4138 C.ar    1  LIG1       -0.0852
      4 C           0.9544    5.5210    4.7119 C.ar    1  LIG1       -0.1054
      5 C           2.0008    4.3208    6.5289 C.ar    1  LIG1       -0.1054
      6 C           1.0439    2.7290   -1.7769 C.ar    1  LIG1       -0.0724
      7 C           1.0782    0.4636   -0.1468 C.ar    1  LIG1       -0.0578
      8 C           1.1204    6.1667   -0.5626 C.ar    1  LIG1       -0.0600
      9 C           3.2236    5.5878   -1.6012 C.ar    1  LIG1       -0.0637
     10 C           1.7461    4.8265    3.7973 C.ar    1  LIG1       -0.0970
     11 C           2.7925    3.6263    5.6143 C.ar    1  LIG1       -0.0966
     12 C           1.0889    7.3566   -1.2896 C.ar    1  LIG1       -0.0705
     13 C           3.1920    6.7777   -2.3282 C.ar    1  LIG1       -0.0734
     14 C           2.1878    5.2823   -0.7183 C.ar    1  LIG1       -0.0142
     15 C           1.6119    2.7973   -0.4997 C.ar    1  LIG1       -0.0036
     16 C           1.6384    1.6639    0.3061 C.ar    1  LIG1        0.0470
     17 C           2.6652    3.8791    4.2485 C.ar    1  LIG1       -0.0763
     18 C           2.1246    7.6622   -2.1724 C.ar    1  LIG1       -0.0367
     19 C           2.2211    4.0225    0.0514 C.ar    1  LIG1        0.0481
     20 C           2.2780    1.7329    1.6321 C.ar    1  LIG1        0.1515
     21 C           3.5175    3.1312    3.2646 C.3     1  LIG1        0.0432
     22 N           2.8025    4.0684    1.2090 N.ar    1  LIG1       -0.2836
     23 N           2.8449    2.9514    1.9885 N.ar    1  LIG1       -0.2438
     24 O           2.2851    0.7285    2.3407 O.2     1  LIG1       -0.4629
     25 BR          2.0818    9.2745   -3.1575 Br      1  LIG1       -0.1062
     26 H           0.4661    5.8099    6.7898 H       1  LIG1        0.1161
     27 H           0.0404    1.4813   -3.2178 H       1  LIG1        0.1354
     28 H           0.0653   -0.5284   -1.7679 H       1  LIG1        0.1325
     29 H           0.2396    6.2593    4.3605 H       1  LIG1        0.1145
     30 H           2.1009    4.1244    7.5923 H       1  LIG1        0.1145
     31 H           1.0178    3.5922   -2.4356 H       1  LIG1        0.1406
     32 H           1.0867   -0.4325    0.4676 H       1  LIG1        0.1500
     33 H           0.3080    5.9385    0.1226 H       1  LIG1        0.1456
     34 H           4.0601    4.9059   -1.7302 H       1  LIG1        0.1421
     35 H           1.6400    5.0300    2.7350 H       1  LIG1        0.1226
     36 H           3.5058    2.8899    5.9750 H       1  LIG1        0.1251
     37 H           0.2499    8.0349   -1.1566 H       1  LIG1        0.1401
     38 H           4.0070    7.0009   -3.0120 H       1  LIG1        0.1400
     39 H           4.4546    3.6675    3.0793 H       1  LIG1        0.1532
     40 H           3.7806    2.1393    3.6469 H       1  LIG1        0.1495
@<TRIPOS>BOND
     1     1     4   ar
     2     1     5   ar
     3     2     3   ar
     4     2     6   ar
     5     3     7   ar
     6     4    10   ar
     7     5    11   ar
     8     6    15   ar
     9     7    16   ar
    10     8    12   ar
    11     8    14   ar
    12     9    13   ar
    13     9    14   ar
    14    10    17   ar
    15    11    17   ar
    16    12    18   ar
    17    13    18   ar
    18    14    19    1
    19    15    16   ar
    20    15    19   ar
    21    16    20   ar
    22    17    21    1
    23    18    25    1
    24    19    22   ar
    25    20    23   ar
    26    20    24    2
    27    21    23    1
    28    22    23   ar
    29     1    26    1
    30     2    27    1
    31     3    28    1
    32     4    29    1
    33     5    30    1
    34     6    31    1
    35     7    32    1
    36     8    33    1
    37     9    34    1
    38    10    35    1
    39    11    36    1
    40    12    37    1
    41    13    38    1
    42    21    39    1
    43    21    40    1
