@<TRIPOS>MOLECULE
AG-690/37071349
 41 44 0 0 0
SMALL
USER_CHARGES

@<TRIPOS>ATOM
      1 C           0.8571    7.0115   -2.3902 C.ar    1  LIG1       -0.1055
      2 C           0.3298    1.2316   -2.1126 C.ar    1  LIG1       -0.0953
      3 C           1.8631    6.2959   -3.0394 C.ar    1  LIG1       -0.1034
      4 C           0.9362    7.2350   -1.0155 C.ar    1  LIG1       -0.1034
      5 C          -0.4143    2.2431   -1.5053 C.ar    1  LIG1       -0.0880
      6 C           1.5375    0.8198   -1.5490 C.ar    1  LIG1       -0.0879
      7 C           1.0671    4.3631    6.0666 C.ar    1  LIG1       -0.0777
      8 C           0.6222    3.6544    4.9515 C.ar    1  LIG1       -0.0550
      9 C           2.9481    5.8037   -2.3140 C.ar    1  LIG1       -0.0994
     10 C           2.0211    6.7428   -0.2902 C.ar    1  LIG1       -0.0994
     11 C           0.0493    2.8428   -0.3343 C.ar    1  LIG1       -0.0613
     12 C           2.0011    1.4195   -0.3781 C.ar    1  LIG1       -0.0613
     13 C           2.2558    5.0861    6.0033 C.ar    1  LIG1       -0.0517
     14 C           1.3749    3.6706    3.7710 C.ar    1  LIG1        0.0684
     15 C           3.0271    6.0272   -0.9394 C.ar    1  LIG1       -0.0919
     16 C           2.5681    4.3908    3.6978 C.ar    1  LIG1        0.0220
     17 C           1.2570    2.4310    0.2293 C.ar    1  LIG1       -0.0142
     18 C           3.0027    5.0984    4.8247 C.ar    1  LIG1        0.0403
     19 C           0.9042    2.9454    2.5711 C.ar    1  LIG1        0.1612
     20 C           2.9451    3.7608    1.4996 C.ar    1  LIG1        0.1066
     21 C           4.1965    5.4965   -0.1567 C.3     1  LIG1        0.0466
     22 N           3.3578    4.4083    2.5429 N.ar    1  LIG1       -0.3452
     23 N           1.7344    3.0489    1.4355 N.ar    1  LIG1       -0.2276
     24 O          -0.1738    2.3581    2.6285 O.2     1  LIG1       -0.4456
     25 S           4.0671    3.7231    0.1414 S.3     1  LIG1       -0.0453
     26 CL          4.4743    6.0073    4.8021 Cl      1  LIG1       -0.1144
     27 H           0.0130    7.3959   -2.9552 H       1  LIG1        0.1183
     28 H          -0.0313    0.7639   -3.0240 H       1  LIG1        0.1285
     29 H           1.8022    6.1228   -4.1099 H       1  LIG1        0.1180
     30 H           0.1537    7.7930   -0.5099 H       1  LIG1        0.1180
     31 H          -1.3550    2.5634   -1.9433 H       1  LIG1        0.1288
     32 H           2.1161    0.0315   -2.0217 H       1  LIG1        0.1288
     33 H           0.4854    4.3531    6.9838 H       1  LIG1        0.1353
     34 H          -0.3101    3.1008    5.0194 H       1  LIG1        0.1540
     35 H           3.7271    5.2471   -2.8283 H       1  LIG1        0.1229
     36 H           2.0743    6.9216    0.7805 H       1  LIG1        0.1229
     37 H          -0.5392    3.6300    0.1302 H       1  LIG1        0.1354
     38 H           2.9438    1.0904    0.0521 H       1  LIG1        0.1355
     39 H           2.5885    5.6339    6.8814 H       1  LIG1        0.1527
     40 H           5.1325    5.6985   -0.6892 H       1  LIG1        0.1146
     41 H           4.2688    6.0112    0.8078 H       1  LIG1        0.1146
@<TRIPOS>BOND
     1     1     3   ar
     2     1     4   ar
     3     2     5   ar
     4     2     6   ar
     5     3     9   ar
     6     4    10   ar
     7     5    11   ar
     8     6    12   ar
     9     7     8   ar
    10     7    13   ar
    11     8    14   ar
    12     9    15   ar
    13    10    15   ar
    14    11    17   ar
    15    12    17   ar
    16    13    18   ar
    17    14    16   ar
    18    14    19   ar
    19    15    21    1
    20    16    18   ar
    21    16    22   ar
    22    17    23    1
    23    18    26    1
    24    19    23   ar
    25    19    24    2
    26    20    22   ar
    27    20    23   ar
    28    20    25    1
    29    21    25    1
    30     1    27    1
    31     2    28    1
    32     3    29    1
    33     4    30    1
    34     5    31    1
    35     6    32    1
    36     7    33    1
    37     8    34    1
    38     9    35    1
    39    10    36    1
    40    11    37    1
    41    12    38    1
    42    13    39    1
    43    21    40    1
    44    21    41    1
