@<TRIPOS>MOLECULE
AG-205/10362049
 37 39 0 0 0
SMALL
USER_CHARGES

@<TRIPOS>ATOM
      1 C           0.5301    4.7625    5.2218 C.ar    1  LIG1       -0.0923
      2 C           1.4281    4.4589    6.2450 C.ar    1  LIG1       -0.0901
      3 C           0.9809    4.8645    3.9057 C.ar    1  LIG1       -0.0545
      4 C           1.3546    6.0546   -0.4077 C.ar    1  LIG1       -0.0753
      5 C           3.0808    5.5136   -2.0091 C.ar    1  LIG1       -0.0789
      6 C           2.7770    4.2575    5.9522 C.ar    1  LIG1       -0.0395
      7 C           1.1119    7.2553   -1.0749 C.ar    1  LIG1       -0.0678
      8 C           2.8381    6.7143   -2.6764 C.ar    1  LIG1       -0.0693
      9 C           2.3297    4.6631    3.6129 C.ar    1  LIG1        0.0890
     10 C           2.3392    5.1839   -0.8748 C.ar    1  LIG1       -0.0441
     11 C           3.2278    4.3595    4.6361 C.ar    1  LIG1        0.1033
     12 C           1.8536    7.5851   -2.2093 C.ar    1  LIG1       -0.0129
     13 C           1.1392    2.2249    0.5748 C.2     1  LIG1       -0.0113
     14 C           2.8023    4.7720    2.2189 C.2     1  LIG1        0.1685
     15 C           1.7377    2.7393   -0.6998 C.3     1  LIG1        0.0547
     16 C           2.6030    3.8743   -0.1488 C.3     1  LIG1        0.0761
     17 C           0.2503    1.0267    0.5746 C.3     1  LIG1        0.0046
     18 N           1.4205    2.8895    1.6497 N.2     1  LIG1       -0.3215
     19 N           2.2507    3.9101    1.2806 N.am    1  LIG1       -0.2361
     20 O           3.6594    5.6199    1.9764 O.2     1  LIG1       -0.4461
     21 O           3.9737    3.4872   -0.2385 O.3     1  LIG1       -0.4418
     22 F           4.5267    4.1640    4.3669 F       1  LIG1       -0.2450
     23 CL          1.5537    9.0661   -3.0322 Cl      1  LIG1       -0.1394
     24 H          -0.5200    4.9195    5.4499 H       1  LIG1        0.1219
     25 H           1.0772    4.3793    7.2698 H       1  LIG1        0.1392
     26 H           0.2717    5.1015    3.1168 H       1  LIG1        0.1751
     27 H           0.7727    5.8049    0.4756 H       1  LIG1        0.1413
     28 H           3.8496    4.8406   -2.3796 H       1  LIG1        0.1281
     29 H           3.4762    4.0210    6.7487 H       1  LIG1        0.1325
     30 H           0.3414    7.9237   -0.6995 H       1  LIG1        0.1368
     31 H           3.4239    6.9581   -3.5590 H       1  LIG1        0.1347
     32 H           2.3131    1.9496   -1.1912 H       1  LIG1        0.1239
     33 H           0.9241    3.0749   -1.3512 H       1  LIG1        0.1201
     34 H           0.8453    0.1237    0.7132 H       1  LIG1        0.0905
     35 H          -0.2847    0.9616   -0.3736 H       1  LIG1        0.0865
     36 H          -0.4772    1.1046    1.3831 H       1  LIG1        0.0882
     37 H           4.4944    4.1985    0.1695 H       1  LIG1        0.3513
@<TRIPOS>BOND
     1     1     2   ar
     2     1     3   ar
     3     2     6   ar
     4     3     9   ar
     5     4     7   ar
     6     4    10   ar
     7     5     8   ar
     8     5    10   ar
     9     6    11   ar
    10     7    12   ar
    11     8    12   ar
    12     9    11   ar
    13     9    14    1
    14    10    16    1
    15    11    22    1
    16    12    23    1
    17    13    15    1
    18    13    17    1
    19    13    18    2
    20    14    19   am
    21    14    20    2
    22    15    16    1
    23    16    19    1
    24    16    21    1
    25    18    19    1
    26     1    24    1
    27     2    25    1
    28     3    26    1
    29     4    27    1
    30     5    28    1
    31     6    29    1
    32     7    30    1
    33     8    31    1
    34    15    32    1
    35    15    33    1
    36    17    34    1
    37    17    35    1
    38    17    36    1
    39    21    37    1
