@<TRIPOS>MOLECULE
AP-518/42324225
 52 56 0 0 0
SMALL
USER_CHARGES

@<TRIPOS>ATOM
      1 C           0.1957    0.6886   -1.4919 C.ar    1  LIG1       -0.1080
      2 C           0.4891    4.7726    5.1618 C.ar    1  LIG1       -0.1000
      3 C           1.4585    0.9518   -2.0223 C.ar    1  LIG1       -0.1057
      4 C          -0.3303    1.5161   -0.4996 C.ar    1  LIG1       -0.1044
      5 C           1.3433    4.7145    6.2630 C.ar    1  LIG1       -0.1007
      6 C           5.0865    5.2297   -3.4756 C.ar    1  LIG1       -0.0973
      7 C           4.3035    4.7954   -2.3880 C.ar    1  LIG1       -0.0864
      8 C           0.9599    4.4275    3.8950 C.ar    1  LIG1       -0.0756
      9 C           4.8033    6.4339   -4.1412 C.ar    1  LIG1       -0.0974
     10 C           1.1071    7.3734   -1.3320 C.ar    1  LIG1       -0.0940
     11 C           2.1956    2.0423   -1.5606 C.ar    1  LIG1       -0.0942
     12 C           0.4068    2.6065   -0.0378 C.ar    1  LIG1       -0.0924
     13 C           2.6684    4.3115    6.0973 C.ar    1  LIG1       -0.0936
     14 C           1.2888    6.1949   -0.5892 C.ar    1  LIG1       -0.0848
     15 C           3.2149    5.5723   -1.9498 C.ar    1  LIG1       -0.0669
     16 C           2.9836    6.7579   -2.6506 C.ar    1  LIG1       -0.0783
     17 C           2.2850    4.0246    3.7293 C.ar    1  LIG1        0.0207
     18 C           3.7324    7.1974   -3.7098 C.ar    1  LIG1       -0.1001
     19 C           1.9761    7.6440   -2.3747 C.ar    1  LIG1       -0.0988
     20 C           1.6697    2.8696   -0.5683 C.ar    1  LIG1       -0.0717
     21 C           2.3316    5.2966   -0.8893 C.ar    1  LIG1       -0.0555
     22 C           3.1392    3.9666    4.8304 C.ar    1  LIG1       -0.0816
     23 C           2.7601    3.6635    2.3688 C.2     1  LIG1        0.1068
     24 C           3.2190    8.5053   -4.2347 C.3     1  LIG1       -0.0311
     25 C           2.0064    8.8131   -3.3138 C.3     1  LIG1       -0.0305
     26 C           4.5627    3.5392    4.6815 C.3     1  LIG1       -0.0318
     27 C           2.4737    4.0597   -0.0638 C.3     1  LIG1        0.0197
     28 N           2.1329    4.3254    1.3455 N.am    1  LIG1       -0.3268
     29 O           3.6369    2.8122    2.2457 O.2     1  LIG1       -0.4740
     30 H          -0.3787   -0.1597   -1.8525 H       1  LIG1        0.1142
     31 H          -0.5430    5.0861    5.2903 H       1  LIG1        0.1177
     32 H           1.8677    0.3083   -2.7957 H       1  LIG1        0.1141
     33 H          -1.3139    1.3121   -0.0871 H       1  LIG1        0.1163
     34 H           0.9762    4.9835    7.2492 H       1  LIG1        0.1258
     35 H           5.9248    4.6213   -3.8050 H       1  LIG1        0.1214
     36 H           4.5553    3.8582   -1.8987 H       1  LIG1        0.1245
     37 H           0.2846    4.4779    3.0446 H       1  LIG1        0.1241
     38 H           5.4168    6.7538   -4.9771 H       1  LIG1        0.1216
     39 H           0.2987    8.0544   -1.0872 H       1  LIG1        0.1235
     40 H           3.1789    2.2395   -1.9797 H       1  LIG1        0.1146
     41 H          -0.0108    3.2457    0.7356 H       1  LIG1        0.1197
     42 H           3.3254    4.2693    6.9620 H       1  LIG1        0.1220
     43 H           0.6074    5.9809    0.2314 H       1  LIG1        0.1178
     44 H           3.9788    9.2893   -4.1519 H       1  LIG1        0.0770
     45 H           2.9012    8.4141   -5.2783 H       1  LIG1        0.0769
     46 H           1.0818    8.8752   -3.8966 H       1  LIG1        0.0774
     47 H           2.1591    9.7515   -2.7707 H       1  LIG1        0.0775
     48 H           4.6483    2.4537    4.8070 H       1  LIG1        0.0590
     49 H           4.9562    3.8092    3.6939 H       1  LIG1        0.0482
     50 H           5.2032    4.0289    5.4253 H       1  LIG1        0.0799
     51 H           3.5381    3.7677   -0.0277 H       1  LIG1        0.1603
     52 H           1.3777    4.9669    1.4947 H       1  LIG1        0.3007
@<TRIPOS>BOND
     1     1     3   ar
     2     1     4   ar
     3     2     5   ar
     4     2     8   ar
     5     3    11   ar
     6     4    12   ar
     7     5    13   ar
     8     6     7   ar
     9     6     9   ar
    10     7    15   ar
    11     8    17   ar
    12     9    18   ar
    13    10    14   ar
    14    10    19   ar
    15    11    20   ar
    16    12    20   ar
    17    13    22   ar
    18    14    21   ar
    19    15    16   ar
    20    15    21   ar
    21    16    18   ar
    22    16    19   ar
    23    17    22   ar
    24    17    23    1
    25    18    24    1
    26    19    25    1
    27    20    27    1
    28    21    27    1
    29    22    26    1
    30    23    28   am
    31    23    29    2
    32    24    25    1
    33    27    28    1
    34     1    30    1
    35     2    31    1
    36     3    32    1
    37     4    33    1
    38     5    34    1
    39     6    35    1
    40     7    36    1
    41     8    37    1
    42     9    38    1
    43    10    39    1
    44    11    40    1
    45    12    41    1
    46    13    42    1
    47    14    43    1
    48    24    44    1
    49    24    45    1
    50    25    46    1
    51    25    47    1
    52    26    48    1
    53    26    49    1
    54    26    50    1
    55    27    51    1
    56    28    52    1
