@<TRIPOS>MOLECULE
ZINC00307610
 37 40 0 0 0
SMALL
USER_CHARGES

@<TRIPOS>ATOM
      1 C           1.6826    4.6609    6.2066 C.ar    1  LIG1       -0.1012
      2 C           0.6487    4.9933    5.3362 C.ar    1  LIG1       -0.1011
      3 C           1.8452    7.6478   -1.9478 C.ar    1  LIG1       -0.0918
      4 C           3.0067    7.4285   -1.2034 C.ar    1  LIG1       -0.0957
      5 C           2.8545    4.0872    5.7124 C.ar    1  LIG1       -0.0906
      6 C           0.7827    4.7534    3.9684 C.ar    1  LIG1       -0.0903
      7 C           4.1791    3.2620    3.8237 C.ar    1  LIG1       -0.0873
      8 C           4.3131    3.0220    2.4560 C.ar    1  LIG1       -0.0925
      9 C           0.9531    6.6024   -2.2175 C.ar    1  LIG1       -0.0623
     10 C           3.3191    6.1605   -0.7025 C.ar    1  LIG1       -0.0722
     11 C           2.1073    3.9281    2.0797 C.ar    1  LIG1       -0.0797
     12 C           3.0066    3.8386    4.3386 C.ar    1  LIG1       -0.0793
     13 C           1.9552    4.1768    3.4535 C.ar    1  LIG1       -0.0765
     14 C           3.2792    3.3544    1.5856 C.ar    1  LIG1       -0.0768
     15 C           1.2514    5.3218   -1.7221 C.ar    1  LIG1       -0.0225
     16 C           2.4164    5.1344   -0.9835 C.ar    1  LIG1       -0.0288
     17 C           1.2722    3.2527   -1.1950 C.ar    1  LIG1       -0.0060
     18 C           0.9435    1.8209   -1.0380 C.3     1  LIG1        0.0222
     19 C           3.4244    3.0973    0.1235 C.3     1  LIG1        0.0161
     20 N           0.5537    4.1419   -1.8429 N.ar    1  LIG1       -0.3817
     21 N           2.4039    3.8020   -0.6595 N.ar    1  LIG1       -0.3427
     22 H           1.5773    4.8476    7.2711 H       1  LIG1        0.1193
     23 H          -0.2634    5.4393    5.7218 H       1  LIG1        0.1187
     24 H           1.6289    8.6448   -2.3226 H       1  LIG1        0.1202
     25 H           3.6816    8.2588   -1.0096 H       1  LIG1        0.1241
     26 H           3.6496    3.8359    6.4115 H       1  LIG1        0.1253
     27 H          -0.0385    5.0210    3.3066 H       1  LIG1        0.1253
     28 H           5.0001    2.9939    4.4857 H       1  LIG1        0.1292
     29 H           5.2290    2.5746    2.0793 H       1  LIG1        0.1215
     30 H           0.0532    6.7835   -2.7962 H       1  LIG1        0.1399
     31 H           4.2205    5.9913   -0.1240 H       1  LIG1        0.1215
     32 H           1.3062    4.1837    1.3880 H       1  LIG1        0.1313
     33 H           1.3706    1.2241   -1.8598 H       1  LIG1        0.0955
     34 H           1.3286    1.4109   -0.0893 H       1  LIG1        0.1012
     35 H          -0.1457    1.6468   -1.0266 H       1  LIG1        0.0879
     36 H           4.4105    3.4143   -0.2518 H       1  LIG1        0.1417
     37 H           3.3440    2.0246   -0.1135 H       1  LIG1        0.1385
@<TRIPOS>BOND
     1     1     2   ar
     2     1     5   ar
     3     2     6   ar
     4     3     4   ar
     5     3     9   ar
     6     4    10   ar
     7     5    12   ar
     8     6    13   ar
     9     7     8   ar
    10     7    12   ar
    11     8    14   ar
    12     9    15   ar
    13    10    16   ar
    14    11    13   ar
    15    11    14   ar
    16    12    13   ar
    17    14    19    1
    18    15    16   ar
    19    15    20   ar
    20    16    21   ar
    21    17    18    1
    22    17    20   ar
    23    17    21   ar
    24    19    21    1
    25     1    22    1
    26     2    23    1
    27     3    24    1
    28     4    25    1
    29     5    26    1
    30     6    27    1
    31     7    28    1
    32     8    29    1
    33     9    30    1
    34    10    31    1
    35    11    32    1
    36    18    33    1
    37    18    34    1
    38    18    35    1
    39    19    36    1
    40    19    37    1
