@<TRIPOS>MOLECULE
AF-936/31256044
 37 38 0 0 0
SMALL
USER_CHARGES

@<TRIPOS>ATOM
      1 C           0.0002    0.5986   -1.8375 C.ar    1  LIG1       -0.1021
      2 C           1.8746    7.7136   -2.3077 C.ar    1  LIG1       -0.1024
      3 C           1.3054    0.8082   -2.2827 C.ar    1  LIG1       -0.1111
      4 C          -0.5220    1.3868   -0.8120 C.ar    1  LIG1       -0.1022
      5 C           0.8046    7.0847   -1.6713 C.ar    1  LIG1       -0.1102
      6 C           3.1558    7.1690   -2.2202 C.ar    1  LIG1       -0.1025
      7 C           2.0885    1.8058   -1.7021 C.ar    1  LIG1       -0.0923
      8 C           0.2611    2.3846   -0.2314 C.ar    1  LIG1       -0.0778
      9 C           1.0157    5.9113   -0.9472 C.ar    1  LIG1       -0.0899
     10 C           3.3670    5.9957   -1.4961 C.ar    1  LIG1       -0.0775
     11 C           1.5664    2.5941   -0.6765 C.ar    1  LIG1        0.0858
     12 C           2.2970    5.3668   -0.8597 C.ar    1  LIG1        0.0880
     13 C           2.9525    4.7684    2.6579 C.2     1  LIG1        0.1776
     14 C           3.3196    4.3180    6.2717 C.3     1  LIG1       -0.0326
     15 C           1.9670    4.0860    1.7538 C.3     1  LIG1        0.2156
     16 C           3.6483    4.9005    4.9136 C.3     1  LIG1        0.0252
     17 O           3.7838    5.5848    2.2848 O.2     1  LIG1       -0.4697
     18 O           4.0349    3.5060    0.1641 O.2     1  LIG1       -0.3751
     19 O           2.7697    4.3319    3.9374 O.3     1  LIG1       -0.3676
     20 P           2.5666    3.8683    0.0649 P.3     1  LIG1        0.0826
     21 H          -0.6094   -0.1783   -2.2896 H       1  LIG1        0.1277
     22 H           1.7101    8.6272   -2.8715 H       1  LIG1        0.1264
     23 H           1.7120    0.1943   -3.0809 H       1  LIG1        0.1160
     24 H          -1.5384    1.2238   -0.4657 H       1  LIG1        0.1223
     25 H          -0.1929    7.5088   -1.7392 H       1  LIG1        0.1144
     26 H           3.9889    7.6586   -2.7160 H       1  LIG1        0.1205
     27 H           3.1045    1.9649   -2.0517 H       1  LIG1        0.1091
     28 H          -0.1500    2.9961    0.5667 H       1  LIG1        0.1420
     29 H           0.1794    5.4254   -0.4529 H       1  LIG1        0.1102
     30 H           4.3665    5.5753   -1.4311 H       1  LIG1        0.1390
     31 H           2.2885    4.5464    6.5551 H       1  LIG1        0.0477
     32 H           3.4527    3.2311    6.2680 H       1  LIG1        0.0534
     33 H           3.9932    4.7185    7.0366 H       1  LIG1        0.0590
     34 H           1.7397    3.0970    2.1624 H       1  LIG1        0.1402
     35 H           1.0518    4.6839    1.7133 H       1  LIG1        0.1324
     36 H           4.6809    4.6685    4.6362 H       1  LIG1        0.1066
     37 H           3.5139    5.9863    4.9189 H       1  LIG1        0.1013
@<TRIPOS>BOND
     1     1     3   ar
     2     1     4   ar
     3     2     5   ar
     4     2     6   ar
     5     3     7   ar
     6     4     8   ar
     7     5     9   ar
     8     6    10   ar
     9     7    11   ar
    10     8    11   ar
    11     9    12   ar
    12    10    12   ar
    13    11    20    1
    14    12    20    1
    15    13    15    1
    16    13    17    2
    17    13    19    1
    18    14    16    1
    19    15    20    1
    20    16    19    1
    21    18    20    2
    22     1    21    1
    23     2    22    1
    24     3    23    1
    25     4    24    1
    26     5    25    1
    27     6    26    1
    28     7    27    1
    29     8    28    1
    30     9    29    1
    31    10    30    1
    32    14    31    1
    33    14    32    1
    34    14    33    1
    35    15    34    1
    36    15    35    1
    37    16    36    1
    38    16    37    1
