@<TRIPOS>MOLECULE
AG-389/32150006
 35 36 0 0 0
SMALL
USER_CHARGES

@<TRIPOS>ATOM
      1 C          -0.0010    0.5974   -1.8353 C.ar    1  LIG1       -0.1043
      2 C           1.8743    7.7154   -2.3060 C.ar    1  LIG1       -0.1044
      3 C           1.3030    0.8074   -2.2837 C.ar    1  LIG1       -0.1047
      4 C          -0.5209    1.3856   -0.8086 C.ar    1  LIG1       -0.1125
      5 C           0.8050    7.0865   -1.6682 C.ar    1  LIG1       -0.1126
      6 C           3.1553    7.1698   -2.2217 C.ar    1  LIG1       -0.1045
      7 C           2.0871    1.8055   -1.7053 C.ar    1  LIG1       -0.0804
      8 C           0.2632    2.3837   -0.2302 C.ar    1  LIG1       -0.0926
      9 C           1.0168    5.9120   -0.9461 C.ar    1  LIG1       -0.0923
     10 C           3.3671    5.9954   -1.4996 C.ar    1  LIG1       -0.0797
     11 C           1.5672    2.5937   -0.6786 C.ar    1  LIG1        0.0826
     12 C           2.2979    5.3665   -0.8617 C.ar    1  LIG1        0.0834
     13 C           2.6036    4.8904    4.0697 C.3     1  LIG1       -0.0540
     14 C           1.9655    4.0863    1.7517 C.3     1  LIG1        0.1214
     15 C           2.7587    5.0966    2.5716 C.3     1  LIG1       -0.0038
     16 O           4.0348    3.5060    0.1641 O.2     1  LIG1       -0.3790
     17 O           2.3277    6.4154    2.2506 O.3     1  LIG1       -0.4940
     18 P           2.5680    3.8678    0.0596 P.3     1  LIG1        0.0576
     19 H          -0.6114   -0.1799   -2.2857 H       1  LIG1        0.1250
     20 H           1.7093    8.6299   -2.8683 H       1  LIG1        0.1247
     21 H           1.7079    0.1936   -3.0828 H       1  LIG1        0.1199
     22 H          -1.5365    1.2222   -0.4598 H       1  LIG1        0.1139
     23 H          -0.1923    7.5113   -1.7336 H       1  LIG1        0.1135
     24 H           3.9877    7.6595   -2.7187 H       1  LIG1        0.1197
     25 H           3.1023    1.9651   -2.0575 H       1  LIG1        0.1357
     26 H          -0.1463    2.9952    0.5688 H       1  LIG1        0.1089
     27 H           0.1811    5.4260   -0.4507 H       1  LIG1        0.1083
     28 H           4.3664    5.5741   -1.4372 H       1  LIG1        0.1358
     29 H           1.5474    4.9611    4.3525 H       1  LIG1        0.0398
     30 H           3.1646    5.6399    4.6358 H       1  LIG1        0.0364
     31 H           2.9362    3.8927    4.3744 H       1  LIG1        0.0378
     32 H           0.9124    4.3820    1.7010 H       1  LIG1        0.0915
     33 H           2.0154    3.1015    2.2289 H       1  LIG1        0.0763
     34 H           3.8201    5.0224    2.3092 H       1  LIG1        0.0779
     35 H           2.8954    7.0222    2.7511 H       1  LIG1        0.3299
@<TRIPOS>BOND
     1     1     3   ar
     2     1     4   ar
     3     2     5   ar
     4     2     6   ar
     5     3     7   ar
     6     4     8   ar
     7     5     9   ar
     8     6    10   ar
     9     7    11   ar
    10     8    11   ar
    11     9    12   ar
    12    10    12   ar
    13    11    18    1
    14    12    18    1
    15    13    15    1
    16    14    15    1
    17    14    18    1
    18    15    17    1
    19    16    18    2
    20     1    19    1
    21     2    20    1
    22     3    21    1
    23     4    22    1
    24     5    23    1
    25     6    24    1
    26     7    25    1
    27     8    26    1
    28     9    27    1
    29    10    28    1
    30    13    29    1
    31    13    30    1
    32    13    31    1
    33    14    32    1
    34    14    33    1
    35    15    34    1
    36    17    35    1
