@<TRIPOS>MOLECULE
AG-205/37168016
 37 39 0 0 0
SMALL
USER_CHARGES

@<TRIPOS>ATOM
      1 C           0.7041    4.7946    5.5518 C.ar    1  LIG1       -0.0926
      2 C           1.7274    4.1703    6.2650 C.ar    1  LIG1       -0.0925
      3 C           0.8811    5.1015    4.2026 C.ar    1  LIG1       -0.0566
      4 C           1.0296    5.7960   -1.2681 C.ar    1  LIG1       -0.0753
      5 C           3.4270    5.8412   -1.5645 C.ar    1  LIG1       -0.0776
      6 C           2.9277    3.8530    5.6291 C.ar    1  LIG1       -0.0656
      7 C           0.9087    6.9284   -2.0736 C.ar    1  LIG1       -0.0684
      8 C           3.3059    6.9735   -2.3701 C.ar    1  LIG1       -0.0688
      9 C           2.0814    4.7843    3.5667 C.ar    1  LIG1        0.0646
     10 C           2.2888    5.2525   -1.0135 C.ar    1  LIG1       -0.0428
     11 C           2.0468    7.5171   -2.6246 C.ar    1  LIG1       -0.0134
     12 C           3.1047    4.1600    4.2800 C.ar    1  LIG1        0.0247
     13 C           0.8492    2.4242    0.4781 C.2     1  LIG1       -0.0116
     14 C           2.2227    5.1284    2.1385 C.2     1  LIG1        0.1705
     15 C           1.6559    2.8274   -0.7195 C.3     1  LIG1        0.0544
     16 C           2.4210    4.0173   -0.1370 C.3     1  LIG1        0.0766
     17 C          -0.0322    1.2211    0.4379 C.3     1  LIG1        0.0043
     18 N           0.9483    3.1867    1.5196 N.2     1  LIG1       -0.3217
     19 N           1.8332    4.1788    1.2036 N.am    1  LIG1       -0.2355
     20 O           2.6807    6.2367    1.8659 O.2     1  LIG1       -0.4387
     21 O           3.7855    3.6390    0.0407 O.3     1  LIG1       -0.4415
     22 CL          1.8973    8.9138   -3.6184 Cl      1  LIG1       -0.1403
     23 CL          4.6057    3.7502    3.5306 Cl      1  LIG1       -0.1114
     24 H          -0.2303    5.0418    6.0471 H       1  LIG1        0.1234
     25 H           1.5894    3.9313    7.3154 H       1  LIG1        0.1352
     26 H           0.0757    5.5883    3.6583 H       1  LIG1        0.1718
     27 H           0.1381    5.3432   -0.8423 H       1  LIG1        0.1404
     28 H           4.4116    5.4237   -1.3712 H       1  LIG1        0.1287
     29 H           3.7151    3.3665    6.1993 H       1  LIG1        0.1331
     30 H          -0.0790    7.3406   -2.2635 H       1  LIG1        0.1357
     31 H           4.2016    7.4216   -2.7925 H       1  LIG1        0.1340
     32 H           2.3024    2.0028   -1.0330 H       1  LIG1        0.1230
     33 H           0.9650    3.0933   -1.5262 H       1  LIG1        0.1196
     34 H           0.5271    0.3411    0.7564 H       1  LIG1        0.0847
     35 H          -0.4002    1.0642   -0.5767 H       1  LIG1        0.0895
     36 H          -0.8851    1.3640    1.1022 H       1  LIG1        0.0898
     37 H           4.2332    4.3901    0.4636 H       1  LIG1        0.3503
@<TRIPOS>BOND
     1     1     2   ar
     2     1     3   ar
     3     2     6   ar
     4     3     9   ar
     5     4     7   ar
     6     4    10   ar
     7     5     8   ar
     8     5    10   ar
     9     6    12   ar
    10     7    11   ar
    11     8    11   ar
    12     9    12   ar
    13     9    14    1
    14    10    16    1
    15    11    22    1
    16    12    23    1
    17    13    15    1
    18    13    17    1
    19    13    18    2
    20    14    19   am
    21    14    20    2
    22    15    16    1
    23    16    19    1
    24    16    21    1
    25    18    19    1
    26     1    24    1
    27     2    25    1
    28     3    26    1
    29     4    27    1
    30     5    28    1
    31     6    29    1
    32     7    30    1
    33     8    31    1
    34    15    32    1
    35    15    33    1
    36    17    34    1
    37    17    35    1
    38    17    36    1
    39    21    37    1
