@<TRIPOS>MOLECULE
AK-968/13890384
 50 53 0 0 0
SMALL
USER_CHARGES

@<TRIPOS>ATOM
      1 C           4.4143    3.8261    4.8753 C.1     1  LIG1        0.0491
      2 C           0.3758    0.6188   -1.8164 C.ar    1  LIG1       -0.1068
      3 C           2.1892    7.5639   -2.3417 C.ar    1  LIG1       -0.1047
      4 C           1.7048    0.9676   -2.0559 C.ar    1  LIG1       -0.1014
      5 C          -0.3976    1.3789   -0.9389 C.ar    1  LIG1       -0.1053
      6 C           3.1763    6.5874   -2.4744 C.ar    1  LIG1       -0.1037
      7 C           1.1718    7.4038   -1.4011 C.ar    1  LIG1       -0.1033
      8 C           2.2607    2.0765   -1.4178 C.ar    1  LIG1       -0.0917
      9 C           0.1582    2.4876   -0.3008 C.ar    1  LIG1       -0.0967
     10 C           3.1458    5.4507   -1.6664 C.ar    1  LIG1       -0.0993
     11 C           1.1413    6.2672   -0.5932 C.ar    1  LIG1       -0.0983
     12 C           3.0330    4.1707    5.0224 C.ar    1  LIG1        0.0691
     13 C           2.3770    4.4171    6.2661 C.ar    1  LIG1       -0.0712
     14 C           1.4875    2.8365   -0.5403 C.ar    1  LIG1       -0.0678
     15 C           2.1283    5.2906   -0.7259 C.ar    1  LIG1       -0.0750
     16 C           1.0438    4.7275    6.0781 C.ar    1  LIG1       -0.0217
     17 C           2.1779    4.2972    3.9489 C.ar    1  LIG1        0.0666
     18 C           1.4592    4.3045    1.5327 C.2     1  LIG1        0.1251
     19 C           3.0091    4.3840    7.6250 C.3     1  LIG1       -0.0399
     20 C           0.0625    5.0117    7.1707 C.3     1  LIG1       -0.0311
     21 C           0.7931    5.2847    8.4955 C.3     1  LIG1       -0.0568
     22 C           1.9647    4.3133    8.7625 C.3     1  LIG1       -0.0643
     23 C           1.4736    2.8792    8.9844 C.3     1  LIG1       -0.0681
     24 C           2.0942    4.0481    0.1575 C.3     1  LIG1        0.0901
     25 N           5.5342    3.5466    4.7561 N.1     1  LIG1       -0.3835
     26 N           2.3834    4.1501    2.6030 N.am    1  LIG1       -0.2790
     27 O           0.2764    4.6102    1.6561 O.2     1  LIG1       -0.4515
     28 S           0.5902    4.7122    4.4369 S.2     1  LIG1       -0.0293
     29 H          -0.0573   -0.2438   -2.3144 H       1  LIG1        0.1160
     30 H           2.2139    8.4496   -2.9699 H       1  LIG1        0.1188
     31 H           2.3068    0.3766   -2.7400 H       1  LIG1        0.1162
     32 H          -1.4328    1.1081   -0.7530 H       1  LIG1        0.1155
     33 H           3.9692    6.7124   -3.2059 H       1  LIG1        0.1189
     34 H           0.4037    8.1646   -1.2968 H       1  LIG1        0.1194
     35 H           3.2972    2.3407   -1.6103 H       1  LIG1        0.1242
     36 H          -0.4517    3.0738    0.3814 H       1  LIG1        0.1191
     37 H           3.9190    4.6949   -1.7770 H       1  LIG1        0.1182
     38 H           0.3446    6.1509    0.1369 H       1  LIG1        0.1220
     39 H           3.6743    3.5085    7.6724 H       1  LIG1        0.0749
     40 H           3.6395    5.2728    7.7716 H       1  LIG1        0.0703
     41 H          -0.5290    5.8936    6.8959 H       1  LIG1        0.0789
     42 H          -0.6320    4.1750    7.3045 H       1  LIG1        0.0781
     43 H           1.1545    6.3273    8.4950 H       1  LIG1        0.0568
     44 H           0.0700    5.2159    9.3284 H       1  LIG1        0.0525
     45 H           2.4606    4.6441    9.7006 H       1  LIG1        0.0561
     46 H           0.9793    2.5149    8.0853 H       1  LIG1        0.0329
     47 H           0.7685    2.8547    9.8137 H       1  LIG1        0.0352
     48 H           2.3178    2.2314    9.2147 H       1  LIG1        0.0333
     49 H           3.1458    3.7989    0.3705 H       1  LIG1        0.1493
     50 H           3.3408    3.8984    2.2907 H       1  LIG1        0.3440
@<TRIPOS>BOND
     1     1    12    1
     2     1    25    3
     3     2     4   ar
     4     2     5   ar
     5     3     6   ar
     6     3     7   ar
     7     4     8   ar
     8     5     9   ar
     9     6    10   ar
    10     7    11   ar
    11     8    14   ar
    12     9    14   ar
    13    10    15   ar
    14    11    15   ar
    15    12    13   ar
    16    12    17   ar
    17    13    16   ar
    18    13    19    1
    19    14    24    1
    20    15    24    1
    21    16    20    1
    22    16    28   ar
    23    17    26    1
    24    17    28   ar
    25    18    24    1
    26    18    26   am
    27    18    27    2
    28    19    22    1
    29    20    21    1
    30    21    22    1
    31    22    23    1
    32     2    29    1
    33     3    30    1
    34     4    31    1
    35     5    32    1
    36     6    33    1
    37     7    34    1
    38     8    35    1
    39     9    36    1
    40    10    37    1
    41    11    38    1
    42    19    39    1
    43    19    40    1
    44    20    41    1
    45    20    42    1
    46    21    43    1
    47    21    44    1
    48    22    45    1
    49    23    46    1
    50    23    47    1
    51    23    48    1
    52    24    49    1
    53    26    50    1
