@<TRIPOS>MOLECULE
AE-848/36047027
 40 42 0 0 0
SMALL
USER_CHARGES

@<TRIPOS>ATOM
      1 C           1.7705    4.2803    6.7132 C.ar    1  LIG1       -0.1075
      2 C          -0.0933    0.8755   -1.8079 C.ar    1  LIG1       -0.1045
      3 C           2.9809    4.7340    6.1892 C.ar    1  LIG1       -0.1048
      4 C           0.6673    4.1126    5.8763 C.ar    1  LIG1       -0.1011
      5 C           1.2261    0.6164   -2.1789 C.ar    1  LIG1       -0.1035
      6 C          -0.4024    2.0331   -1.0936 C.ar    1  LIG1       -0.1045
      7 C           3.0882    5.0199    4.8282 C.ar    1  LIG1       -0.0922
      8 C           0.7745    4.3985    4.5152 C.ar    1  LIG1       -0.0877
      9 C           2.2364    1.5147   -1.8355 C.ar    1  LIG1       -0.1006
     10 C           0.6078    2.9314   -0.7502 C.ar    1  LIG1       -0.1013
     11 C           1.9849    4.8521    3.9911 C.ar    1  LIG1       -0.0634
     12 C           1.9273    2.6722   -1.1212 C.ar    1  LIG1       -0.0899
     13 C           2.0977    5.1542    2.5527 C.ar    1  LIG1        0.0440
     14 C           2.4688    4.2374    1.6271 C.ar    1  LIG1       -0.0295
     15 C           1.8083    6.5615    2.0999 C.ar    1  LIG1        0.1310
     16 C           2.1557    5.8816   -0.0909 C.ar    1  LIG1        0.0279
     17 C           2.7581    2.7961    1.9941 C.3     1  LIG1       -0.0016
     18 C           2.1025    6.2817   -1.5525 C.3     1  LIG1        0.0404
     19 C           3.0143    3.6396   -0.7511 C.3     1  LIG1        0.0188
     20 N           1.7938    6.8084    0.7464 N.ar    1  LIG1       -0.3069
     21 N           2.5732    4.5969    0.2689 N.ar    1  LIG1       -0.3266
     22 O           1.5798    7.4352    2.9332 O.2     1  LIG1       -0.4612
     23 H           1.6873    4.0565    7.7727 H       1  LIG1        0.1145
     24 H          -0.8801    0.1766   -2.0765 H       1  LIG1        0.1204
     25 H           3.8404    4.8635    6.8405 H       1  LIG1        0.1157
     26 H          -0.2750    3.7583    6.2839 H       1  LIG1        0.1173
     27 H           1.4669   -0.2843   -2.7360 H       1  LIG1        0.1197
     28 H          -1.4297    2.2357   -0.8055 H       1  LIG1        0.1187
     29 H           4.0384    5.3727    4.4343 H       1  LIG1        0.1179
     30 H          -0.0944    4.2627    3.8758 H       1  LIG1        0.1224
     31 H           3.2616    1.3044   -2.1287 H       1  LIG1        0.1221
     32 H           0.3577    3.8307   -0.1936 H       1  LIG1        0.1222
     33 H           1.8401    2.2267    1.9195 H       1  LIG1        0.0833
     34 H           3.1392    2.7639    3.0076 H       1  LIG1        0.0863
     35 H           3.5002    2.4044    1.3093 H       1  LIG1        0.0740
     36 H           3.0597    6.7023   -1.8316 H       1  LIG1        0.1087
     37 H           1.3161    7.0141   -1.6832 H       1  LIG1        0.0996
     38 H           1.8896    5.4013   -2.1453 H       1  LIG1        0.0988
     39 H           3.8877    3.1072   -0.3588 H       1  LIG1        0.1399
     40 H           3.3466    4.2103   -1.6246 H       1  LIG1        0.1430
@<TRIPOS>BOND
     1     1     3   ar
     2     1     4   ar
     3     2     5   ar
     4     2     6   ar
     5     3     7   ar
     6     4     8   ar
     7     5     9   ar
     8     6    10   ar
     9     7    11   ar
    10     8    11   ar
    11     9    12   ar
    12    10    12   ar
    13    11    13    1
    14    12    19    1
    15    13    14   ar
    16    13    15   ar
    17    14    17    1
    18    14    21   ar
    19    15    20   ar
    20    15    22    2
    21    16    18    1
    22    16    20   ar
    23    16    21   ar
    24    19    21    1
    25     1    23    1
    26     2    24    1
    27     3    25    1
    28     4    26    1
    29     5    27    1
    30     6    28    1
    31     7    29    1
    32     8    30    1
    33     9    31    1
    34    10    32    1
    35    17    33    1
    36    17    34    1
    37    17    35    1
    38    18    36    1
    39    18    37    1
    40    18    38    1
    41    19    39    1
    42    19    40    1
