@<TRIPOS>MOLECULE
AG-205/12010062
 44 46 0 0 0
SMALL
USER_CHARGES

@<TRIPOS>ATOM
      1 C           0.8191    4.5305    4.0267 C.ar    1  LIG1       -0.0551
      2 C           2.9054    3.4658    4.6187 C.ar    1  LIG1       -0.0636
      3 C           0.7945    5.1713    5.2653 C.ar    1  LIG1       -0.0484
      4 C           2.8810    4.1067    5.8575 C.ar    1  LIG1       -0.0644
      5 C           1.8745    3.6777    3.7033 C.ar    1  LIG1        0.0392
      6 C           1.8255    4.9595    6.1807 C.ar    1  LIG1       -0.0108
      7 C           1.5675    5.5630    0.0937 C.2     1  LIG1       -0.0023
      8 C           1.9006    3.0004    2.3942 C.2     1  LIG1        0.1595
      9 C           1.1831    6.9844   -0.1986 C.3     1  LIG1        0.0022
     10 C           0.8531    7.2672   -1.6570 C.3     1  LIG1       -0.0501
     11 C           2.0956    7.4116   -2.5346 C.3     1  LIG1       -0.0691
     12 C           2.7601    6.0945   -2.9255 C.3     1  LIG1       -0.0655
     13 C           3.2623    5.2461   -1.7563 C.3     1  LIG1       -0.0346
     14 C           2.1273    4.6284   -0.9451 C.3     1  LIG1        0.0622
     15 C           2.5292    3.4541   -0.0290 C.3     1  LIG1        0.1776
     16 C           2.8876    5.3228    8.2772 C.3     1  LIG1        0.0260
     17 C           2.0424    2.1238   -0.6013 C.3     1  LIG1        0.3725
     18 N           1.4261    5.0698    1.2836 N.2     1  LIG1       -0.3126
     19 N           1.9179    3.7988    1.2594 N.am    1  LIG1       -0.2190
     20 O           1.8989    1.7715    2.4026 O.2     1  LIG1       -0.4498
     21 O           3.9403    3.3985    0.1528 O.3     1  LIG1       -0.4176
     22 O           1.8017    5.5846    7.3895 O.3     1  LIG1       -0.4138
     23 F           2.5809    1.9201   -1.8130 F       1  LIG1       -0.1859
     24 F           2.4010    1.1163    0.2087 F       1  LIG1       -0.1830
     25 F           0.7057    2.1347   -0.7161 F       1  LIG1       -0.1817
     26 H           0.0102    4.7036    3.3212 H       1  LIG1        0.1554
     27 H           3.7324    2.8034    4.3763 H       1  LIG1        0.1713
     28 H          -0.0304    5.8343    5.5113 H       1  LIG1        0.1321
     29 H           3.6867    3.9375    6.5666 H       1  LIG1        0.1128
     30 H           0.3019    7.2146    0.4132 H       1  LIG1        0.1013
     31 H           1.9930    7.6343    0.1522 H       1  LIG1        0.0960
     32 H           0.1798    6.5052   -2.0663 H       1  LIG1        0.0504
     33 H           0.3094    8.2197   -1.6952 H       1  LIG1        0.0583
     34 H           1.8003    7.9206   -3.4611 H       1  LIG1        0.0449
     35 H           2.8281    8.0662   -2.0468 H       1  LIG1        0.0393
     36 H           2.0695    5.5037   -3.5402 H       1  LIG1        0.0449
     37 H           3.6168    6.3291   -3.5700 H       1  LIG1        0.0495
     38 H           3.8725    4.4420   -2.1863 H       1  LIG1        0.0712
     39 H           3.9213    5.8498   -1.1201 H       1  LIG1        0.0597
     40 H           1.2896    4.3386   -1.5921 H       1  LIG1        0.1313
     41 H           2.7447    5.8837    9.2041 H       1  LIG1        0.1233
     42 H           3.8269    5.6170    7.8021 H       1  LIG1        0.0910
     43 H           2.9140    4.2538    8.5012 H       1  LIG1        0.0911
     44 H           4.2011    4.2403    0.5582 H       1  LIG1        0.3651
@<TRIPOS>BOND
     1     1     3   ar
     2     1     5   ar
     3     2     4   ar
     4     2     5   ar
     5     3     6   ar
     6     4     6   ar
     7     5     8    1
     8     6    22    1
     9     7     9    1
    10     7    14    1
    11     7    18    2
    12     8    19   am
    13     8    20    2
    14     9    10    1
    15    10    11    1
    16    11    12    1
    17    12    13    1
    18    13    14    1
    19    14    15    1
    20    15    17    1
    21    15    19    1
    22    15    21    1
    23    16    22    1
    24    17    23    1
    25    17    24    1
    26    17    25    1
    27    18    19    1
    28     1    26    1
    29     2    27    1
    30     3    28    1
    31     4    29    1
    32     9    30    1
    33     9    31    1
    34    10    32    1
    35    10    33    1
    36    11    34    1
    37    11    35    1
    38    12    36    1
    39    12    37    1
    40    13    38    1
    41    13    39    1
    42    14    40    1
    43    16    41    1
    44    16    42    1
    45    16    43    1
    46    21    44    1
