@<TRIPOS>MOLECULE
AG-690/36004035
 40 42 0 0 0
SMALL
USER_CHARGES

@<TRIPOS>ATOM
      1 C           0.9770    4.8633    3.9084 C.ar    1  LIG1       -0.0546
      2 C           3.2264    4.3607    4.6330 C.ar    1  LIG1       -0.0558
      3 C           1.0771    5.4416   -1.4132 C.ar    1  LIG1       -0.0754
      4 C           3.3578    6.1265   -1.0057 C.ar    1  LIG1       -0.0790
      5 C           0.5297    4.7605    5.2256 C.ar    1  LIG1       -0.0671
      6 C           2.7791    4.2579    5.9502 C.ar    1  LIG1       -0.0638
      7 C           0.8357    6.6422   -2.0808 C.ar    1  LIG1       -0.0679
      8 C           3.1165    7.3272   -1.6734 C.ar    1  LIG1       -0.0694
      9 C           2.3253    4.6634    3.6121 C.ar    1  LIG1        0.0432
     10 C           2.3381    5.1837   -0.8756 C.ar    1  LIG1       -0.0442
     11 C           1.4307    4.4579    6.2464 C.ar    1  LIG1       -0.0125
     12 C           1.8555    7.5850   -2.2110 C.ar    1  LIG1       -0.0129
     13 C           1.1386    2.2242    0.5733 C.2     1  LIG1       -0.0095
     14 C           2.7990    4.7724    2.2184 C.2     1  LIG1        0.1626
     15 C           1.7377    2.7388   -0.7009 C.3     1  LIG1        0.0557
     16 C           2.6020    3.8743   -0.1493 C.3     1  LIG1        0.0766
     17 C          -0.5225    0.9385   -0.7274 C.3     1  LIG1       -0.0493
     18 C           0.2502    1.0255    0.5725 C.3     1  LIG1       -0.0033
     19 N           1.4186    2.8891    1.6484 N.2     1  LIG1       -0.3182
     20 N           2.2485    3.9101    1.2798 N.am    1  LIG1       -0.2346
     21 O           3.6558    5.6207    1.9765 O.2     1  LIG1       -0.4507
     22 O           3.9730    3.4880   -0.2379 O.3     1  LIG1       -0.4415
     23 CL          0.8792    4.3324    7.8714 Cl      1  LIG1       -0.1358
     24 CL          1.5576    9.0661   -3.0347 Cl      1  LIG1       -0.1392
     25 H           0.2662    5.0991    3.1206 H       1  LIG1        0.1744
     26 H           4.2792    4.2032    4.4136 H       1  LIG1        0.1511
     27 H           0.2773    4.7121   -1.3158 H       1  LIG1        0.1413
     28 H           4.3432    5.9330   -0.5899 H       1  LIG1        0.1284
     29 H          -0.5236    4.9193    5.4423 H       1  LIG1        0.1329
     30 H           3.4927    4.0211    6.7352 H       1  LIG1        0.1354
     31 H          -0.1518    6.8292   -2.4949 H       1  LIG1        0.1367
     32 H           3.9207    8.0525   -1.7670 H       1  LIG1        0.1347
     33 H           2.3140    1.9494   -1.1917 H       1  LIG1        0.1238
     34 H           0.9245    3.0739   -1.3530 H       1  LIG1        0.1201
     35 H          -1.1406    1.8308   -0.8655 H       1  LIG1        0.0399
     36 H          -1.1778    0.0609   -0.7366 H       1  LIG1        0.0399
     37 H           0.1551    0.8548   -1.5835 H       1  LIG1        0.0430
     38 H           0.8691    0.1347    0.7134 H       1  LIG1        0.0968
     39 H          -0.4354    1.1091    1.4207 H       1  LIG1        0.0969
     40 H           4.4930    4.1996    0.1704 H       1  LIG1        0.3513
@<TRIPOS>BOND
     1     1     5   ar
     2     1     9   ar
     3     2     6   ar
     4     2     9   ar
     5     3     7   ar
     6     3    10   ar
     7     4     8   ar
     8     4    10   ar
     9     5    11   ar
    10     6    11   ar
    11     7    12   ar
    12     8    12   ar
    13     9    14    1
    14    10    16    1
    15    11    23    1
    16    12    24    1
    17    13    15    1
    18    13    18    1
    19    13    19    2
    20    14    20   am
    21    14    21    2
    22    15    16    1
    23    16    20    1
    24    16    22    1
    25    17    18    1
    26    19    20    1
    27     1    25    1
    28     2    26    1
    29     3    27    1
    30     4    28    1
    31     5    29    1
    32     6    30    1
    33     7    31    1
    34     8    32    1
    35    15    33    1
    36    15    34    1
    37    17    35    1
    38    17    36    1
    39    17    37    1
    40    18    38    1
    41    18    39    1
    42    22    40    1
