@<TRIPOS>MOLECULE
AG-205/36591020
 37 38 0 0 0
SMALL
USER_CHARGES

@<TRIPOS>ATOM
      1 C           1.1887    4.5851    6.4752 C.ar    1  LIG1       -0.1050
      2 C           0.3901    4.5942    5.3316 C.ar    1  LIG1       -0.1026
      3 C           2.5763    4.5063    6.3563 C.ar    1  LIG1       -0.1018
      4 C           0.9791    4.5243    4.0691 C.ar    1  LIG1       -0.0944
      5 C           3.1652    4.4364    5.0938 C.ar    1  LIG1       -0.0935
      6 C           2.3666    4.4454    3.9502 C.ar    1  LIG1       -0.0825
      7 C           2.9892    4.3715    2.6170 C.2     1  LIG1       -0.0728
      8 C           2.3488    3.9937    1.5015 C.2     1  LIG1       -0.0227
      9 C           3.0675    3.9623    0.1962 C.2     1  LIG1        0.0566
     10 C           1.7031    7.5384   -1.8877 C.3     1  LIG1       -0.0759
     11 C           2.9954    6.8909   -2.3725 C.3     1  LIG1       -0.0722
     12 C           0.6555    6.4917   -1.5257 C.3     1  LIG1       -0.0701
     13 C           3.5486    5.8964   -1.3511 C.3     1  LIG1       -0.0523
     14 C           1.1850    5.4934   -0.4953 C.3     1  LIG1       -0.0538
     15 C           2.5133    4.8566   -0.9133 C.3     1  LIG1        0.0055
     16 C           2.2704    3.8665   -2.0505 C.3     1  LIG1       -0.0482
     17 O           4.0700    3.2751    0.0158 O.2     1  LIG1       -0.4704
     18 H           0.7303    4.6408    7.4581 H       1  LIG1        0.1201
     19 H          -0.6903    4.6567    5.4240 H       1  LIG1        0.1180
     20 H           3.1983    4.5005    7.2466 H       1  LIG1        0.1185
     21 H           0.3432    4.5322    3.1869 H       1  LIG1        0.1256
     22 H           4.2483    4.3754    5.0176 H       1  LIG1        0.1270
     23 H           4.0341    4.6703    2.5759 H       1  LIG1        0.1515
     24 H           1.3014    3.7135    1.4973 H       1  LIG1        0.1183
     25 H           1.9112    8.1690   -1.0158 H       1  LIG1        0.0382
     26 H           1.3074    8.1975   -2.6702 H       1  LIG1        0.0380
     27 H           2.8133    6.3753   -3.3225 H       1  LIG1        0.0423
     28 H           3.7411    7.6695   -2.5746 H       1  LIG1        0.0371
     29 H          -0.2396    6.9902   -1.1341 H       1  LIG1        0.0368
     30 H           0.3462    5.9545   -2.4295 H       1  LIG1        0.0545
     31 H           4.4105    5.3865   -1.8017 H       1  LIG1        0.0505
     32 H           3.9343    6.4534   -0.4876 H       1  LIG1        0.0550
     33 H           1.2808    6.0013    0.4728 H       1  LIG1        0.0494
     34 H           0.4297    4.7076   -0.3601 H       1  LIG1        0.0492
     35 H           1.8691    4.3957   -2.9096 H       1  LIG1        0.0394
     36 H           1.5614    3.1111   -1.7253 H       1  LIG1        0.0454
     37 H           3.2087    3.3919   -2.3216 H       1  LIG1        0.0413
@<TRIPOS>BOND
     1     1     2   ar
     2     1     3   ar
     3     2     4   ar
     4     3     5   ar
     5     4     6   ar
     6     5     6   ar
     7     6     7    1
     8     7     8    2
     9     8     9    1
    10     9    15    1
    11     9    17    2
    12    10    11    1
    13    10    12    1
    14    11    13    1
    15    12    14    1
    16    13    15    1
    17    14    15    1
    18    15    16    1
    19     1    18    1
    20     2    19    1
    21     3    20    1
    22     4    21    1
    23     5    22    1
    24     7    23    1
    25     8    24    1
    26    10    25    1
    27    10    26    1
    28    11    27    1
    29    11    28    1
    30    12    29    1
    31    12    30    1
    32    13    31    1
    33    13    32    1
    34    14    33    1
    35    14    34    1
    36    16    35    1
    37    16    36    1
    38    16    37    1
