@<TRIPOS>MOLECULE
AO-079/15259065
 31 33 0 0 0
SMALL
USER_CHARGES

@<TRIPOS>ATOM
      1 C           0.1692    1.3592   -2.2297 C.ar    1  LIG1       -0.1075
      2 C          -0.4697    2.2703   -1.3887 C.ar    1  LIG1       -0.1028
      3 C           1.4401    0.8841   -1.9062 C.ar    1  LIG1       -0.1043
      4 C           2.0953    4.9270    5.8506 C.ar    1  LIG1       -0.1065
      5 C           0.8982    4.2245    5.7361 C.ar    1  LIG1       -0.0978
      6 C           0.1624    2.7064   -0.2242 C.ar    1  LIG1       -0.0894
      7 C           2.0723    1.3201   -0.7418 C.ar    1  LIG1       -0.0910
      8 C           2.9817    4.9748    4.7741 C.ar    1  LIG1       -0.1045
      9 C           0.5902    3.5629    4.5482 C.ar    1  LIG1       -0.0600
     10 C           1.4334    2.2313    0.0992 C.ar    1  LIG1       -0.0600
     11 C           2.6763    4.3224    3.5720 C.ar    1  LIG1       -0.0772
     12 C           1.4826    3.5997    3.4734 C.ar    1  LIG1       -0.0046
     13 C           3.6397    4.3815    2.4256 C.3     1  LIG1       -0.0165
     14 C           2.1217    2.7056    1.3659 C.3     1  LIG1        0.0650
     15 C           2.9679    3.9626    1.1205 C.3     1  LIG1        0.0119
     16 O           1.0945    2.9269    2.3457 O.3     1  LIG1       -0.3900
     17 O           3.9772    3.6866    0.1550 O.3     1  LIG1       -0.4792
     18 H          -0.3237    1.0187   -3.1356 H       1  LIG1        0.1155
     19 H          -1.4598    2.6395   -1.6398 H       1  LIG1        0.1168
     20 H           1.9373    0.1738   -2.5601 H       1  LIG1        0.1150
     21 H           2.3373    5.4403    6.7766 H       1  LIG1        0.1118
     22 H           0.2050    4.1910    6.5714 H       1  LIG1        0.1275
     23 H          -0.3429    3.4166    0.4250 H       1  LIG1        0.1240
     24 H           3.0625    0.9447   -0.4979 H       1  LIG1        0.1224
     25 H           3.9109    5.5302    4.8756 H       1  LIG1        0.1228
     26 H          -0.3452    3.0152    4.4679 H       1  LIG1        0.1282
     27 H           4.0459    5.3943    2.3115 H       1  LIG1        0.0733
     28 H           4.4915    3.7239    2.6431 H       1  LIG1        0.0748
     29 H           2.7622    1.8640    1.7066 H       1  LIG1        0.1455
     30 H           2.3381    4.7829    0.7493 H       1  LIG1        0.1053
     31 H           4.4842    4.5058    0.0418 H       1  LIG1        0.3315
@<TRIPOS>BOND
     1     1     2   ar
     2     1     3   ar
     3     2     6   ar
     4     3     7   ar
     5     4     5   ar
     6     4     8   ar
     7     5     9   ar
     8     6    10   ar
     9     7    10   ar
    10     8    11   ar
    11     9    12   ar
    12    10    14    1
    13    11    12   ar
    14    11    13    1
    15    12    16    1
    16    13    15    1
    17    14    15    1
    18    14    16    1
    19    15    17    1
    20     1    18    1
    21     2    19    1
    22     3    20    1
    23     4    21    1
    24     5    22    1
    25     6    23    1
    26     7    24    1
    27     8    25    1
    28     9    26    1
    29    13    27    1
    30    13    28    1
    31    14    29    1
    32    15    30    1
    33    17    31    1
