@<TRIPOS>MOLECULE
AO-289/08764031
 45 48 0 0 0
SMALL
USER_CHARGES

@<TRIPOS>ATOM
      1 C           1.9218    6.3208   -2.3944 C.ar    1  LIG1       -0.1011
      2 C           1.8745    5.4046    6.6386 C.ar    1  LIG1       -0.1047
      3 C           0.4937    1.8443   -2.9064 C.ar    1  LIG1       -0.1054
      4 C           0.8204    6.2393   -1.5426 C.ar    1  LIG1       -0.0965
      5 C           3.1715    5.8753   -1.9633 C.ar    1  LIG1       -0.0985
      6 C           2.9370    4.5300    6.4115 C.ar    1  LIG1       -0.0956
      7 C           0.8329    5.4912    5.7148 C.ar    1  LIG1       -0.1013
      8 C           1.7221    1.2972   -2.5362 C.ar    1  LIG1       -0.0951
      9 C          -0.2473    2.5829   -1.9837 C.ar    1  LIG1       -0.1048
     10 C           0.9684    5.7124   -0.2596 C.ar    1  LIG1       -0.0782
     11 C           3.3195    5.3485   -0.6803 C.ar    1  LIG1       -0.0813
     12 C           2.9582    3.7422    5.2607 C.ar    1  LIG1       -0.0727
     13 C           0.8539    4.7034    4.5640 C.ar    1  LIG1       -0.0801
     14 C           2.2096    1.4885   -1.2433 C.ar    1  LIG1       -0.0707
     15 C           0.2401    2.7741   -0.6910 C.ar    1  LIG1       -0.0843
     16 C           2.2180    5.2670    0.1716 C.ar    1  LIG1        0.0025
     17 C           1.9165    3.8288    4.3369 C.ar    1  LIG1       -0.0600
     18 C           1.4685    2.2269   -0.3207 C.ar    1  LIG1       -0.0613
     19 C           2.3734    4.7137    1.5193 C.2     1  LIG1        0.1299
     20 C           2.5710    1.7340    3.1408 C.3     1  LIG1       -0.0034
     21 C           2.8097    1.4637    1.6518 C.3     1  LIG1       -0.0047
     22 C           1.5612    3.5009    1.8583 C.3     1  LIG1        0.1023
     23 N           1.9370    3.0486    3.1970 N.pl3   1  LIG1       -0.3669
     24 N           1.9503    2.4163    0.9581 N.pl3   1  LIG1       -0.3674
     25 O           3.1141    5.1770    2.3803 O.2     1  LIG1       -0.4291
     26 H           1.8066    6.7310   -3.3935 H       1  LIG1        0.1251
     27 H           1.8582    6.0183    7.5347 H       1  LIG1        0.1165
     28 H           0.1141    1.6953   -3.9131 H       1  LIG1        0.1162
     29 H          -0.1524    6.5863   -1.8785 H       1  LIG1        0.1195
     30 H           4.0291    5.9385   -2.6267 H       1  LIG1        0.1193
     31 H           3.7478    4.4628    7.1306 H       1  LIG1        0.1189
     32 H           0.0054    6.1724    5.8918 H       1  LIG1        0.1163
     33 H           2.2989    0.7223   -3.2545 H       1  LIG1        0.1220
     34 H          -1.2041    3.0089   -2.2722 H       1  LIG1        0.1180
     35 H           0.1033    5.6535    0.3960 H       1  LIG1        0.1351
     36 H           4.2979    5.0046   -0.3549 H       1  LIG1        0.1296
     37 H           3.7908    3.0640    5.0931 H       1  LIG1        0.1345
     38 H           0.0365    4.7792    3.8512 H       1  LIG1        0.1256
     39 H           3.1679    1.0578   -0.9647 H       1  LIG1        0.1352
     40 H          -0.3461    3.3515    0.0195 H       1  LIG1        0.1147
     41 H           1.8961    0.9698    3.5458 H       1  LIG1        0.1146
     42 H           3.5049    1.7085    3.7117 H       1  LIG1        0.0952
     43 H           3.8599    1.6538    1.4003 H       1  LIG1        0.0892
     44 H           2.5708    0.4273    1.3908 H       1  LIG1        0.1146
     45 H           0.4987    3.7183    1.7643 H       1  LIG1        0.1684
@<TRIPOS>BOND
     1     1     4   ar
     2     1     5   ar
     3     2     6   ar
     4     2     7   ar
     5     3     8   ar
     6     3     9   ar
     7     4    10   ar
     8     5    11   ar
     9     6    12   ar
    10     7    13   ar
    11     8    14   ar
    12     9    15   ar
    13    10    16   ar
    14    11    16   ar
    15    12    17   ar
    16    13    17   ar
    17    14    18   ar
    18    15    18   ar
    19    16    19    1
    20    17    23    1
    21    18    24    1
    22    19    22    1
    23    19    25    2
    24    20    21    1
    25    20    23    1
    26    21    24    1
    27    22    23    1
    28    22    24    1
    29     1    26    1
    30     2    27    1
    31     3    28    1
    32     4    29    1
    33     5    30    1
    34     6    31    1
    35     7    32    1
    36     8    33    1
    37     9    34    1
    38    10    35    1
    39    11    36    1
    40    12    37    1
    41    13    38    1
    42    14    39    1
    43    15    40    1
    44    20    41    1
    45    20    42    1
    46    21    43    1
    47    21    44    1
    48    22    45    1
