@<TRIPOS>MOLECULE
AE-641/04598050
 45 47 0 0 0
SMALL
USER_CHARGES

@<TRIPOS>ATOM
      1 C           0.3747    0.5972   -1.9127 C.ar    1  LIG1       -0.1080
      2 C           2.2037    7.5761   -2.3358 C.ar    1  LIG1       -0.1060
      3 C           1.7056    0.9498   -2.1361 C.ar    1  LIG1       -0.1027
      4 C          -0.4093    1.3506   -1.0388 C.ar    1  LIG1       -0.1063
      5 C           3.1733    6.5861   -2.4952 C.ar    1  LIG1       -0.1044
      6 C           1.1859    7.4108   -1.3964 C.ar    1  LIG1       -0.1043
      7 C           2.2527    2.0557   -1.4855 C.ar    1  LIG1       -0.0924
      8 C           0.1379    2.4565   -0.3883 C.ar    1  LIG1       -0.0970
      9 C           3.1250    5.4306   -1.7151 C.ar    1  LIG1       -0.0987
     10 C           1.1377    6.2555   -0.6163 C.ar    1  LIG1       -0.0979
     11 C           0.5726    4.8239    5.6924 C.ar    1  LIG1       -0.0958
     12 C           0.8213    4.6453    4.3315 C.ar    1  LIG1       -0.0662
     13 C           2.8900    4.3436    6.1788 C.ar    1  LIG1       -0.0987
     14 C           1.4688    2.8091   -0.6116 C.ar    1  LIG1       -0.0685
     15 C           2.1072    5.2653   -0.7756 C.ar    1  LIG1       -0.0742
     16 C           1.6070    4.6731    6.6161 C.ar    1  LIG1       -0.1169
     17 C           3.1386    4.1649    4.8179 C.ar    1  LIG1       -0.0851
     18 C           2.1042    4.3159    3.8943 C.ar    1  LIG1       -0.0539
     19 C           1.4161    4.2645    1.4698 C.2     1  LIG1        0.1099
     20 C           1.3404    4.8617    8.0713 C.3     1  LIG1       -0.0453
     21 C           4.5219    3.8094    4.3783 C.3     1  LIG1       -0.0381
     22 C           2.0533    3.9916    0.0846 C.3     1  LIG1        0.0875
     23 N           2.3361    4.1389    2.5096 N.am    1  LIG1       -0.3104
     24 O           0.2258    4.5476    1.5730 O.2     1  LIG1       -0.4677
     25 H          -0.0515   -0.2632   -2.4203 H       1  LIG1        0.1145
     26 H           2.2422    8.4762   -2.9424 H       1  LIG1        0.1169
     27 H           2.3157    0.3639   -2.8172 H       1  LIG1        0.1149
     28 H          -1.4458    1.0770   -0.8655 H       1  LIG1        0.1146
     29 H           3.9664    6.7150   -3.2258 H       1  LIG1        0.1175
     30 H           0.4316    8.1819   -1.2712 H       1  LIG1        0.1181
     31 H           3.2907    2.3229   -1.6654 H       1  LIG1        0.1223
     32 H          -0.4804    3.0375    0.2909 H       1  LIG1        0.1178
     33 H           3.8846    4.6644   -1.8462 H       1  LIG1        0.1169
     34 H           0.3410    6.1353    0.1130 H       1  LIG1        0.1210
     35 H          -0.4300    5.0805    6.0239 H       1  LIG1        0.1204
     36 H           0.0074    4.7666    3.6209 H       1  LIG1        0.1353
     37 H           3.6949    4.2244    6.9004 H       1  LIG1        0.1217
     38 H           1.0476    3.9105    8.5324 H       1  LIG1        0.0554
     39 H           2.2282    5.2424    8.5929 H       1  LIG1        0.0524
     40 H           0.5371    5.5911    8.2379 H       1  LIG1        0.0527
     41 H           4.6443    2.7207    4.3561 H       1  LIG1        0.0566
     42 H           4.7331    4.2062    3.3780 H       1  LIG1        0.0570
     43 H           5.2732    4.2330    5.0557 H       1  LIG1        0.0503
     44 H           3.1158    3.7690    0.3224 H       1  LIG1        0.1431
     45 H           3.2933    3.8998    2.2592 H       1  LIG1        0.3222
@<TRIPOS>BOND
     1     1     3   ar
     2     1     4   ar
     3     2     5   ar
     4     2     6   ar
     5     3     7   ar
     6     4     8   ar
     7     5     9   ar
     8     6    10   ar
     9     7    14   ar
    10     8    14   ar
    11     9    15   ar
    12    10    15   ar
    13    11    12   ar
    14    11    16   ar
    15    12    18   ar
    16    13    16   ar
    17    13    17   ar
    18    14    22    1
    19    15    22    1
    20    16    20    1
    21    17    18   ar
    22    17    21    1
    23    18    23    1
    24    19    22    1
    25    19    23   am
    26    19    24    2
    27     1    25    1
    28     2    26    1
    29     3    27    1
    30     4    28    1
    31     5    29    1
    32     6    30    1
    33     7    31    1
    34     8    32    1
    35     9    33    1
    36    10    34    1
    37    11    35    1
    38    12    36    1
    39    13    37    1
    40    20    38    1
    41    20    39    1
    42    20    40    1
    43    21    41    1
    44    21    42    1
    45    21    43    1
    46    22    44    1
    47    23    45    1
