@<TRIPOS>MOLECULE
AG-690/11636476
 43 45 0 0 0
SMALL
USER_CHARGES

@<TRIPOS>ATOM
      1 C           0.9773    4.8637    3.9078 C.ar    1  LIG1       -0.0551
      2 C           3.2264    4.3609    4.6329 C.ar    1  LIG1       -0.0537
      3 C           1.0771    5.4412   -1.4136 C.ar    1  LIG1       -0.0867
      4 C           3.3576    6.1263   -1.0051 C.ar    1  LIG1       -0.0900
      5 C           0.8357    6.6424   -2.0804 C.ar    1  LIG1       -0.0996
      6 C           3.1162    7.3275   -1.6719 C.ar    1  LIG1       -0.1010
      7 C           0.5297    4.7607    5.2250 C.ar    1  LIG1       -0.0719
      8 C           2.7789    4.2581    5.9500 C.ar    1  LIG1       -0.0751
      9 C           2.3256    4.6638    3.6118 C.ar    1  LIG1        0.0450
     10 C           2.3381    5.1832   -0.8760 C.ar    1  LIG1       -0.0510
     11 C           1.8553    7.5855   -2.2096 C.ar    1  LIG1       -0.1157
     12 C           1.4305    4.4580    6.2460 C.ar    1  LIG1       -0.0382
     13 C           1.1389    2.2239    0.5736 C.2     1  LIG1       -0.0099
     14 C           2.7992    4.7725    2.2181 C.2     1  LIG1        0.1644
     15 C           1.7380    2.7383   -0.7008 C.3     1  LIG1        0.0549
     16 C           2.6022    3.8740   -0.1495 C.3     1  LIG1        0.0745
     17 C           1.5969    8.8688   -2.9240 C.3     1  LIG1       -0.0423
     18 C          -0.5221    0.9377   -0.7268 C.3     1  LIG1       -0.0494
     19 C           0.2507    1.0251    0.5730 C.3     1  LIG1       -0.0035
     20 N           1.4189    2.8890    1.6485 N.2     1  LIG1       -0.3185
     21 N           2.2488    3.9100    1.2797 N.am    1  LIG1       -0.2345
     22 O           3.6559    5.6209    1.9760 O.2     1  LIG1       -0.4498
     23 O           3.9731    3.4878   -0.2380 O.3     1  LIG1       -0.4428
     24 BR          0.8241    4.3186    8.0305 Br      1  LIG1       -0.1045
     25 H           0.2667    5.1001    3.1200 H       1  LIG1        0.1499
     26 H           4.2793    4.2033    4.4133 H       1  LIG1        0.1736
     27 H           0.2766    4.7122   -1.3176 H       1  LIG1        0.1296
     28 H           4.3435    5.9328   -0.5904 H       1  LIG1        0.1173
     29 H          -0.1493    6.8339   -2.4975 H       1  LIG1        0.1203
     30 H           3.9161    8.0569   -1.7682 H       1  LIG1        0.1182
     31 H          -0.5242    4.9194    5.4387 H       1  LIG1        0.1367
     32 H           3.4937    4.0215    6.7339 H       1  LIG1        0.1343
     33 H           2.3142    1.9488   -1.1915 H       1  LIG1        0.1224
     34 H           0.9247    3.0732   -1.3528 H       1  LIG1        0.1194
     35 H           1.2408    9.6322   -2.2214 H       1  LIG1        0.0583
     36 H           2.5058    9.2428   -3.4128 H       1  LIG1        0.0543
     37 H           0.8425    8.7416   -3.7114 H       1  LIG1        0.0549
     38 H          -1.1403    1.8300   -0.8650 H       1  LIG1        0.0430
     39 H          -1.1773    0.0601   -0.7358 H       1  LIG1        0.0398
     40 H           0.1554    0.8540   -1.5830 H       1  LIG1        0.0398
     41 H           0.8697    0.1343    0.7140 H       1  LIG1        0.0966
     42 H          -0.4349    1.1088    1.4213 H       1  LIG1        0.0964
     43 H           4.4931    4.1995    0.1701 H       1  LIG1        0.3498
@<TRIPOS>BOND
     1     1     7   ar
     2     1     9   ar
     3     2     8   ar
     4     2     9   ar
     5     3     5   ar
     6     3    10   ar
     7     4     6   ar
     8     4    10   ar
     9     5    11   ar
    10     6    11   ar
    11     7    12   ar
    12     8    12   ar
    13     9    14    1
    14    10    16    1
    15    11    17    1
    16    12    24    1
    17    13    15    1
    18    13    19    1
    19    13    20    2
    20    14    21   am
    21    14    22    2
    22    15    16    1
    23    16    21    1
    24    16    23    1
    25    18    19    1
    26    20    21    1
    27     1    25    1
    28     2    26    1
    29     3    27    1
    30     4    28    1
    31     5    29    1
    32     6    30    1
    33     7    31    1
    34     8    32    1
    35    15    33    1
    36    15    34    1
    37    17    35    1
    38    17    36    1
    39    17    37    1
    40    18    38    1
    41    18    39    1
    42    18    40    1
    43    19    41    1
    44    19    42    1
    45    23    43    1
