@<TRIPOS>MOLECULE
AG-690/40720329
 49 53 0 0 0
SMALL
USER_CHARGES

@<TRIPOS>ATOM
      1 C           1.4535    5.4369    5.8749 C.ar    1  LIG1       -0.0902
      2 C           1.6404    4.1331    6.3632 C.ar    1  LIG1       -0.0888
      3 C           1.3538    7.4346   -1.7624 C.ar    1  LIG1       -0.0883
      4 C           2.1070    6.6909   -2.6570 C.ar    1  LIG1       -0.0921
      5 C           1.6431    5.7311    4.5184 C.ar    1  LIG1       -0.0723
      6 C           2.0199    3.1046    5.5033 C.ar    1  LIG1       -0.0679
      7 C           2.2093    1.2147   -1.1717 C.ar    1  LIG1       -0.0871
      8 C           0.6488    2.8236   -0.2700 C.ar    1  LIG1       -0.0905
      9 C           1.1949    0.6732   -1.9612 C.ar    1  LIG1       -0.0948
     10 C          -0.3657    2.2822   -1.0595 C.ar    1  LIG1       -0.0982
     11 C           1.4036    7.1336   -0.4017 C.ar    1  LIG1       -0.0609
     12 C           2.9086    5.6534   -2.1863 C.ar    1  LIG1       -0.0775
     13 C           2.0200    4.7083    3.6594 C.ar    1  LIG1       -0.0213
     14 C           2.1981    3.4311    4.1719 C.ar    1  LIG1        0.0166
     15 C           1.9362    2.2899   -0.3260 C.ar    1  LIG1       -0.0769
     16 C          -0.0927    1.2069   -1.9051 C.ar    1  LIG1       -0.1120
     17 C           2.2027    6.0833    0.1043 C.ar    1  LIG1       -0.0500
     18 C           2.9582    5.3337   -0.8151 C.ar    1  LIG1       -0.0306
     19 C           2.2902    4.6993    2.2140 C.2     1  LIG1       -0.0254
     20 C           2.5871    2.5794    3.0636 C.2     1  LIG1        0.1088
     21 C           2.6282    3.4453    1.8521 C.2     1  LIG1        0.0341
     22 C           3.0404    2.8804    0.5337 C.3     1  LIG1        0.0371
     23 C          -1.7390    1.6441   -3.7630 C.3     1  LIG1       -0.0629
     24 C          -2.3248    0.0359   -1.9123 C.3     1  LIG1       -0.0629
     25 C          -1.1764    0.6285   -2.7508 C.3     1  LIG1       -0.0553
     26 N           2.1204    5.8497    1.4926 N.pl3   1  LIG1       -0.3572
     27 O           2.8258    1.3912    3.1274 O.2     1  LIG1       -0.4354
     28 S           4.1163    4.0461   -0.3710 S.3     1  LIG1       -0.1775
     29 H           1.1582    6.2281    6.5596 H       1  LIG1        0.1290
     30 H           1.4872    3.9275    7.4191 H       1  LIG1        0.1267
     31 H           0.7264    8.2464   -2.1183 H       1  LIG1        0.1312
     32 H           2.0787    6.9196   -3.7182 H       1  LIG1        0.1251
     33 H           1.4940    6.7471    4.1681 H       1  LIG1        0.1402
     34 H           2.1671    2.0957    5.8702 H       1  LIG1        0.1502
     35 H           3.2094    0.7923   -1.2216 H       1  LIG1        0.1250
     36 H           0.4277    3.6622    0.3851 H       1  LIG1        0.1222
     37 H           1.4173   -0.1633   -2.6183 H       1  LIG1        0.1191
     38 H          -1.3662    2.7039   -1.0099 H       1  LIG1        0.1160
     39 H           0.7949    7.7282    0.2785 H       1  LIG1        0.1353
     40 H           3.5016    5.0964   -2.9097 H       1  LIG1        0.1417
     41 H           3.7331    2.0090    0.7427 H       1  LIG1        0.1214
     42 H          -2.1633    2.5207   -3.2613 H       1  LIG1        0.0370
     43 H          -2.5279    1.2002   -4.3798 H       1  LIG1        0.0355
     44 H          -0.9464    1.9947   -4.4336 H       1  LIG1        0.0362
     45 H          -2.7780    0.8102   -1.2831 H       1  LIG1        0.0362
     46 H          -1.9689   -0.7644   -1.2545 H       1  LIG1        0.0352
     47 H          -3.1134   -0.3824   -2.5473 H       1  LIG1        0.0369
     48 H          -0.7761   -0.2097   -3.3522 H       1  LIG1        0.0659
     49 H           1.7477    6.6349    2.0171 H       1  LIG1        0.3134
@<TRIPOS>BOND
     1     1     2   ar
     2     1     5   ar
     3     2     6   ar
     4     3     4   ar
     5     3    11   ar
     6     4    12   ar
     7     5    13   ar
     8     6    14   ar
     9     7     9   ar
    10     7    15   ar
    11     8    10   ar
    12     8    15   ar
    13     9    16   ar
    14    10    16   ar
    15    11    17   ar
    16    12    18   ar
    17    13    14   ar
    18    13    19    1
    19    14    20    1
    20    15    22    1
    21    16    25    1
    22    17    18   ar
    23    17    26    1
    24    18    28    1
    25    19    21    2
    26    19    26    1
    27    20    21    1
    28    20    27    2
    29    21    22    1
    30    22    28    1
    31    23    25    1
    32    24    25    1
    33     1    29    1
    34     2    30    1
    35     3    31    1
    36     4    32    1
    37     5    33    1
    38     6    34    1
    39     7    35    1
    40     8    36    1
    41     9    37    1
    42    10    38    1
    43    11    39    1
    44    12    40    1
    45    22    41    1
    46    23    42    1
    47    23    43    1
    48    23    44    1
    49    24    45    1
    50    24    46    1
    51    24    47    1
    52    25    48    1
    53    26    49    1
