@<TRIPOS>MOLECULE
AO-080/41816403
 47 49 0 0 0
SMALL
USER_CHARGES

@<TRIPOS>ATOM
      1 C           0.9482    0.4431   -2.0215 C.ar    1  LIG1       -0.1079
      2 C           2.0292    1.3206   -2.1053 C.ar    1  LIG1       -0.1057
      3 C          -0.1862    0.8015   -1.2932 C.ar    1  LIG1       -0.1043
      4 C           0.7670    4.9248    4.8566 C.ar    1  LIG1       -0.0720
      5 C           1.9759    2.5564   -1.4607 C.ar    1  LIG1       -0.0948
      6 C          -0.2395    2.0374   -0.6486 C.ar    1  LIG1       -0.0926
      7 C           0.8089    6.0676   -1.7844 C.ar    1  LIG1       -0.0830
      8 C           2.8088    5.6852   -0.4839 C.ar    1  LIG1       -0.0793
      9 C           1.3826    4.7194    6.0913 C.ar    1  LIG1       -0.0530
     10 C           1.4563    7.0888   -2.4797 C.ar    1  LIG1       -0.0720
     11 C           3.4562    6.7064   -1.1792 C.ar    1  LIG1       -0.0699
     12 C           2.7949    4.2455    3.7326 C.ar    1  LIG1       -0.0220
     13 C           1.4731    4.6878    3.6772 C.ar    1  LIG1        0.0231
     14 C           0.8416    2.9149   -0.7324 C.ar    1  LIG1       -0.0729
     15 C           1.4851    5.3657   -0.7864 C.ar    1  LIG1       -0.0665
     16 C           2.7043    4.2771    6.1466 C.ar    1  LIG1        0.0385
     17 C           3.4105    4.0402    4.9673 C.ar    1  LIG1        0.0442
     18 C           2.7800    7.4082   -2.1771 C.ar    1  LIG1       -0.0154
     19 C           0.8305    4.8999    2.3900 C.2     1  LIG1        0.1050
     20 C           2.5032    4.3457    8.5153 C.3     1  LIG1        0.0276
     21 C           5.3511    3.3876    3.7574 C.3     1  LIG1        0.0255
     22 C           0.7832    4.2559   -0.0324 C.3     1  LIG1        0.0163
     23 N           1.3023    4.1424    1.3116 N.am    1  LIG1       -0.3269
     24 O          -0.0816    5.7370    2.2700 O.2     1  LIG1       -0.4766
     25 O           3.2943    4.0803    7.3587 O.3     1  LIG1       -0.4038
     26 O           4.7010    3.6057    5.0080 O.3     1  LIG1       -0.4075
     27 CL          3.5784    8.6679   -3.0352 Cl      1  LIG1       -0.1430
     28 H           0.9893   -0.5186   -2.5245 H       1  LIG1        0.1145
     29 H           2.9121    1.0422   -2.6732 H       1  LIG1        0.1142
     30 H          -1.0285    0.1191   -1.2285 H       1  LIG1        0.1164
     31 H          -0.2634    5.2695    4.8256 H       1  LIG1        0.1290
     32 H           2.8231    3.2337   -1.5313 H       1  LIG1        0.1148
     33 H          -1.1273    2.3081   -0.0832 H       1  LIG1        0.1211
     34 H          -0.2225    5.8248   -2.0258 H       1  LIG1        0.1265
     35 H           3.3428    5.1430    0.2921 H       1  LIG1        0.1352
     36 H           0.8273    4.9061    7.0064 H       1  LIG1        0.1283
     37 H           0.9168    7.6268   -3.2549 H       1  LIG1        0.1343
     38 H           4.4878    6.9443   -0.9326 H       1  LIG1        0.1358
     39 H           3.3474    4.0574    2.8148 H       1  LIG1        0.1498
     40 H           3.0928    4.1489    9.4141 H       1  LIG1        0.0906
     41 H           1.6141    3.7102    8.5034 H       1  LIG1        0.0906
     42 H           2.1988    5.3950    8.5047 H       1  LIG1        0.1240
     43 H           6.3734    3.0434    3.9326 H       1  LIG1        0.0900
     44 H           5.3618    4.3180    3.1841 H       1  LIG1        0.0899
     45 H           4.8027    2.6246    3.1999 H       1  LIG1        0.1235
     46 H          -0.2668    4.5468    0.1028 H       1  LIG1        0.1585
     47 H           2.0911    3.5192    1.4507 H       1  LIG1        0.3017
@<TRIPOS>BOND
     1     1     2   ar
     2     1     3   ar
     3     2     5   ar
     4     3     6   ar
     5     4     9   ar
     6     4    13   ar
     7     5    14   ar
     8     6    14   ar
     9     7    10   ar
    10     7    15   ar
    11     8    11   ar
    12     8    15   ar
    13     9    16   ar
    14    10    18   ar
    15    11    18   ar
    16    12    13   ar
    17    12    17   ar
    18    13    19    1
    19    14    22    1
    20    15    22    1
    21    16    17   ar
    22    16    25    1
    23    17    26    1
    24    18    27    1
    25    19    23   am
    26    19    24    2
    27    20    25    1
    28    21    26    1
    29    22    23    1
    30     1    28    1
    31     2    29    1
    32     3    30    1
    33     4    31    1
    34     5    32    1
    35     6    33    1
    36     7    34    1
    37     8    35    1
    38     9    36    1
    39    10    37    1
    40    11    38    1
    41    12    39    1
    42    20    40    1
    43    20    41    1
    44    20    42    1
    45    21    43    1
    46    21    44    1
    47    21    45    1
    48    22    46    1
    49    23    47    1
