@<TRIPOS>MOLECULE
AG-670/13618001
 55 60 0 0 0
SMALL
USER_CHARGES

@<TRIPOS>ATOM
      1 C           1.9247    7.4739   -2.3924 C.ar    1  LIG1       -0.1048
      2 C           1.2477    5.0138    6.4395 C.ar    1  LIG1       -0.1105
      3 C           7.3486    1.6758    0.3804 C.ar    1  LIG1       -0.1077
      4 C           1.1660    7.4294   -1.2228 C.ar    1  LIG1       -0.1007
      5 C           2.9152    6.5179   -2.6180 C.ar    1  LIG1       -0.0998
      6 C           2.4113    4.2474    6.5056 C.ar    1  LIG1       -0.1084
      7 C           0.7241    5.3813    5.1999 C.ar    1  LIG1       -0.1076
      8 C           6.7966    1.3736    1.6253 C.ar    1  LIG1       -0.1042
      9 C           6.5238    2.0845   -0.6676 C.ar    1  LIG1       -0.1045
     10 C           0.0574    0.6532   -2.2092 C.ar    1  LIG1       -0.1030
     11 C           0.0448    2.0261   -2.4909 C.ar    1  LIG1       -0.1026
     12 C           1.3977    6.4290   -0.2788 C.ar    1  LIG1       -0.0820
     13 C           3.1469    5.5175   -1.6739 C.ar    1  LIG1       -0.0806
     14 C           3.0513    3.8487    5.3322 C.ar    1  LIG1       -0.1017
     15 C           1.3642    4.9826    4.0265 C.ar    1  LIG1       -0.1006
     16 C           5.4198    1.4800    1.8221 C.ar    1  LIG1       -0.0873
     17 C           5.1470    2.1908   -0.4708 C.ar    1  LIG1       -0.0860
     18 C           0.8633    0.1496   -1.1899 C.ar    1  LIG1       -0.0721
     19 C           0.8388    2.9175   -1.7606 C.ar    1  LIG1       -0.0666
     20 C           2.3882    5.4731   -0.5043 C.ar    1  LIG1       -0.0437
     21 C           2.5278    4.2161    4.0925 C.ar    1  LIG1       -0.1015
     22 C           4.5949    1.8885    0.7740 C.ar    1  LIG1       -0.0511
     23 C           1.6588    1.0369   -0.4857 C.ar    1  LIG1       -0.0420
     24 C           1.6548    2.4171   -0.7591 C.ar    1  LIG1       -0.0177
     25 C           2.9952    4.8028    1.7236 C.2     1  LIG1       -0.0786
     26 C           2.6299    4.4313    0.4783 C.2     1  LIG1       -0.0352
     27 C           2.7287    2.3652    2.4431 C.3     1  LIG1        0.0048
     28 C           3.2141    3.7889    2.8335 C.3     1  LIG1       -0.0141
     29 C           3.1205    2.0024    0.9840 C.3     1  LIG1        0.0161
     30 N           2.4666    0.7449    0.6096 N.pl3   1  LIG1       -0.3759
     31 N           2.5297    3.0903    0.1357 N.pl3   1  LIG1       -0.3413
     32 H           1.7435    8.2519   -3.1280 H       1  LIG1        0.1186
     33 H           0.7487    5.3230    7.3532 H       1  LIG1        0.1115
     34 H           8.4208    1.5943    0.2277 H       1  LIG1        0.1153
     35 H           0.3939    8.1729   -1.0475 H       1  LIG1        0.1180
     36 H           3.5053    6.5517   -3.5291 H       1  LIG1        0.1188
     37 H           2.8184    3.9603    7.4707 H       1  LIG1        0.1134
     38 H          -0.1824    5.9770    5.1480 H       1  LIG1        0.1128
     39 H           7.4388    1.0565    2.4418 H       1  LIG1        0.1152
     40 H           6.9532    2.3209   -1.6366 H       1  LIG1        0.1149
     41 H          -0.5737   -0.0200   -2.7825 H       1  LIG1        0.1162
     42 H          -0.5955    2.4036   -3.2842 H       1  LIG1        0.1128
     43 H           0.7980    6.4075    0.6282 H       1  LIG1        0.1241
     44 H           3.9226    4.7796   -1.8642 H       1  LIG1        0.1280
     45 H           3.9577    3.2518    5.3934 H       1  LIG1        0.1156
     46 H           0.9491    5.2736    3.0652 H       1  LIG1        0.1160
     47 H           4.9985    1.2423    2.7953 H       1  LIG1        0.1180
     48 H           4.5120    2.5098   -1.2932 H       1  LIG1        0.1265
     49 H           0.8578   -0.9098   -0.9562 H       1  LIG1        0.1185
     50 H           0.7967    3.9729   -2.0013 H       1  LIG1        0.1258
     51 H           3.1180    5.8550    1.9728 H       1  LIG1        0.1050
     52 H           3.1420    1.6289    3.1463 H       1  LIG1        0.0823
     53 H           1.6348    2.3053    2.5532 H       1  LIG1        0.0840
     54 H           4.2890    3.7570    3.0484 H       1  LIG1        0.0914
     55 H           2.7675   -0.1796    0.8785 H       1  LIG1        0.3083
@<TRIPOS>BOND
     1     1     4   ar
     2     1     5   ar
     3     2     6   ar
     4     2     7   ar
     5     3     8   ar
     6     3     9   ar
     7     4    12   ar
     8     5    13   ar
     9     6    14   ar
    10     7    15   ar
    11     8    16   ar
    12     9    17   ar
    13    10    11   ar
    14    10    18   ar
    15    11    19   ar
    16    12    20   ar
    17    13    20   ar
    18    14    21   ar
    19    15    21   ar
    20    16    22   ar
    21    17    22   ar
    22    18    23   ar
    23    19    24   ar
    24    20    26    1
    25    21    28    1
    26    22    29    1
    27    23    24   ar
    28    23    30    1
    29    24    31    1
    30    25    26    2
    31    25    28    1
    32    26    31    1
    33    27    28    1
    34    27    29    1
    35    29    30    1
    36    29    31    1
    37     1    32    1
    38     2    33    1
    39     3    34    1
    40     4    35    1
    41     5    36    1
    42     6    37    1
    43     7    38    1
    44     8    39    1
    45     9    40    1
    46    10    41    1
    47    11    42    1
    48    12    43    1
    49    13    44    1
    50    14    45    1
    51    15    46    1
    52    16    47    1
    53    17    48    1
    54    18    49    1
    55    19    50    1
    56    25    51    1
    57    27    52    1
    58    27    53    1
    59    28    54    1
    60    30    55    1
