@<TRIPOS>MOLECULE
AG-690/13416205
 46 49 0 0 0
SMALL
USER_CHARGES

@<TRIPOS>ATOM
      1 C           1.3128    4.6596    6.3046 C.ar    1  LIG1       -0.1006
      2 C           5.6751    7.1978   -2.4069 C.ar    1  LIG1       -0.0992
      3 C           5.8339    6.0161   -1.6889 C.ar    1  LIG1       -0.0990
      4 C           2.6716    4.8650    6.0660 C.ar    1  LIG1       -0.0936
      5 C           0.4775    4.2443    5.2675 C.ar    1  LIG1       -0.0992
      6 C           4.4010    7.7331   -2.5980 C.ar    1  LIG1       -0.0886
      7 C           4.7193    5.3655   -1.1592 C.ar    1  LIG1       -0.0859
      8 C           1.9781    7.6163   -2.2545 C.ar    1  LIG1       -0.0786
      9 C           3.1952    4.6552    4.7903 C.ar    1  LIG1       -0.0668
     10 C           1.0011    4.0344    3.9918 C.ar    1  LIG1       -0.0760
     11 C           2.2005    2.0247   -1.6262 C.ar    1  LIG1       -0.0775
     12 C           0.3525    2.5227   -0.1518 C.ar    1  LIG1       -0.0816
     13 C           0.8634    6.9657   -1.7247 C.ar    1  LIG1       -0.0596
     14 C           1.4835    0.9560   -2.1640 C.ar    1  LIG1       -0.0725
     15 C          -0.3646    1.4540   -0.6896 C.ar    1  LIG1       -0.0735
     16 C           3.2679    7.0917   -2.0719 C.ar    1  LIG1       -0.0726
     17 C           3.4294    5.8901   -1.3417 C.ar    1  LIG1       -0.0594
     18 C           2.3600    4.2399    3.7531 C.ar    1  LIG1        0.0204
     19 C           1.6351    2.8081   -0.6200 C.ar    1  LIG1       -0.0629
     20 C           2.2962    5.2486   -0.8157 C.ar    1  LIG1       -0.0218
     21 C           1.0221    5.7841   -1.0068 C.ar    1  LIG1       -0.0197
     22 C           0.2010    0.6706   -1.6958 C.ar    1  LIG1       -0.0197
     23 C           2.9176    4.0164    2.3944 C.2     1  LIG1        0.1062
     24 C           2.4153    3.9737   -0.0350 C.3     1  LIG1        0.0268
     25 N           2.0231    4.1839    1.3681 N.am    1  LIG1       -0.3257
     26 O           4.0950    3.6874    2.2758 O.2     1  LIG1       -0.4755
     27 O          -0.0813    5.1667   -0.4979 O.3     1  LIG1       -0.4326
     28 CL         -0.6834   -0.6477   -2.3595 Cl      1  LIG1       -0.1480
     29 H           0.9052    4.8231    7.2979 H       1  LIG1        0.1253
     30 H           6.5434    7.7042   -2.8182 H       1  LIG1        0.1199
     31 H           6.8260    5.5999   -1.5404 H       1  LIG1        0.1226
     32 H           3.3219    5.1886    6.8735 H       1  LIG1        0.1230
     33 H          -0.5804    4.0841    5.4535 H       1  LIG1        0.1205
     34 H           4.3007    8.6576   -3.1627 H       1  LIG1        0.1282
     35 H           4.8856    4.4448   -0.6047 H       1  LIG1        0.1254
     36 H           1.8297    8.5387   -2.8120 H       1  LIG1        0.1369
     37 H           4.2556    4.8181    4.6154 H       1  LIG1        0.1421
     38 H           0.3408    3.7109    3.1912 H       1  LIG1        0.1215
     39 H           3.1994    2.2405   -1.9962 H       1  LIG1        0.1442
     40 H          -0.0953    3.1283    0.6317 H       1  LIG1        0.1298
     41 H          -0.1263    7.3879   -1.8767 H       1  LIG1        0.1303
     42 H           1.9369    0.3546   -2.9477 H       1  LIG1        0.1285
     43 H          -1.3628    1.2435   -0.3148 H       1  LIG1        0.1302
     44 H           3.4787    3.6888    0.0237 H       1  LIG1        0.1594
     45 H           1.0542    4.3921    1.5223 H       1  LIG1        0.2982
     46 H          -0.8794    5.6704   -0.7216 H       1  LIG1        0.3512
@<TRIPOS>BOND
     1     1     4   ar
     2     1     5   ar
     3     2     3   ar
     4     2     6   ar
     5     3     7   ar
     6     4     9   ar
     7     5    10   ar
     8     6    16   ar
     9     7    17   ar
    10     8    13   ar
    11     8    16   ar
    12     9    18   ar
    13    10    18   ar
    14    11    14   ar
    15    11    19   ar
    16    12    15   ar
    17    12    19   ar
    18    13    21   ar
    19    14    22   ar
    20    15    22   ar
    21    16    17   ar
    22    17    20   ar
    23    18    23    1
    24    19    24    1
    25    20    21   ar
    26    20    24    1
    27    21    27    1
    28    22    28    1
    29    23    25   am
    30    23    26    2
    31    24    25    1
    32     1    29    1
    33     2    30    1
    34     3    31    1
    35     4    32    1
    36     5    33    1
    37     6    34    1
    38     7    35    1
    39     8    36    1
    40     9    37    1
    41    10    38    1
    42    11    39    1
    43    12    40    1
    44    13    41    1
    45    14    42    1
    46    15    43    1
    47    24    44    1
    48    25    45    1
    49    27    46    1
