@<TRIPOS>MOLECULE
AG-690/12002077
 32 33 0 0 0
SMALL
USER_CHARGES

@<TRIPOS>ATOM
      1 C           1.7411    7.3414   -2.5067 C.ar    1  LIG1       -0.1013
      2 C           3.0432    6.8418   -2.5253 C.ar    1  LIG1       -0.0995
      3 C           0.8234    6.8623   -1.5717 C.ar    1  LIG1       -0.0945
      4 C           1.4914    4.9719    6.4134 C.ar    1  LIG1       -0.1061
      5 C           0.5162    4.8296    5.4263 C.ar    1  LIG1       -0.1050
      6 C           3.4278    5.8629   -1.6090 C.ar    1  LIG1       -0.0759
      7 C           1.2080    5.8835   -0.6554 C.ar    1  LIG1       -0.0679
      8 C           2.8098    4.6002    6.1500 C.ar    1  LIG1       -0.1040
      9 C           0.8593    4.3154    4.1760 C.ar    1  LIG1       -0.0976
     10 C           2.5102    5.3837   -0.6741 C.ar    1  LIG1        0.0184
     11 C           3.1529    4.0858    4.8996 C.ar    1  LIG1       -0.1108
     12 C           2.1776    3.9436    3.9126 C.ar    1  LIG1       -0.0882
     13 C           2.9112    4.3632    0.2812 C.2     1  LIG1        0.0991
     14 C           4.5709    3.6956    4.6398 C.3     1  LIG1       -0.0413
     15 C           2.5227    3.3919    2.5595 C.3     1  LIG1       -0.0085
     16 N           2.2254    4.3299    1.5011 N.am    1  LIG1       -0.3397
     17 O           3.8386    3.5783    0.0146 O.2     1  LIG1       -0.4824
     18 H           1.4416    8.1035   -3.2201 H       1  LIG1        0.1248
     19 H           3.7574    7.2148   -3.2535 H       1  LIG1        0.1196
     20 H          -0.1904    7.2515   -1.5571 H       1  LIG1        0.1223
     21 H           1.2236    5.3715    7.3869 H       1  LIG1        0.1182
     22 H          -0.5103    5.1190    5.6322 H       1  LIG1        0.1150
     23 H           4.4450    5.4806   -1.6324 H       1  LIG1        0.1250
     24 H           0.4845    5.5173    0.0686 H       1  LIG1        0.1414
     25 H           3.5619    4.7135    6.9264 H       1  LIG1        0.1168
     26 H           0.0924    4.2087    3.4132 H       1  LIG1        0.1222
     27 H           4.7313    2.6453    4.9098 H       1  LIG1        0.0580
     28 H           4.8311    3.8283    3.5825 H       1  LIG1        0.0542
     29 H           5.2653    4.3159    5.2200 H       1  LIG1        0.0547
     30 H           3.5889    3.1465    2.5031 H       1  LIG1        0.1158
     31 H           1.9660    2.4709    2.3569 H       1  LIG1        0.1176
     32 H           1.5196    5.0334    1.6926 H       1  LIG1        0.3000
@<TRIPOS>BOND
     1     1     2   ar
     2     1     3   ar
     3     2     6   ar
     4     3     7   ar
     5     4     5   ar
     6     4     8   ar
     7     5     9   ar
     8     6    10   ar
     9     7    10   ar
    10     8    11   ar
    11     9    12   ar
    12    10    13    1
    13    11    12   ar
    14    11    14    1
    15    12    15    1
    16    13    16   am
    17    13    17    2
    18    15    16    1
    19     1    18    1
    20     2    19    1
    21     3    20    1
    22     4    21    1
    23     5    22    1
    24     6    23    1
    25     7    24    1
    26     8    25    1
    27     9    26    1
    28    14    27    1
    29    14    28    1
    30    14    29    1
    31    15    30    1
    32    15    31    1
    33    16    32    1
