@<TRIPOS>MOLECULE
AN-329/10786012
 38 40 0 0 0
SMALL
USER_CHARGES

@<TRIPOS>ATOM
      1 C           0.3098    0.6170   -2.1524 C.ar    1  LIG1       -0.1062
      2 C           2.1511    7.5526   -1.8799 C.ar    1  LIG1       -0.1053
      3 C           1.6287    0.9926   -2.4075 C.ar    1  LIG1       -0.1045
      4 C          -0.4156    1.2568   -1.1474 C.ar    1  LIG1       -0.1014
      5 C           3.0925    6.5797   -2.2156 C.ar    1  LIG1       -0.1045
      6 C           1.2033    7.2939   -0.8897 C.ar    1  LIG1       -0.1023
      7 C           0.8571    5.5349    5.3775 C.ar    1  LIG1       -0.0861
      8 C           1.5025    4.8275    6.3916 C.ar    1  LIG1       -0.0895
      9 C           2.2221    2.0081   -1.6577 C.ar    1  LIG1       -0.0957
     10 C           0.1778    2.2723   -0.3976 C.ar    1  LIG1       -0.0920
     11 C           3.0862    5.3479   -1.5610 C.ar    1  LIG1       -0.0981
     12 C           1.1970    6.0621   -0.2351 C.ar    1  LIG1       -0.0944
     13 C           1.2456    5.3605    4.0492 C.ar    1  LIG1       -0.0469
     14 C           2.5366    3.9456    6.0774 C.ar    1  LIG1       -0.0633
     15 C           1.4967    2.6480   -0.6527 C.ar    1  LIG1       -0.0655
     16 C           2.1385    5.0892   -0.5709 C.ar    1  LIG1       -0.0690
     17 C           2.2796    4.4786    3.7351 C.ar    1  LIG1        0.0526
     18 C           2.9251    3.7712    4.7492 C.ar    1  LIG1        0.0305
     19 C           1.6044    3.8617    1.5909 C.2     1  LIG1        0.1945
     20 C           2.1308    3.7336    0.1497 C.3     1  LIG1        0.1049
     21 O           0.4614    3.6282    1.9638 O.2     1  LIG1       -0.4338
     22 O           2.6471    4.3242    2.3965 O.3     1  LIG1       -0.2947
     23 CL          4.2070    2.6741    4.3896 Cl      1  LIG1       -0.1279
     24 H          -0.1526   -0.1728   -2.7373 H       1  LIG1        0.1169
     25 H           2.1569    8.5122   -2.3887 H       1  LIG1        0.1178
     26 H           2.1933    0.4953   -3.1907 H       1  LIG1        0.1167
     27 H          -1.4428    0.9654   -0.9493 H       1  LIG1        0.1165
     28 H           3.8313    6.7815   -2.9858 H       1  LIG1        0.1179
     29 H           0.4709    8.0515   -0.6273 H       1  LIG1        0.1196
     30 H           0.0519    6.2216    5.6221 H       1  LIG1        0.1341
     31 H           1.1999    4.9634    7.4258 H       1  LIG1        0.1340
     32 H           3.2503    2.2940   -1.8633 H       1  LIG1        0.1211
     33 H          -0.3950    2.7651    0.3836 H       1  LIG1        0.1233
     34 H           3.8234    4.5957   -1.8293 H       1  LIG1        0.1153
     35 H           0.4548    5.8693    0.5349 H       1  LIG1        0.1241
     36 H           0.7381    5.9149    3.2643 H       1  LIG1        0.1426
     37 H           3.0297    3.4017    6.8791 H       1  LIG1        0.1405
     38 H           3.1975    3.4764    0.3229 H       1  LIG1        0.1581
@<TRIPOS>BOND
     1     1     3   ar
     2     1     4   ar
     3     2     5   ar
     4     2     6   ar
     5     3     9   ar
     6     4    10   ar
     7     5    11   ar
     8     6    12   ar
     9     7     8   ar
    10     7    13   ar
    11     8    14   ar
    12     9    15   ar
    13    10    15   ar
    14    11    16   ar
    15    12    16   ar
    16    13    17   ar
    17    14    18   ar
    18    15    20    1
    19    16    20    1
    20    17    18   ar
    21    17    22    1
    22    18    23    1
    23    19    20    1
    24    19    21    2
    25    19    22    1
    26     1    24    1
    27     2    25    1
    28     3    26    1
    29     4    27    1
    30     5    28    1
    31     6    29    1
    32     7    30    1
    33     8    31    1
    34     9    32    1
    35    10    33    1
    36    11    34    1
    37    12    35    1
    38    13    36    1
    39    14    37    1
    40    20    38    1
