@<TRIPOS>MOLECULE
AG-690/36826012
 49 51 0 0 0
SMALL
USER_CHARGES

@<TRIPOS>ATOM
      1 C           1.8552    7.5856   -2.2094 C.ar    1  LIG1       -0.1022
      2 C           0.8184    6.9428   -1.5330 C.ar    1  LIG1       -0.0994
      3 C           3.1334    7.0272   -2.2194 C.ar    1  LIG1       -0.1010
      4 C           0.9763    4.8631    3.9083 C.ar    1  LIG1       -0.0646
      5 C           3.2260    4.3611    4.6320 C.ar    1  LIG1       -0.0655
      6 C           1.0600    5.7415   -0.8664 C.ar    1  LIG1       -0.0872
      7 C           3.3748    5.8260   -1.5527 C.ar    1  LIG1       -0.0911
      8 C           0.5296    4.7604    5.2256 C.ar    1  LIG1       -0.0879
      9 C           2.7793    4.2584    5.9495 C.ar    1  LIG1       -0.0914
     10 C           2.3245    4.6634    3.6115 C.ar    1  LIG1        0.0378
     11 C           2.3382    5.1831   -0.8763 C.ar    1  LIG1       -0.0505
     12 C           1.4311    4.4581    6.2462 C.ar    1  LIG1       -0.1074
     13 C           1.1387    2.2237    0.5728 C.2     1  LIG1        0.1437
     14 C           2.7985    4.7723    2.2179 C.2     1  LIG1        0.1686
     15 C           1.7381    2.7383   -0.7014 C.3     1  LIG1        0.0800
     16 C           2.6021    3.8739   -0.1497 C.3     1  LIG1        0.0817
     17 C          -0.5819    4.6110    7.7530 C.3     1  LIG1       -0.0611
     18 C           1.6668    5.3867    8.5762 C.3     1  LIG1       -0.0612
     19 C           1.1830    2.9598    8.3366 C.3     1  LIG1       -0.0611
     20 C           0.9531    4.3494    7.6549 C.3     1  LIG1       -0.0598
     21 C           0.2505    1.0249    0.5720 C.3     1  LIG1        0.4009
     22 N           1.4184    2.8888    1.6478 N.2     1  LIG1       -0.2737
     23 N           2.2483    3.9098    1.2793 N.am    1  LIG1       -0.2179
     24 O           3.6553    5.6207    1.9761 O.2     1  LIG1       -0.4421
     25 O           3.9731    3.4878   -0.2379 O.3     1  LIG1       -0.4384
     26 F           0.0983    0.5315   -0.6759 F       1  LIG1       -0.1609
     27 F           0.7583    0.0389    1.3426 F       1  LIG1       -0.1606
     28 F          -0.9784    1.3227    1.0466 F       1  LIG1       -0.1604
     29 H           1.6666    8.5203   -2.7296 H       1  LIG1        0.1223
     30 H          -0.1771    7.3769   -1.5261 H       1  LIG1        0.1219
     31 H           3.9405    7.5269   -2.7469 H       1  LIG1        0.1197
     32 H           0.2658    5.0992    3.1205 H       1  LIG1        0.1413
     33 H           4.2788    4.2034    4.4125 H       1  LIG1        0.1581
     34 H           0.2461    5.2477   -0.3419 H       1  LIG1        0.1305
     35 H           4.3739    5.3984   -1.5658 H       1  LIG1        0.1162
     36 H          -0.5224    4.9178    5.4479 H       1  LIG1        0.1228
     37 H           3.4888    4.0229    6.7385 H       1  LIG1        0.1241
     38 H           2.3144    1.9487   -1.1920 H       1  LIG1        0.1316
     39 H           0.9250    3.0731   -1.3536 H       1  LIG1        0.1341
     40 H          -0.9594    4.5370    8.7796 H       1  LIG1        0.0383
     41 H          -0.8429    5.6101    7.3874 H       1  LIG1        0.0414
     42 H          -1.1303    3.8836    7.1426 H       1  LIG1        0.0389
     43 H           1.3185    5.3102    9.6119 H       1  LIG1        0.0392
     44 H           2.7555    5.2587    8.5944 H       1  LIG1        0.0396
     45 H           1.4567    6.4066    8.2329 H       1  LIG1        0.0391
     46 H           0.8154    2.9299    9.3693 H       1  LIG1        0.0389
     47 H           0.6643    2.1654    7.7875 H       1  LIG1        0.0414
     48 H           2.2506    2.7127    8.3677 H       1  LIG1        0.0385
     49 H           4.4930    4.1995    0.1703 H       1  LIG1        0.3549
@<TRIPOS>BOND
     1     1     2   ar
     2     1     3   ar
     3     2     6   ar
     4     3     7   ar
     5     4     8   ar
     6     4    10   ar
     7     5     9   ar
     8     5    10   ar
     9     6    11   ar
    10     7    11   ar
    11     8    12   ar
    12     9    12   ar
    13    10    14    1
    14    11    16    1
    15    12    20    1
    16    13    15    1
    17    13    21    1
    18    13    22    2
    19    14    23   am
    20    14    24    2
    21    15    16    1
    22    16    23    1
    23    16    25    1
    24    17    20    1
    25    18    20    1
    26    19    20    1
    27    21    26    1
    28    21    27    1
    29    21    28    1
    30    22    23    1
    31     1    29    1
    32     2    30    1
    33     3    31    1
    34     4    32    1
    35     5    33    1
    36     6    34    1
    37     7    35    1
    38     8    36    1
    39     9    37    1
    40    15    38    1
    41    15    39    1
    42    17    40    1
    43    17    41    1
    44    17    42    1
    45    18    43    1
    46    18    44    1
    47    18    45    1
    48    19    46    1
    49    19    47    1
    50    19    48    1
    51    25    49    1
