@<TRIPOS>MOLECULE
AG-690/37099119
 40 41 0 0 0
SMALL
USER_CHARGES

@<TRIPOS>ATOM
      1 C           1.0315    4.8997    3.8115 C.ar    1  LIG1       -0.0698
      2 C           3.1453    4.0663    4.6330 C.ar    1  LIG1       -0.0672
      3 C           2.2375    1.6175   -1.6184 C.ar    1  LIG1       -0.0618
      4 C           0.3834    2.7239   -0.5343 C.ar    1  LIG1       -0.0746
      5 C           1.4402    0.4938   -1.8353 C.ar    1  LIG1       -0.0565
      6 C          -0.4140    1.6002   -0.7514 C.ar    1  LIG1       -0.0714
      7 C           0.5597    4.9934    5.1207 C.ar    1  LIG1       -0.0762
      8 C           2.6734    4.1600    5.9422 C.ar    1  LIG1       -0.0743
      9 C           2.3243    4.4360    3.5676 C.ar    1  LIG1       -0.0001
     10 C           1.7091    2.7326   -0.9678 C.ar    1  LIG1       -0.0678
     11 C           0.1144    0.4851   -1.4018 C.ar    1  LIG1       -0.0196
     12 C           1.3806    4.6237    6.1862 C.ar    1  LIG1       -0.0384
     13 C           2.2856    5.3050    1.1773 C.2     1  LIG1        0.0019
     14 C           2.8259    4.3363    2.1756 C.2     1  LIG1        0.0839
     15 C           2.1674    5.0332   -0.1370 C.2     1  LIG1       -0.0696
     16 C           2.7325    6.9901   -1.6274 C.3     1  LIG1       -0.0531
     17 C          -0.0598   -1.7163   -2.2846 C.3     1  LIG1        0.0194
     18 C           1.6272    6.1084   -1.0609 C.3     1  LIG1       -0.0151
     19 N           2.5080    3.8583   -0.7504 N.pl3   1  LIG1       -0.3701
     20 O           3.6755    3.4979    1.8983 O.2     1  LIG1       -0.4686
     21 O          -0.6636   -0.6114   -1.6135 O.3     1  LIG1       -0.4264
     22 BR          0.7413    4.7507    7.9601 Br      1  LIG1       -0.1054
     23 H           0.3833    5.1905    2.9888 H       1  LIG1        0.1419
     24 H           4.1542    3.7037    4.4543 H       1  LIG1        0.1456
     25 H           3.2694    1.6135   -1.9604 H       1  LIG1        0.1299
     26 H          -0.0385    3.5873   -0.0264 H       1  LIG1        0.1190
     27 H           1.8574   -0.3718   -2.3426 H       1  LIG1        0.1347
     28 H          -1.4460    1.5993   -0.4113 H       1  LIG1        0.1165
     29 H          -0.4502    5.3566    5.2937 H       1  LIG1        0.1355
     30 H           3.3258    3.8679    6.7612 H       1  LIG1        0.1360
     31 H           1.9867    6.2805    1.5499 H       1  LIG1        0.1235
     32 H           3.4728    6.4008   -2.1785 H       1  LIG1        0.0431
     33 H           2.3249    7.7475   -2.3055 H       1  LIG1        0.0365
     34 H           3.2535    7.5085   -0.8160 H       1  LIG1        0.0386
     35 H          -0.7893   -2.5232   -2.3887 H       1  LIG1        0.1200
     36 H           0.8042   -2.0633   -1.7122 H       1  LIG1        0.0865
     37 H           0.2677   -1.3943   -3.2759 H       1  LIG1        0.0865
     38 H           0.9046    6.7293   -0.5162 H       1  LIG1        0.0789
     39 H           1.0708    5.6635   -1.8954 H       1  LIG1        0.0761
     40 H           3.4595    3.8190   -1.0811 H       1  LIG1        0.3320
@<TRIPOS>BOND
     1     1     7   ar
     2     1     9   ar
     3     2     8   ar
     4     2     9   ar
     5     3     5   ar
     6     3    10   ar
     7     4     6   ar
     8     4    10   ar
     9     5    11   ar
    10     6    11   ar
    11     7    12   ar
    12     8    12   ar
    13     9    14    1
    14    10    19    1
    15    11    21    1
    16    12    22    1
    17    13    14    1
    18    13    15    2
    19    14    20    2
    20    15    18    1
    21    15    19    1
    22    16    18    1
    23    17    21    1
    24     1    23    1
    25     2    24    1
    26     3    25    1
    27     4    26    1
    28     5    27    1
    29     6    28    1
    30     7    29    1
    31     8    30    1
    32    13    31    1
    33    16    32    1
    34    16    33    1
    35    16    34    1
    36    17    35    1
    37    17    36    1
    38    17    37    1
    39    18    38    1
    40    18    39    1
    41    19    40    1
