@<TRIPOS>MOLECULE
AG-690/33361026
 37 40 0 0 0
SMALL
USER_CHARGES

@<TRIPOS>ATOM
      1 C          -0.1789    0.5956   -1.7267 C.ar    1  LIG1       -0.1075
      2 C           2.0757    3.7360    5.6530 C.ar    1  LIG1       -0.0892
      3 C           1.1068    0.1003   -1.5094 C.ar    1  LIG1       -0.1047
      4 C          -0.4478    1.9495   -1.5258 C.ar    1  LIG1       -0.1065
      5 C           1.6194    5.0516    5.6116 C.ar    1  LIG1       -0.0829
      6 C           1.5870    7.2167   -2.1354 C.ar    1  LIG1       -0.0759
      7 C           2.4586    3.0935    4.4766 C.ar    1  LIG1       -0.0632
      8 C           2.1236    0.9588   -1.0912 C.ar    1  LIG1       -0.0979
      9 C           0.5689    2.8080   -1.1076 C.ar    1  LIG1       -0.1003
     10 C           1.5461    5.7272    4.3926 C.ar    1  LIG1       -0.0491
     11 C           1.0577    6.6178   -0.9674 C.ar    1  LIG1       -0.0465
     12 C           2.9297    6.9184   -2.1427 C.ar    1  LIG1        0.0104
     13 C           2.3825    3.7754    3.2567 C.ar    1  LIG1        0.0558
     14 C           1.8546    2.3127   -0.8903 C.ar    1  LIG1       -0.0859
     15 C           1.9270    5.0949    3.2033 C.ar    1  LIG1       -0.0016
     16 C           2.1146    5.9959   -0.3444 C.ar    1  LIG1        0.1055
     17 C           2.7781    3.1077    1.9986 C.ar    1  LIG1        0.1457
     18 C           2.1920    5.2124    0.9027 C.ar    1  LIG1        0.1016
     19 C           2.9485    3.2372   -0.4400 C.3     1  LIG1        0.0341
     20 N           1.8466    5.8095    2.0014 N.ar    1  LIG1       -0.3347
     21 N           2.6308    3.8813    0.8366 N.ar    1  LIG1       -0.2472
     22 O           3.2007    1.9554    2.0385 O.2     1  LIG1       -0.4585
     23 O           3.2594    6.1745   -1.0545 O.2     1  LIG1       -0.3571
     24 H          -0.9701   -0.0727   -2.0535 H       1  LIG1        0.1172
     25 H           2.1325    3.2106    6.6020 H       1  LIG1        0.1244
     26 H           1.3167   -0.9537   -1.6668 H       1  LIG1        0.1157
     27 H          -1.4485    2.3358   -1.6959 H       1  LIG1        0.1146
     28 H           1.3211    5.5522    6.5281 H       1  LIG1        0.1375
     29 H           1.0564    7.7943   -2.8785 H       1  LIG1        0.1264
     30 H           2.8097    2.0667    4.5298 H       1  LIG1        0.1461
     31 H           3.1223    0.5640   -0.9242 H       1  LIG1        0.1265
     32 H           0.3500    3.8614   -0.9536 H       1  LIG1        0.1231
     33 H           1.1895    6.7545    4.3762 H       1  LIG1        0.1455
     34 H           0.0325    6.6393   -0.6258 H       1  LIG1        0.1575
     35 H           3.7432    7.1495   -2.8148 H       1  LIG1        0.2304
     36 H           3.8898    2.6906   -0.3170 H       1  LIG1        0.1514
     37 H           3.1248    4.0265   -1.1784 H       1  LIG1        0.1396
@<TRIPOS>BOND
     1     1     3   ar
     2     1     4   ar
     3     2     5   ar
     4     2     7   ar
     5     3     8   ar
     6     4     9   ar
     7     5    10   ar
     8     6    11   ar
     9     6    12   ar
    10     7    13   ar
    11     8    14   ar
    12     9    14   ar
    13    10    15   ar
    14    11    16   ar
    15    12    23   ar
    16    13    15   ar
    17    13    17   ar
    18    14    19    1
    19    15    20   ar
    20    16    18    1
    21    16    23   ar
    22    17    21   ar
    23    17    22    2
    24    18    20   ar
    25    18    21   ar
    26    19    21    1
    27     1    24    1
    28     2    25    1
    29     3    26    1
    30     4    27    1
    31     5    28    1
    32     6    29    1
    33     7    30    1
    34     8    31    1
    35     9    32    1
    36    10    33    1
    37    11    34    1
    38    12    35    1
    39    19    36    1
    40    19    37    1
