@<TRIPOS>MOLECULE
AN-652/41399020
 28 29 0 0 0
SMALL
USER_CHARGES

@<TRIPOS>ATOM
      1 C           1.2445    4.8019    6.4157 C.ar    1  LIG1       -0.1059
      2 C           3.0905    7.0518   -2.1251 C.ar    1  LIG1       -0.0866
      3 C           2.5017    4.1977    6.4193 C.ar    1  LIG1       -0.1034
      4 C           0.5858    5.0342    5.2084 C.ar    1  LIG1       -0.1034
      5 C           1.7254    7.1806   -2.3811 C.ar    1  LIG1       -0.0877
      6 C           3.5409    6.1095   -1.2005 C.ar    1  LIG1       -0.0562
      7 C           3.1002    3.8259    5.2155 C.ar    1  LIG1       -0.0954
      8 C           1.1842    4.6625    4.0046 C.ar    1  LIG1       -0.0954
      9 C           0.8107    6.3670   -1.7125 C.ar    1  LIG1       -0.0613
     10 C           2.6261    5.2959   -0.5319 C.ar    1  LIG1        0.0653
     11 C           2.4415    4.0584    4.0081 C.ar    1  LIG1       -0.0745
     12 C           1.2610    5.4247   -0.7880 C.ar    1  LIG1        0.0282
     13 C           3.1430    4.3256    0.4256 C.2     1  LIG1        0.1888
     14 C           3.0848    3.6590    2.7126 C.3     1  LIG1        0.0547
     15 O           3.9301    3.4162    0.1400 O.2     1  LIG1       -0.4386
     16 O           2.6481    4.5492    1.6800 O.3     1  LIG1       -0.3385
     17 CL          0.0957    4.4372    0.0180 Cl      1  LIG1       -0.1064
     18 H           0.7780    5.0900    7.3533 H       1  LIG1        0.1187
     19 H           3.8025    7.6856   -2.6456 H       1  LIG1        0.1293
     20 H           3.0143    4.0156    7.3594 H       1  LIG1        0.1174
     21 H          -0.3935    5.5036    5.2054 H       1  LIG1        0.1174
     22 H           1.3749    7.9143   -3.1011 H       1  LIG1        0.1403
     23 H           4.6074    6.0194   -1.0102 H       1  LIG1        0.1527
     24 H           4.0801    3.3559    5.2278 H       1  LIG1        0.1230
     25 H           0.6636    4.8477    3.0687 H       1  LIG1        0.1230
     26 H          -0.2497    6.4800   -1.9236 H       1  LIG1        0.1383
     27 H           4.1766    3.7059    2.7866 H       1  LIG1        0.1280
     28 H           2.8096    2.6336    2.4430 H       1  LIG1        0.1280
@<TRIPOS>BOND
     1     1     3   ar
     2     1     4   ar
     3     2     5   ar
     4     2     6   ar
     5     3     7   ar
     6     4     8   ar
     7     5     9   ar
     8     6    10   ar
     9     7    11   ar
    10     8    11   ar
    11     9    12   ar
    12    10    12   ar
    13    10    13    1
    14    11    14    1
    15    12    17    1
    16    13    15    2
    17    13    16    1
    18    14    16    1
    19     1    18    1
    20     2    19    1
    21     3    20    1
    22     4    21    1
    23     5    22    1
    24     6    23    1
    25     7    24    1
    26     8    25    1
    27     9    26    1
    28    14    27    1
    29    14    28    1
