@<TRIPOS>MOLECULE
AG-690/08755031
 39 40 0 0 0
SMALL
USER_CHARGES

@<TRIPOS>ATOM
      1 C           2.0082    7.6177   -2.2442 C.ar    1  LIG1       -0.1083
      2 C           1.0573    7.2499   -1.2923 C.ar    1  LIG1       -0.1070
      3 C           3.0967    6.7841   -2.5008 C.ar    1  LIG1       -0.1063
      4 C           1.1949    6.0486   -0.5970 C.ar    1  LIG1       -0.1000
      5 C           3.2345    5.5828   -1.8055 C.ar    1  LIG1       -0.0983
      6 C           0.2563    2.8722   -0.7602 C.ar    1  LIG1       -0.0867
      7 C           2.2958    1.6306   -1.1288 C.ar    1  LIG1       -0.0977
      8 C          -0.4821    1.8202   -1.3022 C.ar    1  LIG1       -0.0585
      9 C           1.5574    0.5785   -1.6707 C.ar    1  LIG1       -0.0717
     10 C           2.2835    5.2150   -0.8536 C.ar    1  LIG1       -0.0796
     11 C           1.6452    2.7774   -0.6736 C.ar    1  LIG1       -0.0771
     12 C           0.1685    0.6733   -1.7573 C.ar    1  LIG1       -0.0134
     13 C          -1.9952   -2.5610   -3.5622 C.3     1  LIG1       -0.0634
     14 C          -1.6368   -0.5407   -5.0068 C.3     1  LIG1       -0.0647
     15 C           0.0840   -1.1500   -3.2818 C.3     1  LIG1        0.0146
     16 C           2.4348    3.9018   -0.0938 C.3     1  LIG1        0.0160
     17 C          -0.9542   -1.6904   -4.2691 C.3     1  LIG1       -0.0480
     18 O           3.8350    3.5911    0.0321 O.3     1  LIG1       -0.4693
     19 O          -0.5573   -0.3608   -2.2884 O.3     1  LIG1       -0.4152
     20 H           1.9001    8.5525   -2.7865 H       1  LIG1        0.1145
     21 H           0.2090    7.8983   -1.0931 H       1  LIG1        0.1157
     22 H           3.8367    7.0696   -3.2427 H       1  LIG1        0.1165
     23 H           0.4492    5.7702    0.1431 H       1  LIG1        0.1129
     24 H           4.0858    4.9396   -2.0120 H       1  LIG1        0.1187
     25 H          -0.2588    3.7619   -0.4082 H       1  LIG1        0.1328
     26 H           3.3778    1.5481   -1.0653 H       1  LIG1        0.1220
     27 H          -1.5640    1.8998   -1.3667 H       1  LIG1        0.1282
     28 H           2.0700   -0.3122   -2.0231 H       1  LIG1        0.1107
     29 H          -2.5428   -1.9790   -2.8131 H       1  LIG1        0.0357
     30 H          -1.5235   -3.4084   -3.0529 H       1  LIG1        0.0412
     31 H          -2.7279   -2.9574   -4.2727 H       1  LIG1        0.0353
     32 H          -2.1615    0.1157   -4.3046 H       1  LIG1        0.0350
     33 H          -2.3738   -0.9208   -5.7222 H       1  LIG1        0.0323
     34 H          -0.9102    0.0657   -5.5585 H       1  LIG1        0.0379
     35 H           0.6007   -1.9737   -2.7781 H       1  LIG1        0.0977
     36 H           0.8293   -0.5302   -3.7918 H       1  LIG1        0.0984
     37 H           2.1194    4.0849    0.9504 H       1  LIG1        0.1600
     38 H          -0.4408   -2.3242   -5.0033 H       1  LIG1        0.0637
     39 H           4.2240    4.3287    0.5189 H       1  LIG1        0.3252
@<TRIPOS>BOND
     1     1     2   ar
     2     1     3   ar
     3     2     4   ar
     4     3     5   ar
     5     4    10   ar
     6     5    10   ar
     7     6     8   ar
     8     6    11   ar
     9     7     9   ar
    10     7    11   ar
    11     8    12   ar
    12     9    12   ar
    13    10    16    1
    14    11    16    1
    15    12    19    1
    16    13    17    1
    17    14    17    1
    18    15    17    1
    19    15    19    1
    20    16    18    1
    21     1    20    1
    22     2    21    1
    23     3    22    1
    24     4    23    1
    25     5    24    1
    26     6    25    1
    27     7    26    1
    28     8    27    1
    29     9    28    1
    30    13    29    1
    31    13    30    1
    32    13    31    1
    33    14    32    1
    34    14    33    1
    35    14    34    1
    36    15    35    1
    37    15    36    1
    38    16    37    1
    39    17    38    1
    40    18    39    1
