@<TRIPOS>MOLECULE
AG-690/37099112
 44 46 0 0 0
SMALL
USER_CHARGES

@<TRIPOS>ATOM
      1 C           2.7029    4.2759    5.8986 C.ar    1  LIG1       -0.0993
      2 C           1.3531    4.4698    6.1920 C.ar    1  LIG1       -0.1026
      3 C           3.1528    4.3813    4.5825 C.ar    1  LIG1       -0.0570
      4 C           1.3463    6.0589   -0.4810 C.ar    1  LIG1       -0.0751
      5 C           3.1035    5.5203   -2.0492 C.ar    1  LIG1       -0.0772
      6 C           0.4532    4.7692    5.1691 C.ar    1  LIG1       -0.0632
      7 C           1.1130    7.2580   -1.1543 C.ar    1  LIG1       -0.0764
      8 C           2.8701    6.7194   -2.7226 C.ar    1  LIG1       -0.0768
      9 C           2.2530    4.6807    3.5597 C.ar    1  LIG1        0.0795
     10 C           2.3417    5.1901   -0.9284 C.ar    1  LIG1       -0.0422
     11 C           0.9031    4.8747    3.8529 C.ar    1  LIG1        0.0255
     12 C           1.8748    7.5882   -2.2751 C.ar    1  LIG1       -0.0387
     13 C           1.1242    2.2314    0.5070 C.2     1  LIG1       -0.0103
     14 C           2.7503    4.7874    2.1742 C.2     1  LIG1        0.1707
     15 C           1.7440    2.7443   -0.7580 C.3     1  LIG1        0.0548
     16 C           2.5961    3.8832   -0.1944 C.3     1  LIG1        0.0773
     17 C           0.0749    0.5074   -0.9182 C.3     1  LIG1       -0.0497
     18 C          -1.3500    5.3513    3.2598 C.3     1  LIG1        0.0310
     19 C           0.2388    1.0306    0.4939 C.3     1  LIG1       -0.0044
     20 N           1.3842    2.8995    1.5851 N.2     1  LIG1       -0.3184
     21 N           2.2180    3.9216    1.2283 N.am    1  LIG1       -0.2343
     22 O           3.6092    5.6371    1.9449 O.2     1  LIG1       -0.4426
     23 O           3.9692    3.4998   -0.2585 O.3     1  LIG1       -0.4416
     24 O           0.0089    5.1698    2.8676 O.3     1  LIG1       -0.4004
     25 BR          1.5583    9.2132   -3.1865 Br      1  LIG1       -0.1084
     26 H           3.4036    4.0428    6.6954 H       1  LIG1        0.1104
     27 H           1.0034    4.3870    7.2167 H       1  LIG1        0.1318
     28 H           4.2071    4.2286    4.3658 H       1  LIG1        0.1749
     29 H           0.7478    5.8098    0.3913 H       1  LIG1        0.1394
     30 H           3.8817    4.8500   -2.4044 H       1  LIG1        0.1286
     31 H          -0.5970    4.9192    5.4043 H       1  LIG1        0.1124
     32 H           0.3342    7.9243   -0.7919 H       1  LIG1        0.1375
     33 H           3.4722    6.9617   -3.5942 H       1  LIG1        0.1355
     34 H           2.3304    1.9550   -1.2369 H       1  LIG1        0.1223
     35 H           0.9414    3.0759   -1.4248 H       1  LIG1        0.1189
     36 H          -0.3677    1.2743   -1.5613 H       1  LIG1        0.0399
     37 H          -0.5743   -0.3745   -0.9372 H       1  LIG1        0.0399
     38 H           1.0405    0.2173   -1.3452 H       1  LIG1        0.0423
     39 H          -1.9562    5.5813    2.3802 H       1  LIG1        0.0905
     40 H          -1.4153    6.1673    3.9840 H       1  LIG1        0.1236
     41 H          -1.7137    4.4291    3.7191 H       1  LIG1        0.0901
     42 H           0.6810    0.2661    1.1392 H       1  LIG1        0.0956
     43 H          -0.7308    1.3180    0.9108 H       1  LIG1        0.0954
     44 H           4.4805    4.2136    0.1570 H       1  LIG1        0.3509
@<TRIPOS>BOND
     1     1     2   ar
     2     1     3   ar
     3     2     6   ar
     4     3     9   ar
     5     4     7   ar
     6     4    10   ar
     7     5     8   ar
     8     5    10   ar
     9     6    11   ar
    10     7    12   ar
    11     8    12   ar
    12     9    11   ar
    13     9    14    1
    14    10    16    1
    15    11    24    1
    16    12    25    1
    17    13    15    1
    18    13    19    1
    19    13    20    2
    20    14    21   am
    21    14    22    2
    22    15    16    1
    23    16    21    1
    24    16    23    1
    25    17    19    1
    26    18    24    1
    27    20    21    1
    28     1    26    1
    29     2    27    1
    30     3    28    1
    31     4    29    1
    32     5    30    1
    33     6    31    1
    34     7    32    1
    35     8    33    1
    36    15    34    1
    37    15    35    1
    38    17    36    1
    39    17    37    1
    40    17    38    1
    41    18    39    1
    42    18    40    1
    43    18    41    1
    44    19    42    1
    45    19    43    1
    46    23    44    1
