@<TRIPOS>MOLECULE
AG-690/11557638
 45 48 0 0 0
SMALL
USER_CHARGES

@<TRIPOS>ATOM
      1 C           0.5878    0.7837   -2.4257 C.ar    1  LIG1       -0.1023
      2 C           1.8712    1.3255   -2.3582 C.ar    1  LIG1       -0.0967
      3 C          -0.3819    1.1697   -1.5003 C.ar    1  LIG1       -0.1001
      4 C           1.4250    7.1301   -2.4015 C.ar    1  LIG1       -0.0665
      5 C           2.1852    2.2535   -1.3652 C.ar    1  LIG1       -0.0812
      6 C          -0.0680    2.0978   -0.5074 C.ar    1  LIG1       -0.0857
      7 C           1.1889    6.3997   -1.2368 C.ar    1  LIG1       -0.0523
      8 C           0.7126    4.8822    4.7495 C.ar    1  LIG1       -0.0656
      9 C           3.0050    4.1193    4.7392 C.ar    1  LIG1       -0.0679
     10 C           2.6893    7.1140   -2.9905 C.ar    1  LIG1       -0.0382
     11 C           0.7331    4.9252    6.1435 C.ar    1  LIG1       -0.0591
     12 C           3.0255    4.1623    6.1332 C.ar    1  LIG1       -0.0534
     13 C           3.4815    5.6376   -1.2499 C.ar    1  LIG1       -0.0096
     14 C           1.2155    2.6397   -0.4398 C.ar    1  LIG1       -0.0551
     15 C           1.8485    4.4793    4.0474 C.ar    1  LIG1       -0.0199
     16 C           2.2172    5.6536   -0.6610 C.ar    1  LIG1       -0.0108
     17 C           3.7176    6.3679   -2.4147 C.ar    1  LIG1        0.0742
     18 C           1.8896    4.5652    6.8354 C.ar    1  LIG1       -0.0106
     19 C           1.9735    4.9037    0.5343 C.ar    1  LIG1        0.0087
     20 C           1.5400    3.6000    0.5863 C.ar    1  LIG1       -0.0152
     21 C           1.8273    4.4348    2.6054 C.ar    1  LIG1        0.0136
     22 C           0.7136    5.0282    8.8500 C.3     1  LIG1        0.0253
     23 N           2.1507    5.4176    1.7945 N.ar    1  LIG1       -0.3572
     24 N           1.4515    3.3134    1.9194 N.ar    1  LIG1       -0.3208
     25 N           5.0047    6.3525   -3.0144 N.pl3   1  LIG1       -0.0597
     26 O           5.1954    7.0170   -4.0616 O.2     1  LIG1       -0.1714
     27 O           5.9160    5.6751   -2.4807 O.2     1  LIG1       -0.2630
     28 O           1.9096    4.6071    8.1957 O.3     1  LIG1       -0.4157
     29 H           0.3432    0.0615   -3.1992 H       1  LIG1        0.1210
     30 H           2.6263    1.0245   -3.0787 H       1  LIG1        0.1219
     31 H          -1.3816    0.7487   -1.5536 H       1  LIG1        0.1200
     32 H           0.6238    7.7104   -2.8503 H       1  LIG1        0.1463
     33 H           3.1895    2.6688   -1.3275 H       1  LIG1        0.1286
     34 H          -0.8346    2.3877    0.2073 H       1  LIG1        0.1211
     35 H           0.1977    6.4231   -0.7904 H       1  LIG1        0.1568
     36 H          -0.1966    5.1659    4.2246 H       1  LIG1        0.1519
     37 H           3.8986    3.8030    4.2062 H       1  LIG1        0.1302
     38 H           2.8598    7.6881   -3.8979 H       1  LIG1        0.1658
     39 H          -0.1549    5.2399    6.6850 H       1  LIG1        0.1184
     40 H           3.9292    3.8807    6.6667 H       1  LIG1        0.1320
     41 H           4.2852    5.0559   -0.8016 H       1  LIG1        0.1783
     42 H           0.8658    5.0162    9.9320 H       1  LIG1        0.1230
     43 H          -0.1062    4.3582    8.5791 H       1  LIG1        0.0913
     44 H           0.4721    6.0444    8.5296 H       1  LIG1        0.0910
     45 H           1.1605    2.4330    2.3247 H       1  LIG1        0.3588
@<TRIPOS>BOND
     1     1     2   ar
     2     1     3   ar
     3     2     5   ar
     4     3     6   ar
     5     4     7   ar
     6     4    10   ar
     7     5    14   ar
     8     6    14   ar
     9     7    16   ar
    10     8    11   ar
    11     8    15   ar
    12     9    12   ar
    13     9    15   ar
    14    10    17   ar
    15    11    18   ar
    16    12    18   ar
    17    13    16   ar
    18    13    17   ar
    19    14    20    1
    20    15    21    1
    21    16    19    1
    22    17    25    1
    23    18    28    1
    24    19    20   ar
    25    19    23   ar
    26    20    24   ar
    27    21    23   ar
    28    21    24   ar
    29    22    28    1
    30    25    26    1
    31    25    27    2
    32     1    29    1
    33     2    30    1
    34     3    31    1
    35     4    32    1
    36     5    33    1
    37     6    34    1
    38     7    35    1
    39     8    36    1
    40     9    37    1
    41    10    38    1
    42    11    39    1
    43    12    40    1
    44    13    41    1
    45    22    42    1
    46    22    43    1
    47    22    44    1
    48    24    45    1
