@<TRIPOS>MOLECULE
AN-465/41988230
 41 43 0 0 0
SMALL
USER_CHARGES

@<TRIPOS>ATOM
      1 C           0.9378    0.5187   -1.6553 C.ar    1  LIG1       -0.0934
      2 C           2.7135    7.4026   -2.6971 C.ar    1  LIG1       -0.0938
      3 C          -0.0431    1.4297   -2.0470 C.ar    1  LIG1       -0.0980
      4 C           1.9188    0.9006   -0.7402 C.ar    1  LIG1       -0.0926
      5 C           1.5592    7.7217   -1.9820 C.ar    1  LIG1       -0.0990
      6 C           3.2946    6.1423   -2.5571 C.ar    1  LIG1       -0.0927
      7 C           2.2716    4.4159    6.3267 C.ar    1  LIG1       -0.0676
      8 C          -0.0431    2.7226   -1.5236 C.ar    1  LIG1       -0.1061
      9 C           1.9190    2.1935   -0.2168 C.ar    1  LIG1       -0.0963
     10 C           0.9860    6.7805   -1.1269 C.ar    1  LIG1       -0.1071
     11 C           2.7215    5.2010   -1.7019 C.ar    1  LIG1       -0.0966
     12 C           3.0833    4.1832    5.2166 C.ar    1  LIG1       -0.0300
     13 C           0.8941    4.5648    6.1647 C.ar    1  LIG1       -0.0562
     14 C           0.9380    3.1046   -0.6084 C.ar    1  LIG1       -0.1173
     15 C           1.5671    5.5202   -0.9869 C.ar    1  LIG1       -0.1180
     16 C           1.1402    4.2484    3.7822 C.ar    1  LIG1       -0.0491
     17 C           2.5176    4.0994    3.9443 C.ar    1  LIG1        0.0747
     18 C           0.3285    4.4810    4.8925 C.ar    1  LIG1       -0.0021
     19 C           0.5677    4.1523    2.3988 C.3     1  LIG1       -0.0723
     20 C           0.9388    4.4869   -0.0485 C.3     1  LIG1       -0.0785
     21 N           1.5063    4.6003    1.3522 N.4     1  LIG1        0.4316
     22 F           3.3075    3.8761    2.8845 F       1  LIG1       -0.2526
     23 CL         -1.3797    4.6718    4.7320 Cl      1  LIG1       -0.1167
     24 H           0.9369   -0.4884   -2.0620 H       1  LIG1        0.1332
     25 H           3.1589    8.1351   -3.3639 H       1  LIG1        0.1332
     26 H          -0.8077    1.1323   -2.7587 H       1  LIG1        0.1300
     27 H           2.6821    0.1913   -0.4342 H       1  LIG1        0.1322
     28 H           1.1059    8.7026   -2.0918 H       1  LIG1        0.1292
     29 H           4.1927    5.8931   -3.1145 H       1  LIG1        0.1320
     30 H           2.7128    4.4815    7.3168 H       1  LIG1        0.1632
     31 H          -0.8112    3.4259   -1.8346 H       1  LIG1        0.1088
     32 H           2.6873    2.4822    0.4956 H       1  LIG1        0.1315
     33 H           0.0867    7.0380   -0.5736 H       1  LIG1        0.1090
     34 H           3.1812    4.2216   -1.5991 H       1  LIG1        0.1317
     35 H           4.1557    4.0673    5.3427 H       1  LIG1        0.1522
     36 H           0.2752    4.7457    7.0400 H       1  LIG1        0.1517
     37 H           0.2935    3.1204    2.1545 H       1  LIG1        0.1151
     38 H          -0.3321    4.7691    2.2993 H       1  LIG1        0.1158
     39 H          -0.1096    4.7959    0.1277 H       1  LIG1        0.1380
     40 H           1.7686    5.5749    1.5007 H       1  LIG1        0.1639
     41 H           2.3649    4.0501    1.3828 H       1  LIG1        0.1592
@<TRIPOS>BOND
     1     1     3   ar
     2     1     4   ar
     3     2     5   ar
     4     2     6   ar
     5     3     8   ar
     6     4     9   ar
     7     5    10   ar
     8     6    11   ar
     9     7    12   ar
    10     7    13   ar
    11     8    14   ar
    12     9    14   ar
    13    10    15   ar
    14    11    15   ar
    15    12    17   ar
    16    13    18   ar
    17    14    20    1
    18    15    20    1
    19    16    17   ar
    20    16    18   ar
    21    16    19    1
    22    17    22    1
    23    18    23    1
    24    19    21    1
    25    20    21    1
    26     1    24    1
    27     2    25    1
    28     3    26    1
    29     4    27    1
    30     5    28    1
    31     6    29    1
    32     7    30    1
    33     8    31    1
    34     9    32    1
    35    10    33    1
    36    11    34    1
    37    12    35    1
    38    13    36    1
    39    19    37    1
    40    19    38    1
    41    20    39    1
    42    21    40    1
    43    21    41    1
