@<TRIPOS>MOLECULE
AG-205/37081086
 44 46 0 0 0
SMALL
USER_CHARGES

@<TRIPOS>ATOM
      1 C           0.5299    4.7614    5.2243 C.ar    1  LIG1       -0.0875
      2 C           0.9782    4.8646    3.9076 C.ar    1  LIG1       -0.0582
      3 C           1.0604    5.7421   -0.8651 C.ar    1  LIG1       -0.0856
      4 C           3.3747    5.8259   -1.5535 C.ar    1  LIG1       -0.0786
      5 C           0.8184    6.9429   -1.5320 C.ar    1  LIG1       -0.0672
      6 C           3.1328    7.0268   -2.2205 C.ar    1  LIG1       -0.0553
      7 C           1.4300    4.4578    6.2458 C.ar    1  LIG1       -0.0709
      8 C           3.2267    4.3604    4.6335 C.ar    1  LIG1       -0.0359
      9 C           2.3266    4.6641    3.6121 C.ar    1  LIG1        0.0468
     10 C           2.3386    5.1836   -0.8757 C.ar    1  LIG1       -0.0484
     11 C           1.8545    7.5853   -2.2099 C.ar    1  LIG1       -0.0133
     12 C           2.7784    4.2574    5.9504 C.ar    1  LIG1       -0.0068
     13 C           1.1387    2.2247    0.5740 C.2     1  LIG1       -0.0099
     14 C           2.8000    4.7728    2.2184 C.2     1  LIG1        0.1650
     15 C           1.7377    2.7389   -0.7004 C.3     1  LIG1        0.0545
     16 C           2.6024    3.8743   -0.1492 C.3     1  LIG1        0.0734
     17 C          -1.1987    1.4396    0.4164 C.3     1  LIG1       -0.0495
     18 C           0.2880    9.2705   -2.8112 C.3     1  LIG1        0.0240
     19 C           0.2501    1.0262    0.5736 C.3     1  LIG1       -0.0037
     20 N           1.4191    2.8896    1.6489 N.2     1  LIG1       -0.3184
     21 N           2.2492    3.9104    1.2800 N.am    1  LIG1       -0.2349
     22 O           3.6570    5.6208    1.9762 O.2     1  LIG1       -0.4482
     23 O           3.9732    3.4876   -0.2380 O.3     1  LIG1       -0.4434
     24 O           1.6180    8.7564   -2.8618 O.3     1  LIG1       -0.4172
     25 CL          3.8886    3.8832    7.2113 Cl      1  LIG1       -0.1426
     26 H          -0.5199    4.9179    5.4542 H       1  LIG1        0.1290
     27 H           0.2672    5.1016    3.1201 H       1  LIG1        0.1704
     28 H           0.2474    5.2486   -0.3395 H       1  LIG1        0.1368
     29 H           4.3740    5.3981   -1.5670 H       1  LIG1        0.1304
     30 H          -0.1796    7.3729   -1.5204 H       1  LIG1        0.1144
     31 H           3.9439    7.5221   -2.7469 H       1  LIG1        0.1293
     32 H           1.0662    4.3808    7.2671 H       1  LIG1        0.1400
     33 H           4.2782    4.2051    4.4002 H       1  LIG1        0.1543
     34 H           2.3137    1.9493   -1.1912 H       1  LIG1        0.1201
     35 H           0.9245    3.0741   -1.3524 H       1  LIG1        0.1218
     36 H          -1.5000    2.0971    1.2377 H       1  LIG1        0.0399
     37 H          -1.8585    0.5654    0.4152 H       1  LIG1        0.0398
     38 H          -1.3555    1.9744   -0.5263 H       1  LIG1        0.0425
     39 H           0.2372   10.2076   -3.3709 H       1  LIG1        0.0895
     40 H           0.0010    9.4394   -1.7702 H       1  LIG1        0.0895
     41 H          -0.3917    8.5428   -3.2609 H       1  LIG1        0.1224
     42 H           0.5543    0.3688   -0.2461 H       1  LIG1        0.0963
     43 H           0.3961    0.4936    1.5178 H       1  LIG1        0.0963
     44 H           4.4935    4.1992    0.1701 H       1  LIG1        0.3487
@<TRIPOS>BOND
     1     1     2   ar
     2     1     7   ar
     3     2     9   ar
     4     3     5   ar
     5     3    10   ar
     6     4     6   ar
     7     4    10   ar
     8     5    11   ar
     9     6    11   ar
    10     7    12   ar
    11     8     9   ar
    12     8    12   ar
    13     9    14    1
    14    10    16    1
    15    11    24    1
    16    12    25    1
    17    13    15    1
    18    13    19    1
    19    13    20    2
    20    14    21   am
    21    14    22    2
    22    15    16    1
    23    16    21    1
    24    16    23    1
    25    17    19    1
    26    18    24    1
    27    20    21    1
    28     1    26    1
    29     2    27    1
    30     3    28    1
    31     4    29    1
    32     5    30    1
    33     6    31    1
    34     7    32    1
    35     8    33    1
    36    15    34    1
    37    15    35    1
    38    17    36    1
    39    17    37    1
    40    17    38    1
    41    18    39    1
    42    18    40    1
    43    18    41    1
    44    19    42    1
    45    19    43    1
    46    23    44    1
