@<TRIPOS>MOLECULE
AI-346/37188004
 51 54 0 0 0
SMALL
USER_CHARGES

@<TRIPOS>ATOM
      1 C           1.1069    5.3943    4.5769 C.ar    1  LIG1       -0.0697
      2 C           2.3708    2.0792   -1.2518 C.ar    1  LIG1       -0.0833
      3 C           0.3142    2.9545   -0.3344 C.ar    1  LIG1       -0.0833
      4 C           1.0282    5.2056    5.9560 C.ar    1  LIG1       -0.0610
      5 C           1.6612    1.0364   -1.8476 C.ar    1  LIG1       -0.0780
      6 C          -0.3954    1.9117   -0.9302 C.ar    1  LIG1       -0.0784
      7 C           2.5195    3.3085    5.7912 C.ar    1  LIG1       -0.0477
      8 C           1.8973    4.5360    3.8080 C.ar    1  LIG1       -0.0257
      9 C           1.6973    3.0382   -0.4952 C.ar    1  LIG1       -0.0716
     10 C           2.6003    3.4729    4.4022 C.ar    1  LIG1       -0.0733
     11 C           1.7347    4.1678    6.5624 C.ar    1  LIG1       -0.0098
     12 C           0.2782    0.9527   -1.6868 C.ar    1  LIG1       -0.0394
     13 C           1.9956    4.7239    2.3532 C.2     1  LIG1        0.0134
     14 C           0.0852    6.9189   -0.6635 C.2     1  LIG1       -0.0146
     15 C           1.2224    6.1994   -0.6519 C.2     1  LIG1       -0.0314
     16 C          -0.3322    7.8154   -1.7828 C.2     1  LIG1        0.0314
     17 C           3.4689    2.5385    3.5919 C.3     1  LIG1       -0.0276
     18 C           3.0574    2.4954    2.1166 C.3     1  LIG1       -0.0333
     19 C           2.4691    4.1723    0.1528 C.3     1  LIG1        0.0288
     20 C           2.9920    3.9129    1.5727 C.3     1  LIG1        0.0268
     21 C           2.1554    6.2844   -1.8331 C.3     1  LIG1        0.0096
     22 C          -1.6412    7.4754   -2.4445 C.3     1  LIG1        0.0202
     23 C           2.4069    2.9111    8.4663 C.3     1  LIG1        0.0250
     24 N           1.2984    5.5643    1.6557 N.2     1  LIG1       -0.3157
     25 N           1.6402    5.3720    0.3431 N.pl3   1  LIG1       -0.3171
     26 O           0.3482    8.7639   -2.1630 O.2     1  LIG1       -0.5053
     27 O           1.6594    3.9915    7.9102 O.3     1  LIG1       -0.4153
     28 BR         -0.6823   -0.4606   -2.4939 Br      1  LIG1       -0.1089
     29 H           0.5550    6.2135    4.1249 H       1  LIG1        0.1461
     30 H           3.4482    2.1364   -1.3825 H       1  LIG1        0.1279
     31 H          -0.2188    3.6966    0.2541 H       1  LIG1        0.1328
     32 H           0.4157    5.8742    6.5549 H       1  LIG1        0.1165
     33 H           2.2015    0.2968   -2.4331 H       1  LIG1        0.1353
     34 H          -1.4725    1.8610   -0.7955 H       1  LIG1        0.1372
     35 H           3.0671    2.5034    6.2761 H       1  LIG1        0.1336
     36 H          -0.6016    6.8722    0.1773 H       1  LIG1        0.1007
     37 H           4.5107    2.8710    3.6787 H       1  LIG1        0.0778
     38 H           3.4076    1.5232    4.0019 H       1  LIG1        0.0776
     39 H           3.7754    1.8961    1.5461 H       1  LIG1        0.0608
     40 H           2.0801    2.0015    2.0417 H       1  LIG1        0.0652
     41 H           3.3355    4.4069   -0.5179 H       1  LIG1        0.1459
     42 H           3.9646    4.4118    1.6886 H       1  LIG1        0.1116
     43 H           2.8998    7.0805   -1.7244 H       1  LIG1        0.0893
     44 H           2.6965    5.3401   -1.9582 H       1  LIG1        0.0671
     45 H           1.5900    6.4832   -2.7502 H       1  LIG1        0.0994
     46 H          -2.4635    7.9933   -1.9433 H       1  LIG1        0.0709
     47 H          -1.6187    7.8040   -3.4877 H       1  LIG1        0.0647
     48 H          -1.7995    6.3945   -2.4138 H       1  LIG1        0.0711
     49 H           2.2585    2.8833    9.5485 H       1  LIG1        0.0905
     50 H           3.4670    3.0439    8.2364 H       1  LIG1        0.0905
     51 H           2.0559    1.9736    8.0284 H       1  LIG1        0.1229
@<TRIPOS>BOND
     1     1     4   ar
     2     1     8   ar
     3     2     5   ar
     4     2     9   ar
     5     3     6   ar
     6     3     9   ar
     7     4    11   ar
     8     5    12   ar
     9     6    12   ar
    10     7    10   ar
    11     7    11   ar
    12     8    10   ar
    13     8    13    1
    14     9    19    1
    15    10    17    1
    16    11    27    1
    17    12    28    1
    18    13    20    1
    19    13    24    2
    20    14    15    2
    21    14    16    1
    22    15    21    1
    23    15    25    1
    24    16    22    1
    25    16    26    2
    26    17    18    1
    27    18    20    1
    28    19    20    1
    29    19    25    1
    30    23    27    1
    31    24    25    1
    32     1    29    1
    33     2    30    1
    34     3    31    1
    35     4    32    1
    36     5    33    1
    37     6    34    1
    38     7    35    1
    39    14    36    1
    40    17    37    1
    41    17    38    1
    42    18    39    1
    43    18    40    1
    44    19    41    1
    45    20    42    1
    46    21    43    1
    47    21    44    1
    48    21    45    1
    49    22    46    1
    50    22    47    1
    51    22    48    1
    52    23    49    1
    53    23    50    1
    54    23    51    1
