@<TRIPOS>MOLECULE
AE-848/12530637
 54 57 0 0 0
SMALL
USER_CHARGES

@<TRIPOS>ATOM
      1 C           0.0381    0.7599   -1.8711 C.ar    1  LIG1       -0.1041
      2 C           1.3564    0.4068   -1.5833 C.ar    1  LIG1       -0.1018
      3 C          -0.4168    2.0477   -1.5874 C.ar    1  LIG1       -0.1054
      4 C           2.3258    6.6268   -2.4652 C.ar    1  LIG1       -0.0951
      5 C           1.7950    7.5885   -1.6078 C.ar    1  LIG1       -0.0870
      6 C           3.1214    4.4432    4.3574 C.ar    1  LIG1       -0.0689
      7 C           0.7288    4.7109    4.1554 C.ar    1  LIG1       -0.0814
      8 C           2.2199    1.3413   -1.0117 C.ar    1  LIG1       -0.0989
      9 C           0.4465    2.9822   -1.0157 C.ar    1  LIG1       -0.1032
     10 C           2.6262    5.3515   -1.9847 C.ar    1  LIG1       -0.0904
     11 C           1.5702    7.2787   -0.2678 C.ar    1  LIG1       -0.0496
     12 C           3.0026    4.4309    5.7471 C.ar    1  LIG1       -0.0464
     13 C           0.6100    4.6986    5.5451 C.ar    1  LIG1       -0.0617
     14 C           1.9845    4.5833    3.5615 C.ar    1  LIG1       -0.0323
     15 C           1.7649    2.6291   -0.7279 C.ar    1  LIG1       -0.0989
     16 C           2.3957    5.0249   -0.6399 C.ar    1  LIG1       -0.0551
     17 C           1.8769    6.0037    0.2122 C.ar    1  LIG1        0.0266
     18 C           1.7470    4.5586    6.3410 C.ar    1  LIG1       -0.0055
     19 C           2.1083    4.5962    2.1132 C.2     1  LIG1        0.0246
     20 C           2.6245    3.5646    1.4087 C.2     1  LIG1       -0.0907
     21 C           2.6930    3.6347   -0.1127 C.3     1  LIG1       -0.0148
     22 C           0.9275    1.2401    2.0603 C.3     1  LIG1       -0.0903
     23 C           2.7423    0.3601    3.5207 C.3     1  LIG1       -0.0894
     24 C           2.8340    4.4002    8.4503 C.3     1  LIG1        0.0283
     25 C           3.1785    2.3048    2.0280 C.3     1  LIG1       -0.0865
     26 N           2.1775    1.5861    2.8384 N.4     1  LIG1        0.4077
     27 O           1.6471    5.7748    1.5464 O.3     1  LIG1       -0.3448
     28 O           1.6311    4.5466    7.6971 O.3     1  LIG1       -0.4111
     29 H          -0.6337    0.0325   -2.3175 H       1  LIG1        0.1202
     30 H           1.7112   -0.5955   -1.8052 H       1  LIG1        0.1197
     31 H          -1.4429    2.3232   -1.8124 H       1  LIG1        0.1188
     32 H           2.5043    6.8691   -3.5087 H       1  LIG1        0.1250
     33 H           1.5600    8.5803   -1.9829 H       1  LIG1        0.1384
     34 H           4.1070    4.3427    3.9093 H       1  LIG1        0.1468
     35 H          -0.1667    4.8209    3.5483 H       1  LIG1        0.1383
     36 H           3.2454    1.0573   -0.7906 H       1  LIG1        0.1153
     37 H           0.0833    3.9831   -0.7980 H       1  LIG1        0.1120
     38 H           3.0373    4.6118   -2.6674 H       1  LIG1        0.1304
     39 H           1.1625    8.0352    0.3972 H       1  LIG1        0.1393
     40 H           3.8920    4.3215    6.3620 H       1  LIG1        0.1397
     41 H          -0.3708    4.7985    6.0019 H       1  LIG1        0.1218
     42 H           3.7177    3.3830   -0.4157 H       1  LIG1        0.0995
     43 H           1.2159    0.5768    1.2427 H       1  LIG1        0.0804
     44 H           0.2355    0.7436    2.7432 H       1  LIG1        0.0769
     45 H           0.5029    2.1709    1.6793 H       1  LIG1        0.0777
     46 H           3.0816   -0.3278    2.7441 H       1  LIG1        0.0785
     47 H           3.5736    0.6817    4.1510 H       1  LIG1        0.0799
     48 H           1.9457   -0.0860    4.1192 H       1  LIG1        0.0812
     49 H           2.5995    4.4065    9.5176 H       1  LIG1        0.0937
     50 H           3.5166    5.2196    8.2114 H       1  LIG1        0.0918
     51 H           3.3037    3.4491    8.1884 H       1  LIG1        0.1281
     52 H           4.0053    2.5597    2.6833 H       1  LIG1        0.1042
     53 H           3.5101    1.6338    1.2423 H       1  LIG1        0.1079
     54 H           1.8665    2.2140    3.6030 H       1  LIG1        0.1607
@<TRIPOS>BOND
     1     1     2   ar
     2     1     3   ar
     3     2     8   ar
     4     3     9   ar
     5     4     5   ar
     6     4    10   ar
     7     5    11   ar
     8     6    12   ar
     9     6    14   ar
    10     7    13   ar
    11     7    14   ar
    12     8    15   ar
    13     9    15   ar
    14    10    16   ar
    15    11    17   ar
    16    12    18   ar
    17    13    18   ar
    18    14    19    1
    19    15    21    1
    20    16    17   ar
    21    16    21    1
    22    17    27    1
    23    18    28    1
    24    19    20    2
    25    19    27    1
    26    20    21    1
    27    20    25    1
    28    22    26    1
    29    23    26    1
    30    24    28    1
    31    25    26    1
    32     1    29    1
    33     2    30    1
    34     3    31    1
    35     4    32    1
    36     5    33    1
    37     6    34    1
    38     7    35    1
    39     8    36    1
    40     9    37    1
    41    10    38    1
    42    11    39    1
    43    12    40    1
    44    13    41    1
    45    21    42    1
    46    22    43    1
    47    22    44    1
    48    22    45    1
    49    23    46    1
    50    23    47    1
    51    23    48    1
    52    24    49    1
    53    24    50    1
    54    24    51    1
    55    25    52    1
    56    25    53    1
    57    26    54    1
