@<TRIPOS>MOLECULE
AG-205/12285046
 41 43 0 0 0
SMALL
USER_CHARGES

@<TRIPOS>ATOM
      1 C           0.9441    4.8573    3.9650 C.ar    1  LIG1       -0.0562
      2 C           3.1907    4.3561    4.6990 C.ar    1  LIG1       -0.0649
      3 C           1.0460    5.7361   -0.8083 C.ar    1  LIG1       -0.0777
      4 C           3.3634    5.8215   -1.4865 C.ar    1  LIG1       -0.0734
      5 C           0.4913    4.7539    5.2803 C.ar    1  LIG1       -0.0508
      6 C           2.7380    4.2529    6.0143 C.ar    1  LIG1       -0.0600
      7 C           0.8063    6.9367   -1.4765 C.ar    1  LIG1       -0.0439
      8 C           3.1235    7.0221   -2.1547 C.ar    1  LIG1       -0.0420
      9 C           2.2938    4.6583    3.6744 C.ar    1  LIG1        0.0387
     10 C           2.3247    5.1785   -0.8133 C.ar    1  LIG1       -0.0437
     11 C           1.3882    4.4518    6.3049 C.ar    1  LIG1       -0.0091
     12 C           1.8450    7.5798   -2.1497 C.ar    1  LIG1        0.0666
     13 C           1.1214    2.2182    0.6308 C.2     1  LIG1        0.1442
     14 C           2.7731    4.7676    2.2827 C.2     1  LIG1        0.1652
     15 C           1.7254    2.7332   -0.6410 C.3     1  LIG1        0.0808
     16 C           2.5866    3.8693   -0.0859 C.3     1  LIG1        0.0824
     17 C           1.9176    4.0392    8.5864 C.3     1  LIG1        0.0266
     18 C           0.2339    1.0188    0.6263 C.3     1  LIG1        0.4017
     19 N           1.3965    2.8832    1.7070 N.2     1  LIG1       -0.2743
     20 N           2.2272    3.9048    1.3418 N.am    1  LIG1       -0.2195
     21 O           3.6303    5.6165    2.0443 O.2     1  LIG1       -0.4444
     22 O           3.9581    3.4840   -0.1688 O.3     1  LIG1       -0.4379
     23 O           0.9468    4.3508    7.5884 O.3     1  LIG1       -0.4127
     24 F           1.6142    8.7314   -2.7937 F       1  LIG1       -0.2644
     25 F           0.0869    0.5254   -0.6222 F       1  LIG1       -0.1603
     26 F           0.7393    0.0330    1.3989 F       1  LIG1       -0.1601
     27 F          -0.9970    1.3158    1.0963 F       1  LIG1       -0.1599
     28 H           0.2361    5.0935    3.1749 H       1  LIG1        0.1708
     29 H           4.2445    4.1995    4.4829 H       1  LIG1        0.1504
     30 H           0.2306    5.2428   -0.2859 H       1  LIG1        0.1314
     31 H           4.3628    5.3943   -1.4961 H       1  LIG1        0.1463
     32 H          -0.5612    4.9099    5.5003 H       1  LIG1        0.1319
     33 H           3.4413    4.0169    6.8082 H       1  LIG1        0.1163
     34 H          -0.1891    7.3706   -1.4733 H       1  LIG1        0.1346
     35 H           3.9321    7.5232   -2.6785 H       1  LIG1        0.1369
     36 H           2.3042    1.9441   -1.1294 H       1  LIG1        0.1326
     37 H           0.9146    3.0676   -1.2964 H       1  LIG1        0.1356
     38 H           1.4327    3.9887    9.5643 H       1  LIG1        0.0914
     39 H           2.6948    4.8077    8.5926 H       1  LIG1        0.0913
     40 H           2.3674    3.0709    8.3548 H       1  LIG1        0.1239
     41 H           4.4760    4.1960    0.2416 H       1  LIG1        0.3560
@<TRIPOS>BOND
     1     1     5   ar
     2     1     9   ar
     3     2     6   ar
     4     2     9   ar
     5     3     7   ar
     6     3    10   ar
     7     4     8   ar
     8     4    10   ar
     9     5    11   ar
    10     6    11   ar
    11     7    12   ar
    12     8    12   ar
    13     9    14    1
    14    10    16    1
    15    11    23    1
    16    12    24    1
    17    13    15    1
    18    13    18    1
    19    13    19    2
    20    14    20   am
    21    14    21    2
    22    15    16    1
    23    16    20    1
    24    16    22    1
    25    17    23    1
    26    18    25    1
    27    18    26    1
    28    18    27    1
    29    19    20    1
    30     1    28    1
    31     2    29    1
    32     3    30    1
    33     4    31    1
    34     5    32    1
    35     6    33    1
    36     7    34    1
    37     8    35    1
    38    15    36    1
    39    15    37    1
    40    17    38    1
    41    17    39    1
    42    17    40    1
    43    22    41    1
