@<TRIPOS>MOLECULE
AT-137/43420588
 43 46 0 0 0
SMALL
USER_CHARGES

@<TRIPOS>ATOM
      1 C           0.3815    0.6129   -1.8755 C.ar    1  LIG1       -0.1083
      2 C           2.1951    7.5581   -2.4001 C.ar    1  LIG1       -0.1111
      3 C           1.5925    4.6323    6.6233 C.ar    1  LIG1       -0.1034
      4 C           1.7132    0.9623   -2.0993 C.ar    1  LIG1       -0.1057
      5 C          -0.4036    1.3751   -1.0102 C.ar    1  LIG1       -0.1050
      6 C           3.1846    6.5821   -2.5171 C.ar    1  LIG1       -0.1034
      7 C           1.1658    7.4001   -1.4719 C.ar    1  LIG1       -0.1087
      8 C           0.5675    4.8101    5.6941 C.ar    1  LIG1       -0.1036
      9 C           2.8749    4.2940    6.1910 C.ar    1  LIG1       -0.0650
     10 C           2.2599    2.0737   -1.4578 C.ar    1  LIG1       -0.0976
     11 C           0.1431    2.4864   -0.3688 C.ar    1  LIG1       -0.0957
     12 C           3.1449    5.4480   -1.7061 C.ar    1  LIG1       -0.0895
     13 C           1.1262    6.2660   -0.6608 C.ar    1  LIG1       -0.0963
     14 C           0.8249    4.6497    4.3327 C.ar    1  LIG1       -0.0637
     15 C           3.1322    4.1335    4.8296 C.ar    1  LIG1        0.0079
     16 C           1.4748    2.8359   -0.5925 C.ar    1  LIG1       -0.0711
     17 C           2.1158    5.2899   -0.7779 C.ar    1  LIG1       -0.0652
     18 C           2.1072    4.3114    3.9003 C.ar    1  LIG1       -0.0173
     19 C           4.4966    3.7758    4.4054 C.ar    1  LIG1        0.0470
     20 C           1.4190    4.3103    1.4753 C.2     1  LIG1        0.1081
     21 C           2.0716    4.0502    0.1090 C.3     1  LIG1        0.0897
     22 N           5.5987    4.1425    5.0867 N.ar    1  LIG1       -0.3119
     23 N           4.7583    3.0513    3.3009 N.ar    1  LIG1       -0.3038
     24 N           6.6166    3.6138    4.3624 N.ar    1  LIG1       -0.2451
     25 N           6.1119    2.9583    3.2895 N.ar    1  LIG1       -0.2414
     26 N           2.3345    4.1570    2.5291 N.am    1  LIG1       -0.2952
     27 O           0.2345    4.6154    1.5827 O.2     1  LIG1       -0.4798
     28 H          -0.0444   -0.2517   -2.3762 H       1  LIG1        0.1126
     29 H           2.2268    8.4418   -3.0307 H       1  LIG1        0.1095
     30 H           1.3921    4.7575    7.6833 H       1  LIG1        0.1070
     31 H           2.3243    0.3697   -2.7738 H       1  LIG1        0.1150
     32 H          -1.4408    1.1040   -0.8366 H       1  LIG1        0.1154
     33 H           3.9867    6.7055   -3.2391 H       1  LIG1        0.1118
     34 H           0.3959    8.1603   -1.3798 H       1  LIG1        0.1108
     35 H          -0.4309    5.0729    6.0314 H       1  LIG1        0.1110
     36 H           3.6624    4.1596    6.9285 H       1  LIG1        0.1356
     37 H           3.2985    2.3383   -1.6380 H       1  LIG1        0.1161
     38 H          -0.4760    3.0742    0.3038 H       1  LIG1        0.1218
     39 H           3.9201    4.6925   -1.8043 H       1  LIG1        0.1249
     40 H           0.3205    6.1513    0.0595 H       1  LIG1        0.1182
     41 H           0.0170    4.7903    3.6188 H       1  LIG1        0.1361
     42 H           3.1207    3.8028    0.3361 H       1  LIG1        0.1447
     43 H           3.2913    3.9084    2.2582 H       1  LIG1        0.3447
@<TRIPOS>BOND
     1     1     4   ar
     2     1     5   ar
     3     2     6   ar
     4     2     7   ar
     5     3     8   ar
     6     3     9   ar
     7     4    10   ar
     8     5    11   ar
     9     6    12   ar
    10     7    13   ar
    11     8    14   ar
    12     9    15   ar
    13    10    16   ar
    14    11    16   ar
    15    12    17   ar
    16    13    17   ar
    17    14    18   ar
    18    15    18   ar
    19    15    19    1
    20    16    21    1
    21    17    21    1
    22    18    26    1
    23    19    22   ar
    24    19    23   ar
    25    20    21    1
    26    20    26   am
    27    20    27    2
    28    22    24   ar
    29    23    25   ar
    30    24    25   ar
    31     1    28    1
    32     2    29    1
    33     3    30    1
    34     4    31    1
    35     5    32    1
    36     6    33    1
    37     7    34    1
    38     8    35    1
    39     9    36    1
    40    10    37    1
    41    11    38    1
    42    12    39    1
    43    13    40    1
    44    14    41    1
    45    21    42    1
    46    26    43    1
