@<TRIPOS>MOLECULE
AG-690/37079053
 39 41 0 0 0
SMALL
USER_CHARGES

@<TRIPOS>ATOM
      1 C           1.3153    6.0396   -0.2752 C.ar    1  LIG1       -0.0786
      2 C           3.0607    5.5041   -1.8575 C.ar    1  LIG1       -0.0748
      3 C           1.0776    7.2404   -0.9438 C.ar    1  LIG1       -0.0771
      4 C           2.8230    6.7049   -2.5262 C.ar    1  LIG1       -0.0754
      5 C           0.9041    4.8473    4.0401 C.ar    1  LIG1       -0.0321
      6 C           3.1366    4.3510    4.7842 C.ar    1  LIG1       -0.0333
      7 C           0.4968    4.7335    5.3596 C.ar    1  LIG1       -0.0364
      8 C           2.6295    4.2595    6.0705 C.ar    1  LIG1       -0.0335
      9 C           2.2507    4.6510    3.7554 C.ar    1  LIG1        0.0494
     10 C           2.3070    5.1714   -0.7320 C.ar    1  LIG1       -0.0430
     11 C           1.8313    7.5730   -2.0693 C.ar    1  LIG1       -0.0377
     12 C           1.0987    2.2097    0.7050 C.2     1  LIG1       -0.0091
     13 C           2.7380    4.7609    2.3665 C.2     1  LIG1        0.1680
     14 C           1.7095    2.7255   -0.5633 C.3     1  LIG1        0.0563
     15 C           2.5662    3.8626   -0.0031 C.3     1  LIG1        0.0780
     16 C          -1.2353    1.4197    0.5236 C.3     1  LIG1       -0.0492
     17 C           0.2127    1.0093    0.6953 C.3     1  LIG1       -0.0030
     18 N           1.3278    4.4435    6.3858 N.ar    1  LIG1       -0.3998
     19 N           1.3668    2.8750    1.7828 N.2     1  LIG1       -0.3176
     20 N           2.1985    3.8976    1.4225 N.am    1  LIG1       -0.2327
     21 O           3.5956    5.6108    2.1331 O.2     1  LIG1       -0.4460
     22 O           3.9386    3.4788   -0.0781 O.3     1  LIG1       -0.4409
     23 BR          1.5089    9.2004   -2.9744 Br      1  LIG1       -0.1063
     24 H           0.7230    5.7885    0.6008 H       1  LIG1        0.1269
     25 H           3.8361    4.8343   -2.2200 H       1  LIG1        0.1406
     26 H           0.3017    7.9061   -0.5741 H       1  LIG1        0.1364
     27 H           3.4188    6.9491   -3.4016 H       1  LIG1        0.1389
     28 H           0.1863    5.0839    3.2617 H       1  LIG1        0.1679
     29 H           4.1932    4.1926    4.5964 H       1  LIG1        0.1463
     30 H          -0.5426    4.8783    5.6344 H       1  LIG1        0.1998
     31 H           3.2788    4.0276    6.9079 H       1  LIG1        0.2027
     32 H           2.2921    1.9371   -1.0484 H       1  LIG1        0.1210
     33 H           0.9022    3.0590   -1.2233 H       1  LIG1        0.1244
     34 H          -1.5463    2.0764    1.3419 H       1  LIG1        0.0401
     35 H          -1.8933    0.5442    0.5155 H       1  LIG1        0.0400
     36 H          -1.3838    1.9545   -0.4205 H       1  LIG1        0.0434
     37 H           0.5266    0.3527   -0.1213 H       1  LIG1        0.0970
     38 H           0.3503    0.4769    1.6409 H       1  LIG1        0.0972
     39 H           4.4533    4.1914    0.3354 H       1  LIG1        0.3517
@<TRIPOS>BOND
     1     1     3   ar
     2     1    10   ar
     3     2     4   ar
     4     2    10   ar
     5     3    11   ar
     6     4    11   ar
     7     5     7   ar
     8     5     9   ar
     9     6     8   ar
    10     6     9   ar
    11     7    18   ar
    12     8    18   ar
    13     9    13    1
    14    10    15    1
    15    11    23    1
    16    12    14    1
    17    12    17    1
    18    12    19    2
    19    13    20   am
    20    13    21    2
    21    14    15    1
    22    15    20    1
    23    15    22    1
    24    16    17    1
    25    19    20    1
    26     1    24    1
    27     2    25    1
    28     3    26    1
    29     4    27    1
    30     5    28    1
    31     6    29    1
    32     7    30    1
    33     8    31    1
    34    14    32    1
    35    14    33    1
    36    16    34    1
    37    16    35    1
    38    16    36    1
    39    17    37    1
    40    17    38    1
    41    22    39    1
