@<TRIPOS>MOLECULE
AG-205/12009091
 36 38 0 0 0
SMALL
USER_CHARGES

@<TRIPOS>ATOM
      1 C           0.7021    4.7895    5.5513 C.ar    1  LIG1       -0.0909
      2 C           1.7271    4.1706    6.2668 C.ar    1  LIG1       -0.0916
      3 C           0.9261    6.9324   -2.0818 C.ar    1  LIG1       -0.0673
      4 C           0.8794    5.0952    4.2019 C.ar    1  LIG1       -0.0562
      5 C           1.0246    5.8033   -1.2763 C.ar    1  LIG1       -0.0768
      6 C           2.9295    3.8575    5.6329 C.ar    1  LIG1       -0.0735
      7 C           2.0967    7.4668   -2.5954 C.ar    1  LIG1       -0.0403
      8 C           3.3835    5.8606   -1.5744 C.ar    1  LIG1       -0.0239
      9 C           2.0819    4.7821    3.5681 C.ar    1  LIG1        0.0560
     10 C           2.2732    5.2511   -1.0128 C.ar    1  LIG1       -0.0180
     11 C           3.1069    4.1631    4.2836 C.ar    1  LIG1       -0.0015
     12 C           0.8529    2.4153    0.4832 C.2     1  LIG1       -0.0117
     13 C           2.2172    5.1268    2.1394 C.2     1  LIG1        0.1708
     14 C           1.6539    2.8227   -0.7168 C.3     1  LIG1        0.0540
     15 C           2.4145    4.0166   -0.1366 C.3     1  LIG1        0.0782
     16 C          -0.0223    1.2076    0.4457 C.3     1  LIG1        0.0043
     17 N           3.3272    6.9583   -2.3617 N.ar    1  LIG1       -0.3979
     18 N           0.9511    3.1784    1.5245 N.2     1  LIG1       -0.3220
     19 N           1.8299    4.1751    1.2057 N.am    1  LIG1       -0.2362
     20 O           2.6685    6.2375    1.8655 O.2     1  LIG1       -0.4364
     21 O           3.7815    3.6455    0.0370 O.3     1  LIG1       -0.4419
     22 BR          4.7629    3.7188    3.4707 Br      1  LIG1       -0.0775
     23 H          -0.2339    5.0332    6.0449 H       1  LIG1        0.1260
     24 H           1.5887    3.9327    7.3175 H       1  LIG1        0.1345
     25 H          -0.0367    7.3798   -2.3009 H       1  LIG1        0.1268
     26 H           0.0725    5.5775    3.6564 H       1  LIG1        0.1713
     27 H           0.1242    5.3609   -0.8588 H       1  LIG1        0.1339
     28 H           3.7166    3.3751    6.2074 H       1  LIG1        0.1349
     29 H           2.0732    8.3475   -3.2290 H       1  LIG1        0.2030
     30 H           4.3837    5.4746   -1.4042 H       1  LIG1        0.2108
     31 H           2.3038    2.0015   -1.0321 H       1  LIG1        0.1244
     32 H           0.9593    3.0850   -1.5214 H       1  LIG1        0.1186
     33 H           0.5425    0.3306    0.7627 H       1  LIG1        0.0905
     34 H          -0.3925    1.0488   -0.5677 H       1  LIG1        0.0860
     35 H          -0.8740    1.3461    1.1126 H       1  LIG1        0.0878
     36 H           4.2265    4.3990    0.4586 H       1  LIG1        0.3518
@<TRIPOS>BOND
     1     1     2   ar
     2     1     4   ar
     3     2     6   ar
     4     3     5   ar
     5     3     7   ar
     6     4     9   ar
     7     5    10   ar
     8     6    11   ar
     9     7    17   ar
    10     8    10   ar
    11     8    17   ar
    12     9    11   ar
    13     9    13    1
    14    10    15    1
    15    11    22    1
    16    12    14    1
    17    12    16    1
    18    12    18    2
    19    13    19   am
    20    13    20    2
    21    14    15    1
    22    15    19    1
    23    15    21    1
    24    18    19    1
    25     1    23    1
    26     2    24    1
    27     3    25    1
    28     4    26    1
    29     5    27    1
    30     6    28    1
    31     7    29    1
    32     8    30    1
    33    14    31    1
    34    14    32    1
    35    16    33    1
    36    16    34    1
    37    16    35    1
    38    21    36    1
