@<TRIPOS>MOLECULE
AJ-292/14827034
 41 45 0 0 0
SMALL
USER_CHARGES

@<TRIPOS>ATOM
      1 C           1.4026    5.3628    5.8165 C.ar    1  LIG1       -0.0898
      2 C           1.6183    4.0644    6.3070 C.ar    1  LIG1       -0.0884
      3 C           1.3134    7.3546   -1.8225 C.ar    1  LIG1       -0.0880
      4 C           2.0922    6.6297   -2.7107 C.ar    1  LIG1       -0.0919
      5 C          -0.2816    2.1597   -1.1307 C.ar    1  LIG1       -0.0944
      6 C           1.5955    5.6612    4.4614 C.ar    1  LIG1       -0.0720
      7 C           2.0303    3.0454    5.4507 C.ar    1  LIG1       -0.0677
      8 C           0.7122    2.7271   -0.3332 C.ar    1  LIG1       -0.0888
      9 C           1.3599    7.0554   -0.4613 C.ar    1  LIG1       -0.0605
     10 C           0.0258    1.0917   -1.9736 C.ar    1  LIG1       -0.0697
     11 C           2.9157    5.6129   -2.2330 C.ar    1  LIG1       -0.0774
     12 C           2.3208    1.1586   -1.2216 C.ar    1  LIG1       -0.0531
     13 C           2.0047    4.6479    3.6060 C.ar    1  LIG1       -0.0209
     14 C           2.2107    3.3757    4.1206 C.ar    1  LIG1        0.0167
     15 C           2.0134    2.2266   -0.3786 C.ar    1  LIG1       -0.0697
     16 C           2.1811    6.0257    0.0516 C.ar    1  LIG1       -0.0498
     17 C           1.3270    0.5912   -2.0190 C.ar    1  LIG1       -0.0356
     18 C           2.9625    5.2950   -0.8613 C.ar    1  LIG1       -0.0299
     19 C           2.2866    4.6452    2.1628 C.2     1  LIG1       -0.0250
     20 C           2.6298    2.5336    3.0159 C.2     1  LIG1        0.1080
     21 C           2.6588    3.3999    1.8043 C.2     1  LIG1        0.0348
     22 C           3.0955    2.8451    0.4895 C.3     1  LIG1        0.0397
     23 N           2.0936    5.7907    1.4394 N.pl3   1  LIG1       -0.3567
     24 O           2.8978    1.3518    3.0823 O.2     1  LIG1       -0.4371
     25 O           1.6268   -0.4515   -2.8412 O.3     1  LIG1       -0.4392
     26 S           4.1490    4.0371   -0.4072 S.3     1  LIG1       -0.1754
     27 H           1.0820    6.1467    6.4984 H       1  LIG1        0.1294
     28 H           1.4618    3.8554    7.3618 H       1  LIG1        0.1271
     29 H           0.6686    8.1502   -2.1839 H       1  LIG1        0.1320
     30 H           2.0665    6.8572   -3.7722 H       1  LIG1        0.1251
     31 H          -1.2946    2.5491   -1.0949 H       1  LIG1        0.1231
     32 H           1.4237    6.6730    4.1094 H       1  LIG1        0.1407
     33 H           2.1998    2.0406    5.8194 H       1  LIG1        0.1505
     34 H           0.4633    3.5592    0.3202 H       1  LIG1        0.1237
     35 H           0.7311    7.6348    0.2137 H       1  LIG1        0.1357
     36 H          -0.7526    0.6540   -2.5923 H       1  LIG1        0.1253
     37 H           3.5283    5.0706   -2.9514 H       1  LIG1        0.1422
     38 H           3.3345    0.7665   -1.2593 H       1  LIG1        0.1342
     39 H           3.8082    1.9914    0.7045 H       1  LIG1        0.1232
     40 H           1.6972    6.5664    1.9605 H       1  LIG1        0.3142
     41 H           2.5657   -0.6836   -2.7612 H       1  LIG1        0.3555
@<TRIPOS>BOND
     1     1     2   ar
     2     1     6   ar
     3     2     7   ar
     4     3     4   ar
     5     3     9   ar
     6     4    11   ar
     7     5     8   ar
     8     5    10   ar
     9     6    13   ar
    10     7    14   ar
    11     8    15   ar
    12     9    16   ar
    13    10    17   ar
    14    11    18   ar
    15    12    15   ar
    16    12    17   ar
    17    13    14   ar
    18    13    19    1
    19    14    20    1
    20    15    22    1
    21    16    18   ar
    22    16    23    1
    23    17    25    1
    24    18    26    1
    25    19    21    2
    26    19    23    1
    27    20    21    1
    28    20    24    2
    29    21    22    1
    30    22    26    1
    31     1    27    1
    32     2    28    1
    33     3    29    1
    34     4    30    1
    35     5    31    1
    36     6    32    1
    37     7    33    1
    38     8    34    1
    39     9    35    1
    40    10    36    1
    41    11    37    1
    42    12    38    1
    43    22    39    1
    44    23    40    1
    45    25    41    1
