@<TRIPOS>MOLECULE
AE-861/30098088
 41 44 0 0 0
SMALL
USER_CHARGES

@<TRIPOS>ATOM
      1 C           1.4793    4.5420    6.2095 C.ar    1  LIG1       -0.1019
      2 C           3.0776    7.5553   -1.5925 C.ar    1  LIG1       -0.1006
      3 C           1.2629    0.5326   -0.4680 C.ar    1  LIG1       -0.1010
      4 C           2.0691    7.6507   -2.5428 C.ar    1  LIG1       -0.0974
      5 C           0.2609    0.6516   -1.4227 C.ar    1  LIG1       -0.0979
      6 C           0.5494    4.0329    5.3032 C.ar    1  LIG1       -0.0951
      7 C           2.7883    4.7937    5.7985 C.ar    1  LIG1       -0.0954
      8 C           3.1701    6.4158   -0.8006 C.ar    1  LIG1       -0.0858
      9 C           1.9432    1.6676   -0.0404 C.ar    1  LIG1       -0.0872
     10 C           1.1501    6.6091   -2.7009 C.ar    1  LIG1       -0.0650
     11 C          -0.0648    1.9055   -1.9484 C.ar    1  LIG1       -0.0663
     12 C           0.9284    3.7752    3.9858 C.ar    1  LIG1       -0.0596
     13 C           3.1673    4.5360    4.4811 C.ar    1  LIG1       -0.0604
     14 C           2.2517    5.3618   -0.9533 C.ar    1  LIG1       -0.0277
     15 C           1.6243    2.9330   -0.5649 C.ar    1  LIG1       -0.0313
     16 C           1.2132    5.4479   -1.9084 C.ar    1  LIG1       -0.0435
     17 C           0.5998    3.0727   -1.5286 C.ar    1  LIG1       -0.0468
     18 C           2.2373    4.0268    3.5747 C.ar    1  LIG1        0.0201
     19 C           1.8821    4.4983    1.3299 C.2     1  LIG1        0.1901
     20 C           2.3637    4.1509   -0.0492 C.3     1  LIG1        0.1142
     21 C          -0.8879    4.5414   -2.8573 C.3     1  LIG1       -0.0166
     22 N           0.3198    4.3591   -2.0487 N.pl3   1  LIG1       -0.3743
     23 O           0.9849    5.2969    1.5646 O.2     1  LIG1       -0.4375
     24 O           2.6179    3.7675    2.2559 O.3     1  LIG1       -0.3051
     25 H           1.1844    4.7433    7.2353 H       1  LIG1        0.1211
     26 H           3.7910    8.3644   -1.4699 H       1  LIG1        0.1123
     27 H           1.5154   -0.4413   -0.0598 H       1  LIG1        0.1126
     28 H           1.9970    8.5345   -3.1703 H       1  LIG1        0.1282
     29 H          -0.2680   -0.2325   -1.7671 H       1  LIG1        0.1283
     30 H          -0.4699    3.8367    5.6232 H       1  LIG1        0.1257
     31 H           3.5119    5.1903    6.5048 H       1  LIG1        0.1243
     32 H           3.9614    6.3497   -0.0579 H       1  LIG1        0.1298
     33 H           2.7250    1.5661    0.7085 H       1  LIG1        0.1354
     34 H           0.3988    6.7255   -3.4774 H       1  LIG1        0.1214
     35 H          -0.8381    1.9366   -2.7113 H       1  LIG1        0.1210
     36 H           0.1995    3.3773    3.2850 H       1  LIG1        0.1311
     37 H           4.1889    4.7323    4.1669 H       1  LIG1        0.1264
     38 H           3.4278    3.8875    0.0215 H       1  LIG1        0.1587
     39 H          -0.6865    4.2762   -3.8984 H       1  LIG1        0.0891
     40 H          -1.2161    5.5835   -2.8167 H       1  LIG1        0.1030
     41 H          -1.6938    3.9052   -2.4817 H       1  LIG1        0.1028
@<TRIPOS>BOND
     1     1     6   ar
     2     1     7   ar
     3     2     4   ar
     4     2     8   ar
     5     3     5   ar
     6     3     9   ar
     7     4    10   ar
     8     5    11   ar
     9     6    12   ar
    10     7    13   ar
    11     8    14   ar
    12     9    15   ar
    13    10    16   ar
    14    11    17   ar
    15    12    18   ar
    16    13    18   ar
    17    14    16   ar
    18    14    20    1
    19    15    17   ar
    20    15    20    1
    21    16    22    1
    22    17    22    1
    23    18    24    1
    24    19    20    1
    25    19    23    2
    26    19    24    1
    27    21    22    1
    28     1    25    1
    29     2    26    1
    30     3    27    1
    31     4    28    1
    32     5    29    1
    33     6    30    1
    34     7    31    1
    35     8    32    1
    36     9    33    1
    37    10    34    1
    38    11    35    1
    39    12    36    1
    40    13    37    1
    41    20    38    1
    42    21    39    1
    43    21    40    1
    44    21    41    1
