@<TRIPOS>MOLECULE
AN-292/40710338
 36 37 0 0 0
SMALL
USER_CHARGES

@<TRIPOS>ATOM
      1 C           1.6638    7.3930   -2.2568 C.ar    1  LIG1       -0.1023
      2 C           0.7586    6.7592   -1.4056 C.ar    1  LIG1       -0.0984
      3 C           2.9977    6.9862   -2.2840 C.ar    1  LIG1       -0.0985
      4 C           1.1874    5.7187   -0.5815 C.ar    1  LIG1       -0.0790
      5 C           3.4265    5.9457   -1.4599 C.ar    1  LIG1       -0.0806
      6 C           3.0304    4.1336    5.0540 C.ar    1  LIG1       -0.0783
      7 C           0.9116    4.9802    4.2595 C.ar    1  LIG1       -0.0930
      8 C           2.5180    4.0675    6.3498 C.ar    1  LIG1       -0.0578
      9 C           0.3993    4.9141    5.5552 C.ar    1  LIG1       -0.0704
     10 C           2.2271    4.5900    4.0089 C.ar    1  LIG1       -0.0749
     11 C           2.5214    5.3118   -0.6087 C.ar    1  LIG1        0.0003
     12 C           1.2026    4.4577    6.6004 C.ar    1  LIG1       -0.0166
     13 C           2.7613    4.6590    2.6580 C.2     1  LIG1       -0.0332
     14 C           2.9759    4.2087    0.2650 C.2     1  LIG1        0.1273
     15 C           2.2794    4.0059    1.5733 C.2     1  LIG1        0.0808
     16 C          -0.6499    4.8076    8.0500 C.3     1  LIG1        0.0239
     17 C           1.2273    2.1632    0.6378 C.3     1  LIG1        0.0159
     18 O           3.9181    3.5129   -0.0996 O.2     1  LIG1       -0.4462
     19 O           0.7027    4.3931    7.8647 O.3     1  LIG1       -0.4177
     20 O           1.1596    3.2024    1.5848 O.2     1  LIG1       -0.4222
     21 H           1.3299    8.2032   -2.8983 H       1  LIG1        0.1245
     22 H          -0.2799    7.0762   -1.3843 H       1  LIG1        0.1192
     23 H           3.7025    7.4795   -2.9469 H       1  LIG1        0.1189
     24 H           0.4736    5.2317    0.0779 H       1  LIG1        0.1414
     25 H           4.4684    5.6371   -1.4894 H       1  LIG1        0.1333
     26 H           4.0577    3.8258    4.8745 H       1  LIG1        0.1659
     27 H           0.2733    5.3381    3.4553 H       1  LIG1        0.1334
     28 H           3.1486    3.7111    7.1598 H       1  LIG1        0.1257
     29 H          -0.6262    5.2194    5.7443 H       1  LIG1        0.1104
     30 H           3.6317    5.3127    2.5479 H       1  LIG1        0.1635
     31 H          -0.9218    4.7060    9.1036 H       1  LIG1        0.0895
     32 H          -1.3084    4.1924    7.4317 H       1  LIG1        0.0894
     33 H          -0.7453    5.8541    7.7509 H       1  LIG1        0.1219
     34 H           0.3172    1.5607    0.6911 H       1  LIG1        0.1179
     35 H           2.1019    1.5402    0.8412 H       1  LIG1        0.0825
     36 H           1.3161    2.5974   -0.3608 H       1  LIG1        0.0837
@<TRIPOS>BOND
     1     1     2   ar
     2     1     3   ar
     3     2     4   ar
     4     3     5   ar
     5     4    11   ar
     6     5    11   ar
     7     6     8   ar
     8     6    10   ar
     9     7     9   ar
    10     7    10   ar
    11     8    12   ar
    12     9    12   ar
    13    10    13    1
    14    11    14    1
    15    12    19    1
    16    13    15    2
    17    14    15    1
    18    14    18    2
    19    15    20    1
    20    16    19    1
    21    17    20    1
    22     1    21    1
    23     2    22    1
    24     3    23    1
    25     4    24    1
    26     5    25    1
    27     6    26    1
    28     7    27    1
    29     8    28    1
    30     9    29    1
    31    13    30    1
    32    16    31    1
    33    16    32    1
    34    16    33    1
    35    17    34    1
    36    17    35    1
    37    17    36    1
