@<TRIPOS>MOLECULE
AP-518/42324180
 49 53 0 0 0
SMALL
USER_CHARGES

@<TRIPOS>ATOM
      1 C           0.1455    0.6393   -1.9305 C.ar    1  LIG1       -0.1080
      2 C           0.5432    4.9046    5.2407 C.ar    1  LIG1       -0.0919
      3 C           1.4096    0.9640   -2.4224 C.ar    1  LIG1       -0.1042
      4 C          -0.3746    1.3281   -0.8347 C.ar    1  LIG1       -0.1057
      5 C           1.4156    4.5455    6.2681 C.ar    1  LIG1       -0.0899
      6 C           5.0635    5.3767   -3.2890 C.ar    1  LIG1       -0.0972
      7 C           4.2785    4.8042   -2.2690 C.ar    1  LIG1       -0.0862
      8 C           0.9988    4.9508    3.9232 C.ar    1  LIG1       -0.0655
      9 C           4.7875    6.6617   -3.7852 C.ar    1  LIG1       -0.0973
     10 C           1.0989    7.2353   -0.8694 C.ar    1  LIG1       -0.0941
     11 C           2.1538    1.9774   -1.8184 C.ar    1  LIG1       -0.0921
     12 C           0.3696    2.3415   -0.2308 C.ar    1  LIG1       -0.0940
     13 C           1.2738    5.9660   -0.2931 C.ar    1  LIG1       -0.0847
     14 C           2.7436    4.2327    5.9780 C.ar    1  LIG1       -0.0628
     15 C           3.1950    5.5213   -1.7282 C.ar    1  LIG1       -0.0666
     16 C           2.9707    6.7922   -2.2618 C.ar    1  LIG1       -0.0782
     17 C           2.3268    4.6380    3.6329 C.ar    1  LIG1        0.0489
     18 C           3.7216    7.3664   -3.2530 C.ar    1  LIG1       -0.1001
     19 C           1.9690    7.6390   -1.8672 C.ar    1  LIG1       -0.0987
     20 C           1.6338    2.6662   -0.7226 C.ar    1  LIG1       -0.0711
     21 C           2.3107    5.1102   -0.7134 C.ar    1  LIG1       -0.0552
     22 C           3.1992    4.2788    4.6604 C.ar    1  LIG1        0.0263
     23 C           2.7662    4.7011    2.2152 C.2     1  LIG1        0.1156
     24 C           3.2162    8.7364   -3.5954 C.3     1  LIG1       -0.0311
     25 C           2.0061    8.9242   -2.6396 C.3     1  LIG1       -0.0305
     26 C           2.4455    3.7721   -0.0630 C.3     1  LIG1        0.0199
     27 N           2.1073    3.8469    1.3698 N.am    1  LIG1       -0.3264
     28 O           3.6716    5.4695    1.9014 O.2     1  LIG1       -0.4633
     29 CL          4.8505    3.8842    4.3441 Cl      1  LIG1       -0.1068
     30 H          -0.4345   -0.1490   -2.4017 H       1  LIG1        0.1141
     31 H          -0.4908    5.1484    5.4669 H       1  LIG1        0.1273
     32 H           1.8143    0.4285   -3.2763 H       1  LIG1        0.1162
     33 H          -1.3593    1.0763   -0.4521 H       1  LIG1        0.1139
     34 H           1.0606    4.5095    7.2940 H       1  LIG1        0.1366
     35 H           5.8978    4.8134   -3.6989 H       1  LIG1        0.1214
     36 H           4.5246    3.8080   -1.9114 H       1  LIG1        0.1247
     37 H           0.3086    5.2322    3.1318 H       1  LIG1        0.1340
     38 H           5.4025    7.0879   -4.5711 H       1  LIG1        0.1217
     39 H           0.2950    7.8818   -0.5335 H       1  LIG1        0.1235
     40 H           3.1381    2.2235   -2.2085 H       1  LIG1        0.1199
     41 H          -0.0436    2.8728    0.6226 H       1  LIG1        0.1147
     42 H           0.5915    5.6472    0.4920 H       1  LIG1        0.1177
     43 H           3.4104    3.9547    6.7902 H       1  LIG1        0.1367
     44 H           3.9809    9.4973   -3.4085 H       1  LIG1        0.0770
     45 H           2.8971    8.7891   -4.6413 H       1  LIG1        0.0769
     46 H           1.0815    9.0702   -3.2073 H       1  LIG1        0.0776
     47 H           2.1650    9.7796   -1.9748 H       1  LIG1        0.0772
     48 H           3.5081    3.4714   -0.0683 H       1  LIG1        0.1602
     49 H           1.4173    3.1928    1.6863 H       1  LIG1        0.3000
@<TRIPOS>BOND
     1     1     3   ar
     2     1     4   ar
     3     2     5   ar
     4     2     8   ar
     5     3    11   ar
     6     4    12   ar
     7     5    14   ar
     8     6     7   ar
     9     6     9   ar
    10     7    15   ar
    11     8    17   ar
    12     9    18   ar
    13    10    13   ar
    14    10    19   ar
    15    11    20   ar
    16    12    20   ar
    17    13    21   ar
    18    14    22   ar
    19    15    16   ar
    20    15    21   ar
    21    16    18   ar
    22    16    19   ar
    23    17    22   ar
    24    17    23    1
    25    18    24    1
    26    19    25    1
    27    20    26    1
    28    21    26    1
    29    22    29    1
    30    23    27   am
    31    23    28    2
    32    24    25    1
    33    26    27    1
    34     1    30    1
    35     2    31    1
    36     3    32    1
    37     4    33    1
    38     5    34    1
    39     6    35    1
    40     7    36    1
    41     8    37    1
    42     9    38    1
    43    10    39    1
    44    11    40    1
    45    12    41    1
    46    13    42    1
    47    14    43    1
    48    24    44    1
    49    24    45    1
    50    25    46    1
    51    25    47    1
    52    26    48    1
    53    27    49    1
