@<TRIPOS>MOLECULE
AK-968/11164227
 33 34 0 0 0
SMALL
USER_CHARGES

@<TRIPOS>ATOM
      1 C           1.5585    5.0775    6.6055 C.ar    1  LIG1       -0.1093
      2 C           2.8402    4.7166    6.1899 C.ar    1  LIG1       -0.1063
      3 C           0.4672    4.8684    5.7624 C.ar    1  LIG1       -0.1080
      4 C           3.0305    4.1468    4.9310 C.ar    1  LIG1       -0.0979
      5 C           0.6576    4.2985    4.5035 C.ar    1  LIG1       -0.1019
      6 C           3.1154    7.0789   -2.2732 C.ar    1  LIG1       -0.0342
      7 C           0.7758    6.9794   -1.6792 C.ar    1  LIG1       -0.0342
      8 C           3.3521    5.9189   -1.5358 C.ar    1  LIG1        0.0035
      9 C           1.0123    5.8192   -0.9418 C.ar    1  LIG1        0.0035
     10 C           1.9392    3.9378    4.0878 C.ar    1  LIG1       -0.0881
     11 C           1.8273    7.6093   -2.3448 C.ar    1  LIG1        0.0746
     12 C           2.3005    5.2889   -0.8702 C.ar    1  LIG1        0.2924
     13 C           3.2901    5.4321    2.1806 C.3     1  LIG1        0.0354
     14 C           2.1435    3.3247    2.7326 C.3     1  LIG1        0.0529
     15 N           2.3967    4.3519    1.6904 N.3     1  LIG1       -0.1660
     16 O           1.5474    2.8725   -0.2682 O.2     1  LIG1       -0.0771
     17 O           3.9859    3.4420   -0.1520 O.2     1  LIG1       -0.0771
     18 F           1.6003    8.7239   -3.0522 F       1  LIG1       -0.2535
     19 S           2.6000    3.8146    0.0644 S.O2    1  LIG1       -0.0410
     20 H           1.4103    5.5199    7.5863 H       1  LIG1        0.1145
     21 H           3.6900    4.8784    6.8467 H       1  LIG1        0.1149
     22 H          -0.5309    5.1481    6.0860 H       1  LIG1        0.1128
     23 H           4.0328    3.8690    4.6155 H       1  LIG1        0.1314
     24 H          -0.1986    4.1394    3.8532 H       1  LIG1        0.1171
     25 H           3.9339    7.5698   -2.7914 H       1  LIG1        0.1379
     26 H          -0.2270    7.3928   -1.7354 H       1  LIG1        0.1379
     27 H           4.3595    5.5142   -1.4866 H       1  LIG1        0.1603
     28 H           0.1857    5.3372   -0.4268 H       1  LIG1        0.1604
     29 H           3.4558    6.1698    1.3911 H       1  LIG1        0.0836
     30 H           4.2555    5.0164    2.4820 H       1  LIG1        0.0993
     31 H           2.8400    5.9332    3.0417 H       1  LIG1        0.1026
     32 H           2.9971    2.6382    2.7440 H       1  LIG1        0.1287
     33 H           1.2652    2.7466    2.4265 H       1  LIG1        0.1280
@<TRIPOS>BOND
     1     1     2   ar
     2     1     3   ar
     3     2     4   ar
     4     3     5   ar
     5     4    10   ar
     6     5    10   ar
     7     6     8   ar
     8     6    11   ar
     9     7     9   ar
    10     7    11   ar
    11     8    12   ar
    12     9    12   ar
    13    10    14    1
    14    11    18    1
    15    12    19    1
    16    13    15    1
    17    14    15    1
    18    15    19    1
    19    16    19    2
    20    17    19    2
    21     1    20    1
    22     2    21    1
    23     3    22    1
    24     4    23    1
    25     5    24    1
    26     6    25    1
    27     7    26    1
    28     8    27    1
    29     9    28    1
    30    13    29    1
    31    13    30    1
    32    13    31    1
    33    14    32    1
    34    14    33    1
