@<TRIPOS>MOLECULE
AG-205/11943040
 47 50 0 0 0
SMALL
USER_CHARGES

@<TRIPOS>ATOM
      1 C           2.3168    7.2554   -2.8579 C.ar    1  LIG1       -0.1033
      2 C           3.1042    6.1167   -2.6879 C.ar    1  LIG1       -0.0967
      3 C           1.3524    7.5850   -1.9054 C.ar    1  LIG1       -0.1011
      4 C           2.9273    5.3075   -1.5657 C.ar    1  LIG1       -0.0790
      5 C           1.1754    6.7758   -0.7832 C.ar    1  LIG1       -0.0850
      6 C           2.1940    1.8109   -0.9371 C.ar    1  LIG1       -0.0647
      7 C          -0.1410    2.4265   -0.8605 C.ar    1  LIG1       -0.0674
      8 C           1.9256    0.9224   -1.9783 C.ar    1  LIG1       -0.0675
      9 C          -0.4095    1.5380   -1.9018 C.ar    1  LIG1       -0.0690
     10 C           2.9914    4.1239    4.7588 C.ar    1  LIG1       -0.0171
     11 C           0.6566    4.7400    4.8357 C.ar    1  LIG1       -0.0285
     12 C           1.9473    4.6394    6.8756 C.ar    1  LIG1       -0.0360
     13 C           1.1606    2.5630   -0.3781 C.ar    1  LIG1       -0.0337
     14 C           1.9628    5.6371   -0.6132 C.ar    1  LIG1       -0.0523
     15 C           1.7830    4.3628    4.1045 C.ar    1  LIG1        0.0034
     16 C           3.0735    4.2623    6.1444 C.ar    1  LIG1       -0.0009
     17 C           0.7387    4.8784    6.2213 C.ar    1  LIG1       -0.0078
     18 C           0.6239    0.7860   -2.4606 C.ar    1  LIG1       -0.0175
     19 C           1.4369    3.4779    0.6936 C.ar    1  LIG1        0.0042
     20 C           1.7807    4.8011    0.5470 C.ar    1  LIG1       -0.0154
     21 C           1.6978    4.2204    2.6713 C.ar    1  LIG1        0.0288
     22 C           4.2642    4.1878    8.2017 C.3     1  LIG1        0.0265
     23 C          -1.5635    5.4744    6.2020 C.3     1  LIG1        0.0257
     24 N           1.3867    3.1227    2.0183 N.ar    1  LIG1       -0.3551
     25 N           1.9441    5.2635    1.8225 N.ar    1  LIG1       -0.3207
     26 O           4.2519    4.0276    6.7841 O.3     1  LIG1       -0.4115
     27 O          -0.3607    5.2463    6.9346 O.3     1  LIG1       -0.4142
     28 CL          0.2915   -0.3109   -3.7445 Cl      1  LIG1       -0.1470
     29 H           2.4549    7.8858   -3.7315 H       1  LIG1        0.1197
     30 H           3.8549    5.8602   -3.4298 H       1  LIG1        0.1220
     31 H           0.7399    8.4723   -2.0372 H       1  LIG1        0.1191
     32 H           3.5507    4.4246   -1.4463 H       1  LIG1        0.1308
     33 H           0.4187    7.0457   -0.0503 H       1  LIG1        0.1203
     34 H           3.2145    1.9054   -0.5730 H       1  LIG1        0.1421
     35 H          -0.9573    3.0056   -0.4351 H       1  LIG1        0.1357
     36 H           2.7405    0.3430   -2.4044 H       1  LIG1        0.1333
     37 H          -1.4287    1.4413   -2.2664 H       1  LIG1        0.1326
     38 H           3.8753    3.8289    4.1973 H       1  LIG1        0.1501
     39 H          -0.2899    4.9294    4.3339 H       1  LIG1        0.1250
     40 H           2.0112    4.7463    7.9556 H       1  LIG1        0.1106
     41 H           5.2641    3.9703    8.5851 H       1  LIG1        0.0895
     42 H           3.5343    3.5104    8.6522 H       1  LIG1        0.1245
     43 H           3.9996    5.2194    8.4452 H       1  LIG1        0.0895
     44 H          -2.3617    5.7611    6.8910 H       1  LIG1        0.1239
     45 H          -1.8415    4.5647    5.6638 H       1  LIG1        0.0899
     46 H          -1.3956    6.2822    5.4858 H       1  LIG1        0.0899
     47 H           2.2011    6.2051    2.0899 H       1  LIG1        0.3547
@<TRIPOS>BOND
     1     1     2   ar
     2     1     3   ar
     3     2     4   ar
     4     3     5   ar
     5     4    14   ar
     6     5    14   ar
     7     6     8   ar
     8     6    13   ar
     9     7     9   ar
    10     7    13   ar
    11     8    18   ar
    12     9    18   ar
    13    10    15   ar
    14    10    16   ar
    15    11    15   ar
    16    11    17   ar
    17    12    16   ar
    18    12    17   ar
    19    13    19    1
    20    14    20    1
    21    15    21    1
    22    16    26    1
    23    17    27    1
    24    18    28    1
    25    19    20   ar
    26    19    24   ar
    27    20    25   ar
    28    21    24   ar
    29    21    25   ar
    30    22    26    1
    31    23    27    1
    32     1    29    1
    33     2    30    1
    34     3    31    1
    35     4    32    1
    36     5    33    1
    37     6    34    1
    38     7    35    1
    39     8    36    1
    40     9    37    1
    41    10    38    1
    42    11    39    1
    43    12    40    1
    44    22    41    1
    45    22    42    1
    46    22    43    1
    47    23    44    1
    48    23    45    1
    49    23    46    1
    50    25    47    1
