@<TRIPOS>MOLECULE
AK-778/15574002
 44 46 0 0 0
SMALL
USER_CHARGES

@<TRIPOS>ATOM
      1 C           0.9270    0.6750   -1.1176 C.ar    1  LIG1       -0.0938
      2 C          -0.1091    1.4050   -1.7241 C.ar    1  LIG1       -0.0916
      3 C           2.7456    3.7284    4.7830 C.ar    1  LIG1       -0.0819
      4 C           0.5785    4.7532    4.4810 C.ar    1  LIG1       -0.0780
      5 C           1.9438    1.3271   -0.4159 C.ar    1  LIG1       -0.0777
      6 C          -0.1451    2.7986   -1.6400 C.ar    1  LIG1       -0.0636
      7 C           2.7654    4.1610    6.1089 C.ar    1  LIG1       -0.0660
      8 C           0.5984    5.1858    5.8070 C.ar    1  LIG1       -0.0634
      9 C           1.6521    4.0246    3.9690 C.ar    1  LIG1       -0.0178
     10 C           1.9008    2.7085   -0.3349 C.ar    1  LIG1       -0.0158
     11 C           0.8703    3.4281   -0.9410 C.ar    1  LIG1       -0.0321
     12 C           1.6917    4.8896    6.6209 C.ar    1  LIG1       -0.0691
     13 C           2.2222    5.0333    0.0396 C.2     1  LIG1        0.1523
     14 C           1.6313    3.5677    2.5686 C.2     1  LIG1        0.0768
     15 C           2.8488    3.6572    0.3443 C.3     1  LIG1        0.1293
     16 C           0.1730    5.8170   -1.2171 C.3     1  LIG1       -0.0036
     17 C           2.8432    5.0246    8.8155 C.3     1  LIG1       -0.0339
     18 C           0.6074    6.0967    8.4991 C.3     1  LIG1       -0.0339
     19 C           2.9663    3.4244    1.8436 C.3     1  LIG1        0.0844
     20 N           1.0637    4.7977   -0.7154 N.am    1  LIG1       -0.3149
     21 N           1.7118    5.3271    7.9615 N.pl3   1  LIG1       -0.4205
     22 O           2.6862    6.1086    0.3905 O.2     1  LIG1       -0.4316
     23 O           0.5814    3.3042    1.9791 O.2     1  LIG1       -0.4563
     24 O           4.1179    3.5976   -0.2770 O.3     1  LIG1       -0.4418
     25 H           0.9361   -0.4088   -1.1965 H       1  LIG1        0.1203
     26 H          -0.8902    0.8775   -2.2652 H       1  LIG1        0.1330
     27 H           3.5875    3.1613    4.3943 H       1  LIG1        0.1380
     28 H          -0.2785    4.9896    3.8556 H       1  LIG1        0.1460
     29 H           2.7426    0.7601    0.0495 H       1  LIG1        0.1400
     30 H          -0.9480    3.3532   -2.1124 H       1  LIG1        0.1264
     31 H           3.6224    3.9248    6.7344 H       1  LIG1        0.1145
     32 H          -0.2435    5.7529    6.1958 H       1  LIG1        0.1160
     33 H          -0.6156    6.0192   -0.4876 H       1  LIG1        0.1108
     34 H          -0.2886    5.4886   -2.1523 H       1  LIG1        0.0973
     35 H           0.7246    6.7421   -1.4046 H       1  LIG1        0.0973
     36 H           2.6827    5.4411    9.8133 H       1  LIG1        0.1005
     37 H           3.7577    5.4543    8.3976 H       1  LIG1        0.0857
     38 H           2.9724    3.9424    8.9025 H       1  LIG1        0.0836
     39 H           0.7973    6.3453    9.5464 H       1  LIG1        0.0816
     40 H          -0.3202    5.5212    8.4366 H       1  LIG1        0.0939
     41 H           0.4829    7.0244    7.9341 H       1  LIG1        0.0946
     42 H           3.6717    4.1535    2.2558 H       1  LIG1        0.1006
     43 H           3.3517    2.4132    2.0108 H       1  LIG1        0.1165
     44 H           4.6967    4.2236    0.1917 H       1  LIG1        0.3479
@<TRIPOS>BOND
     1     1     2   ar
     2     1     5   ar
     3     2     6   ar
     4     3     7   ar
     5     3     9   ar
     6     4     8   ar
     7     4     9   ar
     8     5    10   ar
     9     6    11   ar
    10     7    12   ar
    11     8    12   ar
    12     9    14    1
    13    10    11   ar
    14    10    15    1
    15    11    20    1
    16    12    21    1
    17    13    15    1
    18    13    20   am
    19    13    22    2
    20    14    19    1
    21    14    23    2
    22    15    19    1
    23    15    24    1
    24    16    20    1
    25    17    21    1
    26    18    21    1
    27     1    25    1
    28     2    26    1
    29     3    27    1
    30     4    28    1
    31     5    29    1
    32     6    30    1
    33     7    31    1
    34     8    32    1
    35    16    33    1
    36    16    34    1
    37    16    35    1
    38    17    36    1
    39    17    37    1
    40    17    38    1
    41    18    39    1
    42    18    40    1
    43    18    41    1
    44    19    42    1
    45    19    43    1
    46    24    44    1
