@<TRIPOS>MOLECULE
AO-081/41195348
 43 46 0 0 0
SMALL
USER_CHARGES

@<TRIPOS>ATOM
      1 C          -0.0827    1.0441   -0.5357 C.ar    1  LIG1       -0.0897
      2 C           1.6840    7.8069   -1.8154 C.ar    1  LIG1       -0.0836
      3 C           0.7387    0.5315   -1.5299 C.ar    1  LIG1       -0.0873
      4 C           2.5468    7.4882   -2.8530 C.ar    1  LIG1       -0.0904
      5 C           0.6182    4.5898    5.6973 C.ar    1  LIG1       -0.0966
      6 C           0.1268    2.3394   -0.0585 C.ar    1  LIG1       -0.0645
      7 C           1.2893    6.8237   -0.9020 C.ar    1  LIG1       -0.0485
      8 C           0.6515    4.5020    4.3056 C.ar    1  LIG1       -0.0640
      9 C           1.7586    1.3202   -2.0551 C.ar    1  LIG1       -0.0693
     10 C           3.0070    6.1831   -2.9820 C.ar    1  LIG1       -0.0737
     11 C           2.9693    4.0409    5.7882 C.ar    1  LIG1       -0.0982
     12 C           1.7772    4.3593    6.4386 C.ar    1  LIG1       -0.1168
     13 C           3.0026    3.9531    4.3965 C.ar    1  LIG1       -0.0842
     14 C           1.1703    3.1481   -0.5544 C.ar    1  LIG1       -0.0123
     15 C           1.7461    5.4959   -0.9996 C.ar    1  LIG1       -0.0016
     16 C           1.8437    4.1836    3.6552 C.ar    1  LIG1       -0.0474
     17 C           1.9681    2.6262   -1.5837 C.ar    1  LIG1       -0.0054
     18 C           2.6075    5.1898   -2.0715 C.ar    1  LIG1       -0.0045
     19 C           1.0719    4.8287    1.3314 C.2     1  LIG1        0.1754
     20 C           1.7408    4.4508    7.9269 C.3     1  LIG1       -0.0455
     21 C           4.2929    3.6073    3.7265 C.3     1  LIG1       -0.0385
     22 N           1.3464    4.4885   -0.0377 N.am    1  LIG1       -0.2533
     23 N           1.8569    4.0992    2.2419 N.am    1  LIG1       -0.2799
     24 O           0.3270    5.7414    1.6886 O.2     1  LIG1       -0.4454
     25 S           3.2913    3.5647   -2.2965 S.3     1  LIG1       -0.1254
     26 H          -0.8900    0.4394   -0.1331 H       1  LIG1        0.1373
     27 H           1.3178    8.8256   -1.7062 H       1  LIG1        0.1327
     28 H           0.5760   -0.4750   -1.9083 H       1  LIG1        0.1333
     29 H           2.8697    8.2552   -3.5512 H       1  LIG1        0.1291
     30 H          -0.3150    4.8385    6.1955 H       1  LIG1        0.1217
     31 H          -0.5617    2.6801    0.7021 H       1  LIG1        0.1297
     32 H           0.6311    7.1523   -0.1060 H       1  LIG1        0.1521
     33 H          -0.2578    4.6849    3.7384 H       1  LIG1        0.1478
     34 H           2.3742    0.9006   -2.8440 H       1  LIG1        0.1473
     35 H           3.6856    5.9572   -3.7979 H       1  LIG1        0.1406
     36 H           3.8715    3.8595    6.3677 H       1  LIG1        0.1241
     37 H           1.4970    3.4746    8.3636 H       1  LIG1        0.0553
     38 H           2.7073    4.7806    8.3294 H       1  LIG1        0.0523
     39 H           0.9916    5.1795    8.2629 H       1  LIG1        0.0527
     40 H           4.3822    2.5210    3.6139 H       1  LIG1        0.0580
     41 H           4.3592    4.0690    2.7340 H       1  LIG1        0.0595
     42 H           5.1495    3.9712    4.3067 H       1  LIG1        0.0455
     43 H           2.5601    3.4168    1.8441 H       1  LIG1        0.3315
@<TRIPOS>BOND
     1     1     3   ar
     2     1     6   ar
     3     2     4   ar
     4     2     7   ar
     5     3     9   ar
     6     4    10   ar
     7     5     8   ar
     8     5    12   ar
     9     6    14   ar
    10     7    15   ar
    11     8    16   ar
    12     9    17   ar
    13    10    18   ar
    14    11    12   ar
    15    11    13   ar
    16    12    20    1
    17    13    16   ar
    18    13    21    1
    19    14    17   ar
    20    14    22    1
    21    15    18   ar
    22    15    22    1
    23    16    23    1
    24    17    25    1
    25    18    25    1
    26    19    22   am
    27    19    23   am
    28    19    24    2
    29     1    26    1
    30     2    27    1
    31     3    28    1
    32     4    29    1
    33     5    30    1
    34     6    31    1
    35     7    32    1
    36     8    33    1
    37     9    34    1
    38    10    35    1
    39    11    36    1
    40    20    37    1
    41    20    38    1
    42    20    39    1
    43    21    40    1
    44    21    41    1
    45    21    42    1
    46    23    43    1
