@<TRIPOS>MOLECULE
AG-690/10492015
 38 41 0 0 0
SMALL
USER_CHARGES

@<TRIPOS>ATOM
      1 C           1.3174    0.6595   -1.7968 C.ar    1  LIG1       -0.1063
      2 C           2.2871    1.4961   -1.2441 C.ar    1  LIG1       -0.1041
      3 C          -0.0357    0.9530   -1.6273 C.ar    1  LIG1       -0.1047
      4 C           3.4802    6.9036   -1.8340 C.ar    1  LIG1       -0.0904
      5 C           2.6235    7.1766   -2.9005 C.ar    1  LIG1       -0.0930
      6 C           1.8276    4.5678    6.1230 C.ar    1  LIG1       -0.1051
      7 C           1.9037    2.6261   -0.5219 C.ar    1  LIG1       -0.0965
      8 C          -0.4191    2.0830   -0.9051 C.ar    1  LIG1       -0.0973
      9 C           3.0061    6.2155   -0.7171 C.ar    1  LIG1       -0.0460
     10 C           1.2928    6.7619   -2.8498 C.ar    1  LIG1       -0.0393
     11 C           1.2344    5.0550    4.9227 C.ar    1  LIG1       -0.0863
     12 C           2.6085    3.4552    5.8997 C.ar    1  LIG1       -0.0447
     13 C           0.5506    2.9197   -0.3524 C.ar    1  LIG1       -0.0814
     14 C           1.6753    5.8007   -0.6666 C.ar    1  LIG1        0.0283
     15 C           0.8186    6.0739   -1.7329 C.ar    1  LIG1        0.1107
     16 C           1.5847    4.2963    3.8274 C.ar    1  LIG1        0.0071
     17 C           1.2011    4.4612    2.4713 C.2     1  LIG1        0.0201
     18 C          -0.0294    3.8019    1.9073 C.3     1  LIG1        0.0331
     19 C           0.1399    4.1277    0.4199 C.3     1  LIG1        0.0208
     20 N           1.8532    5.2050    1.6318 N.2     1  LIG1       -0.3146
     21 N           1.2120    5.1252    0.4316 N.pl3   1  LIG1       -0.3174
     22 F          -0.4622    5.6799   -1.6946 F       1  LIG1       -0.2539
     23 S           2.6244    3.0024    4.2482 S.2     1  LIG1       -0.1155
     24 H           1.6161   -0.2197   -2.3602 H       1  LIG1        0.1175
     25 H           3.3407    1.2683   -1.3769 H       1  LIG1        0.1182
     26 H          -0.7908    0.3024   -2.0584 H       1  LIG1        0.1165
     27 H           4.5163    7.2267   -1.8737 H       1  LIG1        0.1256
     28 H           2.9933    7.7122   -3.7700 H       1  LIG1        0.1290
     29 H           1.6875    5.0102    7.1006 H       1  LIG1        0.1158
     30 H           2.6661    3.2722   -0.0947 H       1  LIG1        0.1210
     31 H          -1.4756    2.3038   -0.7780 H       1  LIG1        0.1181
     32 H           3.6826    6.0072    0.1081 H       1  LIG1        0.1452
     33 H           0.6257    6.9744   -3.6799 H       1  LIG1        0.1342
     34 H           0.5843    5.9195    4.8709 H       1  LIG1        0.1282
     35 H           3.1696    2.8862    6.6275 H       1  LIG1        0.1680
     36 H          -0.0620    2.7344    2.1428 H       1  LIG1        0.1013
     37 H          -0.9099    4.2993    2.3281 H       1  LIG1        0.1015
     38 H          -0.7860    4.5334   -0.0033 H       1  LIG1        0.1364
@<TRIPOS>BOND
     1     1     2   ar
     2     1     3   ar
     3     2     7   ar
     4     3     8   ar
     5     4     5   ar
     6     4     9   ar
     7     5    10   ar
     8     6    11   ar
     9     6    12   ar
    10     7    13   ar
    11     8    13   ar
    12     9    14   ar
    13    10    15   ar
    14    11    16   ar
    15    12    23   ar
    16    13    19    1
    17    14    15   ar
    18    14    21    1
    19    15    22    1
    20    16    17    1
    21    16    23   ar
    22    17    18    1
    23    17    20    2
    24    18    19    1
    25    19    21    1
    26    20    21    1
    27     1    24    1
    28     2    25    1
    29     3    26    1
    30     4    27    1
    31     5    28    1
    32     6    29    1
    33     7    30    1
    34     8    31    1
    35     9    32    1
    36    10    33    1
    37    11    34    1
    38    12    35    1
    39    18    36    1
    40    18    37    1
    41    19    38    1
