@<TRIPOS>MOLECULE
AG-205/32424025
 40 42 0 0 0
SMALL
USER_CHARGES

@<TRIPOS>ATOM
      1 C           1.6995    4.2166    6.1342 C.ar    1  LIG1       -0.1005
      2 C           0.5930    4.6268    5.3907 C.ar    1  LIG1       -0.0954
      3 C           2.9205    3.9886    5.4996 C.ar    1  LIG1       -0.0932
      4 C          -0.2566    2.1661   -0.8216 C.ar    1  LIG1       -0.0923
      5 C           0.4728    1.4797   -1.7924 C.ar    1  LIG1       -0.0950
      6 C           0.9825    6.5574   -2.2017 C.ar    1  LIG1       -0.1052
      7 C           0.7073    4.8089    4.0125 C.ar    1  LIG1       -0.0681
      8 C           3.0349    4.1707    4.1214 C.ar    1  LIG1       -0.0635
      9 C           2.2092    6.2953   -2.8116 C.ar    1  LIG1       -0.1057
     10 C           0.8518    6.4374   -0.8181 C.ar    1  LIG1       -0.0831
     11 C           0.4084    2.8765    0.1779 C.ar    1  LIG1       -0.0618
     12 C           1.8672    1.5036   -1.7637 C.ar    1  LIG1       -0.0699
     13 C           3.1744    5.7928   -0.6546 C.ar    1  LIG1       -0.0695
     14 C           1.9284    4.5809    3.3778 C.ar    1  LIG1        0.0050
     15 C           3.3052    5.9129   -2.0382 C.ar    1  LIG1       -0.1094
     16 C           1.9477    6.0550   -0.0446 C.ar    1  LIG1       -0.0478
     17 C           1.8027    2.9004    0.2066 C.ar    1  LIG1       -0.0347
     18 C           2.5322    2.2140   -0.7642 C.ar    1  LIG1        0.0125
     19 C           2.0476    4.7706    1.9409 C.2     1  LIG1        0.0293
     20 C           4.6169    5.6327   -2.6900 C.3     1  LIG1       -0.0410
     21 N           1.8158    5.9336    1.3489 N.2     1  LIG1       -0.3638
     22 N           2.4470    3.6284    1.2309 N.pl3   1  LIG1       -0.3282
     23 CL          4.2596    2.2173   -0.7659 Cl      1  LIG1       -0.1434
     24 H           1.6103    4.0748    7.2072 H       1  LIG1        0.1243
     25 H          -0.3577    4.8042    5.8850 H       1  LIG1        0.1209
     26 H           3.7822    3.6695    6.0785 H       1  LIG1        0.1218
     27 H          -1.3423    2.1473   -0.8441 H       1  LIG1        0.1320
     28 H          -0.0451    0.9266   -2.5705 H       1  LIG1        0.1217
     29 H           0.1294    6.8556   -2.8041 H       1  LIG1        0.1206
     30 H          -0.1614    5.1288    3.4427 H       1  LIG1        0.1306
     31 H           3.9913    3.9899    3.6375 H       1  LIG1        0.1433
     32 H           2.3022    6.3921   -3.8904 H       1  LIG1        0.1132
     33 H          -0.1081    6.6436   -0.3519 H       1  LIG1        0.1059
     34 H          -0.1714    3.4074    0.9289 H       1  LIG1        0.1337
     35 H           2.4206    0.9634   -2.5277 H       1  LIG1        0.1393
     36 H           4.0293    5.4954   -0.0513 H       1  LIG1        0.1276
     37 H           5.2189    6.5480   -2.7460 H       1  LIG1        0.0591
     38 H           5.1850    4.8762   -2.1333 H       1  LIG1        0.0555
     39 H           4.4811    5.2428   -3.7073 H       1  LIG1        0.0544
     40 H           3.3514    3.2387    1.4877 H       1  LIG1        0.3208
@<TRIPOS>BOND
     1     1     2   ar
     2     1     3   ar
     3     2     7   ar
     4     3     8   ar
     5     4     5   ar
     6     4    11   ar
     7     5    12   ar
     8     6     9   ar
     9     6    10   ar
    10     7    14   ar
    11     8    14   ar
    12     9    15   ar
    13    10    16   ar
    14    11    17   ar
    15    12    18   ar
    16    13    15   ar
    17    13    16   ar
    18    14    19    1
    19    15    20    1
    20    16    21    1
    21    17    18   ar
    22    17    22    1
    23    18    23    1
    24    19    21    2
    25    19    22    1
    26     1    24    1
    27     2    25    1
    28     3    26    1
    29     4    27    1
    30     5    28    1
    31     6    29    1
    32     7    30    1
    33     8    31    1
    34     9    32    1
    35    10    33    1
    36    11    34    1
    37    12    35    1
    38    13    36    1
    39    20    37    1
    40    20    38    1
    41    20    39    1
    42    22    40    1
