@<TRIPOS>MOLECULE
AE-646/37121053
 45 47 0 0 0
SMALL
USER_CHARGES

@<TRIPOS>ATOM
      1 C           0.7004    1.0489   -2.0032 C.ar    1  LIG1       -0.1001
      2 C           1.9980    1.1537   -1.5025 C.ar    1  LIG1       -0.0954
      3 C          -0.3257    1.8127   -1.4470 C.ar    1  LIG1       -0.0940
      4 C           2.0186    5.0872    5.9299 C.ar    1  LIG1       -0.0853
      5 C           0.7451    5.0389    5.3629 C.ar    1  LIG1       -0.0817
      6 C           2.2696    2.0224   -0.4455 C.ar    1  LIG1       -0.0686
      7 C          -0.0541    2.6814   -0.3900 C.ar    1  LIG1       -0.0672
      8 C           3.0810    4.4237    5.3162 C.ar    1  LIG1       -0.0514
      9 C           0.9967    6.8882   -1.8393 C.ar    1  LIG1       -0.0986
     10 C           3.3171    6.2296   -1.9767 C.ar    1  LIG1       -0.1001
     11 C           0.8870    6.2445   -0.6068 C.ar    1  LIG1       -0.0710
     12 C           3.2074    5.5859   -0.7442 C.ar    1  LIG1       -0.0737
     13 C           0.5340    4.3270    4.1821 C.ar    1  LIG1       -0.0363
     14 C           1.2435    2.7863    0.1108 C.ar    1  LIG1        0.0175
     15 C           2.8699    3.7118    4.1354 C.ar    1  LIG1        0.0887
     16 C           2.2117    6.8807   -2.5244 C.ar    1  LIG1       -0.1180
     17 C           1.9923    5.5933   -0.0593 C.ar    1  LIG1       -0.0475
     18 C           1.5965    3.6634    3.5684 C.ar    1  LIG1        0.0761
     19 C           1.5268    3.6919    1.2128 C.2     1  LIG1        0.1194
     20 C           3.9928    3.0261    3.5110 C.2     1  LIG1        0.1885
     21 C           2.3291    7.5680   -3.8427 C.3     1  LIG1       -0.0461
     22 C           5.3039    2.8900    1.5243 C.3     1  LIG1        0.0360
     23 N           1.8819    4.9464    1.1829 N.2     1  LIG1       -0.3607
     24 O           4.6570    2.1354    4.0550 O.2     1  LIG1       -0.4426
     25 O           1.3645    2.9560    2.3826 O.3     1  LIG1       -0.2926
     26 O           4.2218    3.4895    2.2450 O.3     1  LIG1       -0.3537
     27 H           0.4889    0.3724   -2.8262 H       1  LIG1        0.1247
     28 H           2.7967    0.5587   -1.9355 H       1  LIG1        0.1212
     29 H          -1.3360    1.7313   -1.8370 H       1  LIG1        0.1215
     30 H           2.1827    5.6417    6.8496 H       1  LIG1        0.1296
     31 H          -0.0817    5.5553    5.8416 H       1  LIG1        0.1405
     32 H           3.2844    2.0963   -0.0630 H       1  LIG1        0.1354
     33 H          -0.8615    3.2718    0.0357 H       1  LIG1        0.1357
     34 H           4.0692    4.4686    5.7669 H       1  LIG1        0.1515
     35 H           0.1303    7.3927   -2.2589 H       1  LIG1        0.1208
     36 H           4.2672    6.2176   -2.5041 H       1  LIG1        0.1198
     37 H          -0.0642    6.2547   -0.0805 H       1  LIG1        0.1223
     38 H           4.0741    5.0812   -0.3253 H       1  LIG1        0.1161
     39 H          -0.4605    4.2934    3.7455 H       1  LIG1        0.1415
     40 H           2.6336    8.6124   -3.7032 H       1  LIG1        0.0547
     41 H           3.0685    7.0730   -4.4857 H       1  LIG1        0.0519
     42 H           1.3754    7.5532   -4.3861 H       1  LIG1        0.0520
     43 H           5.3799    3.3459    0.5342 H       1  LIG1        0.0960
     44 H           5.1289    1.8153    1.4300 H       1  LIG1        0.0974
     45 H           6.2333    3.0590    2.0731 H       1  LIG1        0.1260
@<TRIPOS>BOND
     1     1     2   ar
     2     1     3   ar
     3     2     6   ar
     4     3     7   ar
     5     4     5   ar
     6     4     8   ar
     7     5    13   ar
     8     6    14   ar
     9     7    14   ar
    10     8    15   ar
    11     9    11   ar
    12     9    16   ar
    13    10    12   ar
    14    10    16   ar
    15    11    17   ar
    16    12    17   ar
    17    13    18   ar
    18    14    19    1
    19    15    18   ar
    20    15    20    1
    21    16    21    1
    22    17    23    1
    23    18    25    1
    24    19    23    2
    25    19    25    1
    26    20    24    2
    27    20    26    1
    28    22    26    1
    29     1    27    1
    30     2    28    1
    31     3    29    1
    32     4    30    1
    33     5    31    1
    34     6    32    1
    35     7    33    1
    36     8    34    1
    37     9    35    1
    38    10    36    1
    39    11    37    1
    40    12    38    1
    41    13    39    1
    42    21    40    1
    43    21    41    1
    44    21    42    1
    45    22    43    1
    46    22    44    1
    47    22    45    1
