@<TRIPOS>MOLECULE
AE-641/30155061
 41 42 0 0 0
SMALL
USER_CHARGES

@<TRIPOS>ATOM
      1 C           0.6073    0.6442   -1.0910 C.ar    1  LIG1       -0.1082
      2 C          -0.2743    1.6529   -0.7022 C.ar    1  LIG1       -0.1038
      3 C           1.8886    0.9708   -1.5351 C.ar    1  LIG1       -0.1043
      4 C           1.4946    6.9300   -2.1339 C.ar    1  LIG1       -0.1001
      5 C           2.5893    7.3804   -1.3961 C.ar    1  LIG1       -0.1051
      6 C           0.1254    2.9880   -0.7577 C.ar    1  LIG1       -0.0906
      7 C           2.2884    2.3060   -1.5904 C.ar    1  LIG1       -0.0919
      8 C           1.1108    5.5908   -2.0653 C.ar    1  LIG1       -0.0795
      9 C           3.3003    6.4917   -0.5898 C.ar    1  LIG1       -0.0714
     10 C           1.4068    3.3147   -1.2018 C.ar    1  LIG1       -0.0721
     11 C           1.8217    4.7019   -1.2590 C.ar    1  LIG1       -0.0347
     12 C           2.9165    5.1523   -0.5212 C.ar    1  LIG1        0.0004
     13 C           0.3647    3.1366    6.8160 C.3     1  LIG1       -0.0976
     14 C           2.5224    4.2242    3.8660 C.3     1  LIG1       -0.0704
     15 C           2.5345    3.9175    2.3703 C.3     1  LIG1       -0.0358
     16 C           1.3900    3.4871    4.5656 C.3     1  LIG1       -0.1111
     17 C           3.6883    4.6137    1.6628 C.3     1  LIG1        0.0177
     18 N           1.4454    3.7786    6.0184 N.4     1  LIG1        0.4282
     19 O           3.6342    4.3007    0.2780 O.3     1  LIG1       -0.4113
     20 H           0.2964   -0.3955   -1.0461 H       1  LIG1        0.1146
     21 H          -1.2714    1.3987   -0.3548 H       1  LIG1        0.1138
     22 H           2.5761    0.1858   -1.8366 H       1  LIG1        0.1169
     23 H           0.9411    7.6223   -2.7615 H       1  LIG1        0.1164
     24 H           2.8882    8.4232   -1.4497 H       1  LIG1        0.1247
     25 H          -0.5734    3.7629   -0.4510 H       1  LIG1        0.1210
     26 H           3.2905    2.5453   -1.9382 H       1  LIG1        0.1210
     27 H           0.2552    5.2558   -2.6469 H       1  LIG1        0.1378
     28 H           4.1521    6.8498   -0.0180 H       1  LIG1        0.1080
     29 H           0.4217    2.0594    6.6495 H       1  LIG1        0.0780
     30 H           0.5345    3.3811    7.8664 H       1  LIG1        0.0780
     31 H          -0.5896    3.5373    6.4691 H       1  LIG1        0.0803
     32 H           3.4838    3.9343    4.3079 H       1  LIG1        0.0593
     33 H           2.4124    5.3052    4.0181 H       1  LIG1        0.0594
     34 H           1.5872    4.2270    1.9113 H       1  LIG1        0.0671
     35 H           2.6075    2.8353    2.2053 H       1  LIG1        0.0672
     36 H           1.4775    2.4021    4.4559 H       1  LIG1        0.0884
     37 H           0.4076    3.8153    4.2132 H       1  LIG1        0.0884
     38 H           3.6182    5.7000    1.7771 H       1  LIG1        0.0984
     39 H           4.6507    4.2750    2.0590 H       1  LIG1        0.0986
     40 H           1.4070    4.7981    6.1634 H       1  LIG1        0.1522
     41 H           2.3584    3.4801    6.3918 H       1  LIG1        0.1522
@<TRIPOS>BOND
     1     1     2   ar
     2     1     3   ar
     3     2     6   ar
     4     3     7   ar
     5     4     5   ar
     6     4     8   ar
     7     5     9   ar
     8     6    10   ar
     9     7    10   ar
    10     8    11   ar
    11     9    12   ar
    12    10    11    1
    13    11    12   ar
    14    12    19    1
    15    13    18    1
    16    14    15    1
    17    14    16    1
    18    15    17    1
    19    16    18    1
    20    17    19    1
    21     1    20    1
    22     2    21    1
    23     3    22    1
    24     4    23    1
    25     5    24    1
    26     6    25    1
    27     7    26    1
    28     8    27    1
    29     9    28    1
    30    13    29    1
    31    13    30    1
    32    13    31    1
    33    14    32    1
    34    14    33    1
    35    15    34    1
    36    15    35    1
    37    16    36    1
    38    16    37    1
    39    17    38    1
    40    17    39    1
    41    18    40    1
    42    18    41    1
