@<TRIPOS>MOLECULE
AG-205/37159084
 35 37 0 0 0
SMALL
USER_CHARGES

@<TRIPOS>ATOM
      1 C           2.7962    6.7174   -2.4186 C.ar    1  LIG1       -0.0670
      2 C           3.0476    5.5137   -1.7696 C.ar    1  LIG1       -0.0768
      3 C           0.8530    4.8444    4.1078 C.ar    1  LIG1       -0.0320
      4 C           3.0781    4.3455    4.8719 C.ar    1  LIG1       -0.0334
      5 C           1.7925    7.5287   -1.9144 C.ar    1  LIG1       -0.0400
      6 C           0.4339    4.7322    5.4237 C.ar    1  LIG1       -0.0361
      7 C           2.5596    4.2557    6.1536 C.ar    1  LIG1       -0.0334
      8 C           1.3171    6.0442   -0.2268 C.ar    1  LIG1       -0.0240
      9 C           2.2018    4.6460    3.8350 C.ar    1  LIG1        0.0492
     10 C           2.2984    5.1631   -0.6520 C.ar    1  LIG1       -0.0181
     11 C           1.0732    2.2042    0.7764 C.2     1  LIG1       -0.0106
     12 C           2.7014    4.7542    2.4504 C.2     1  LIG1        0.1676
     13 C           1.6959    2.7181   -0.4868 C.3     1  LIG1        0.0548
     14 C           2.5492    3.8544    0.0800 C.3     1  LIG1        0.0789
     15 C           0.1855    1.0051    0.7597 C.3     1  LIG1        0.0053
     16 N           1.0440    7.2220   -0.8313 N.ar    1  LIG1       -0.3978
     17 N           1.2554    4.4418    6.4573 N.ar    1  LIG1       -0.3997
     18 N           1.3327    2.8699    1.8560 N.2     1  LIG1       -0.3207
     19 N           2.1690    3.8910    1.5023 N.am    1  LIG1       -0.2348
     20 O           3.5623    5.6027    2.2240 O.2     1  LIG1       -0.4459
     21 O           3.9217    3.4686    0.0174 O.3     1  LIG1       -0.4414
     22 H           3.3679    7.0113   -3.2914 H       1  LIG1        0.1272
     23 H           3.8286    4.8558   -2.1412 H       1  LIG1        0.1336
     24 H           0.1424    5.0816    3.3229 H       1  LIG1        0.1673
     25 H           4.1362    4.1854    4.6935 H       1  LIG1        0.1462
     26 H           1.5575    8.4777   -2.3850 H       1  LIG1        0.2038
     27 H          -0.6076    4.8787    5.6892 H       1  LIG1        0.2003
     28 H           3.2012    4.0235    6.9970 H       1  LIG1        0.2029
     29 H           0.7008    5.8245    0.6395 H       1  LIG1        0.2109
     30 H           2.2815    1.9286   -0.9662 H       1  LIG1        0.1254
     31 H           0.8949    3.0523   -1.1542 H       1  LIG1        0.1199
     32 H           0.7786    0.1028    0.9107 H       1  LIG1        0.0859
     33 H          -0.3307    0.9387   -0.1986 H       1  LIG1        0.0903
     34 H          -0.5577    1.0830    1.5539 H       1  LIG1        0.0911
     35 H           4.4337    4.1807    0.4349 H       1  LIG1        0.3510
@<TRIPOS>BOND
     1     1     2   ar
     2     1     5   ar
     3     2    10   ar
     4     3     6   ar
     5     3     9   ar
     6     4     7   ar
     7     4     9   ar
     8     5    16   ar
     9     6    17   ar
    10     7    17   ar
    11     8    10   ar
    12     8    16   ar
    13     9    12    1
    14    10    14    1
    15    11    13    1
    16    11    15    1
    17    11    18    2
    18    12    19   am
    19    12    20    2
    20    13    14    1
    21    14    19    1
    22    14    21    1
    23    18    19    1
    24     1    22    1
    25     2    23    1
    26     3    24    1
    27     4    25    1
    28     5    26    1
    29     6    27    1
    30     7    28    1
    31     8    29    1
    32    13    30    1
    33    13    31    1
    34    15    32    1
    35    15    33    1
    36    15    34    1
    37    21    35    1
