@<TRIPOS>MOLECULE
AR-016/42300653
 37 39 0 0 0
SMALL
USER_CHARGES

@<TRIPOS>ATOM
      1 C          -0.0500    0.7938   -1.7567 C.ar    1  LIG1       -0.1077
      2 C           1.3154    0.5426   -1.8913 C.ar    1  LIG1       -0.1051
      3 C          -0.4923    1.8054   -0.9041 C.ar    1  LIG1       -0.1063
      4 C           3.4114    5.9691   -1.0091 C.ar    1  LIG1       -0.0661
      5 C           1.0476    6.2189   -0.5772 C.ar    1  LIG1       -0.0648
      6 C           2.2385    1.3027   -1.1733 C.ar    1  LIG1       -0.0999
      7 C           0.4308    2.5655   -0.1861 C.ar    1  LIG1       -0.1009
      8 C           3.3353    6.9527   -1.9951 C.ar    1  LIG1       -0.0678
      9 C           0.9713    7.2025   -1.5632 C.ar    1  LIG1       -0.0672
     10 C           2.2675    5.6021   -0.3001 C.ar    1  LIG1       -0.0302
     11 C           1.7962    2.3142   -0.3206 C.ar    1  LIG1       -0.0914
     12 C           2.1152    7.5694   -2.2722 C.ar    1  LIG1       -0.0162
     13 C           2.3484    4.5563    0.7490 C.2     1  LIG1        0.0138
     14 C           3.0017    2.6473    1.8915 C.3     1  LIG1       -0.0048
     15 C           2.7969    3.1390    0.4587 C.3     1  LIG1        0.0302
     16 C           1.6912    4.6468    4.7807 C.3     1  LIG1       -0.0410
     17 C           2.5401    3.6583    4.0560 C.3     1  LIG1       -0.0199
     18 N           2.0468    4.7818    1.9926 N.2     1  LIG1       -0.3393
     19 N           2.1945    3.6048    2.6463 N.pl3   1  LIG1       -0.3770
     20 CL          2.0216    8.7837   -3.4877 Cl      1  LIG1       -0.1453
     21 H          -0.7686    0.2027   -2.3170 H       1  LIG1        0.1146
     22 H           1.6600   -0.2443   -2.5559 H       1  LIG1        0.1151
     23 H          -1.5552    2.0020   -0.8001 H       1  LIG1        0.1163
     24 H           4.3671    5.4946   -0.8015 H       1  LIG1        0.1385
     25 H           0.1499    5.9410   -0.0307 H       1  LIG1        0.1424
     26 H           3.3004    1.0997   -1.2842 H       1  LIG1        0.1149
     27 H           0.0770    3.3516    0.4759 H       1  LIG1        0.1180
     28 H           4.2347    7.2291   -2.5394 H       1  LIG1        0.1340
     29 H           0.0137    7.6741   -1.7684 H       1  LIG1        0.1340
     30 H           2.6838    1.6124    2.0551 H       1  LIG1        0.1029
     31 H           4.0626    2.7418    2.1553 H       1  LIG1        0.1040
     32 H           3.7636    3.1484   -0.0956 H       1  LIG1        0.1127
     33 H           1.8253    5.6530    4.3691 H       1  LIG1        0.0372
     34 H           0.6329    4.3704    4.7211 H       1  LIG1        0.0407
     35 H           1.9750    4.6743    5.8396 H       1  LIG1        0.0467
     36 H           2.4013    2.6559    4.4720 H       1  LIG1        0.1169
     37 H           3.5978    3.9273    4.1300 H       1  LIG1        0.1175
@<TRIPOS>BOND
     1     1     2   ar
     2     1     3   ar
     3     2     6   ar
     4     3     7   ar
     5     4     8   ar
     6     4    10   ar
     7     5     9   ar
     8     5    10   ar
     9     6    11   ar
    10     7    11   ar
    11     8    12   ar
    12     9    12   ar
    13    10    13    1
    14    11    15    1
    15    12    20    1
    16    13    15    1
    17    13    18    2
    18    14    15    1
    19    14    19    1
    20    16    17    1
    21    17    19    1
    22    18    19    1
    23     1    21    1
    24     2    22    1
    25     3    23    1
    26     4    24    1
    27     5    25    1
    28     6    26    1
    29     7    27    1
    30     8    28    1
    31     9    29    1
    32    14    30    1
    33    14    31    1
    34    15    32    1
    35    16    33    1
    36    16    34    1
    37    16    35    1
    38    17    36    1
    39    17    37    1
