@<TRIPOS>MOLECULE
AJ-091/40652520
 38 40 0 0 0
SMALL
USER_CHARGES

@<TRIPOS>ATOM
      1 C           3.0981    6.9307   -2.3929 C.ar    1  LIG1       -0.0989
      2 C           0.5579    5.0521    5.4796 C.ar    1  LIG1       -0.1046
      3 C           1.8006    7.4225   -2.4315 C.ar    1  LIG1       -0.1011
      4 C           1.2776    4.4393    6.5052 C.ar    1  LIG1       -0.1066
      5 C           3.4176    5.8872   -1.5265 C.ar    1  LIG1       -0.0791
      6 C           1.0832    5.0947    4.1881 C.ar    1  LIG1       -0.0943
      7 C           0.8212    6.8599   -1.6130 C.ar    1  LIG1       -0.0967
      8 C           2.5225    3.8691    6.2395 C.ar    1  LIG1       -0.1028
      9 C           2.4392    5.3214   -0.6892 C.ar    1  LIG1        0.0023
     10 C           2.3282    4.5246    3.9223 C.ar    1  LIG1       -0.0862
     11 C           1.1115    5.7895   -0.7421 C.ar    1  LIG1       -0.0905
     12 C           3.0479    3.9118    4.9481 C.ar    1  LIG1       -0.1066
     13 C           2.9161    4.2489    0.2230 C.2     1  LIG1        0.1064
     14 C           2.2179    4.0827    1.5141 C.2     1  LIG1       -0.0167
     15 C           2.8405    4.5850    2.5880 C.2     1  LIG1       -0.0742
     16 C          -0.0451    5.2491    0.0723 C.3     1  LIG1       -0.0406
     17 C           0.8950    3.3910    1.5384 C.3     1  LIG1       -0.0303
     18 C          -0.0021    3.7474    0.3548 C.3     1  LIG1       -0.0538
     19 C           4.3855    3.2918    4.7006 C.3     1  LIG1       -0.0400
     20 O           3.8811    3.5482   -0.0608 O.2     1  LIG1       -0.4367
     21 H           3.8621    7.3550   -3.0365 H       1  LIG1        0.1204
     22 H          -0.4115    5.4965    5.6867 H       1  LIG1        0.1151
     23 H           1.5480    8.2449   -3.0929 H       1  LIG1        0.1229
     24 H           0.8681    4.4068    7.5104 H       1  LIG1        0.1171
     25 H           4.4407    5.5090   -1.5191 H       1  LIG1        0.1291
     26 H           0.5092    5.5768    3.4002 H       1  LIG1        0.1250
     27 H          -0.1908    7.2690   -1.6516 H       1  LIG1        0.1228
     28 H           3.0760    3.3950    7.0458 H       1  LIG1        0.1170
     29 H           3.7860    5.0951    2.4226 H       1  LIG1        0.1322
     30 H          -0.1004    5.8189    1.0216 H       1  LIG1        0.0636
     31 H          -1.0040    5.4863   -0.4298 H       1  LIG1        0.0689
     32 H           1.0557    2.3026    1.5672 H       1  LIG1        0.0629
     33 H           0.3503    3.6141    2.4680 H       1  LIG1        0.0761
     34 H          -1.0173    3.4030    0.5458 H       1  LIG1        0.0575
     35 H           0.3605    3.2183   -0.5252 H       1  LIG1        0.0523
     36 H           4.2688    2.2382    4.4232 H       1  LIG1        0.0584
     37 H           4.9179    3.8100    3.8943 H       1  LIG1        0.0552
     38 H           5.0195    3.3514    5.5933 H       1  LIG1        0.0543
@<TRIPOS>BOND
     1     1     3   ar
     2     1     5   ar
     3     2     4   ar
     4     2     6   ar
     5     3     7   ar
     6     4     8   ar
     7     5     9   ar
     8     6    10   ar
     9     7    11   ar
    10     8    12   ar
    11     9    11   ar
    12     9    13    1
    13    10    12   ar
    14    10    15    1
    15    11    16    1
    16    12    19    1
    17    13    14    1
    18    13    20    2
    19    14    15    2
    20    14    17    1
    21    16    18    1
    22    17    18    1
    23     1    21    1
    24     2    22    1
    25     3    23    1
    26     4    24    1
    27     5    25    1
    28     6    26    1
    29     7    27    1
    30     8    28    1
    31    15    29    1
    32    16    30    1
    33    16    31    1
    34    17    32    1
    35    17    33    1
    36    18    34    1
    37    18    35    1
    38    19    36    1
    39    19    37    1
    40    19    38    1
