@<TRIPOS>MOLECULE
AG-205/37204004
 39 41 0 0 0
SMALL
USER_CHARGES

@<TRIPOS>ATOM
      1 C           0.9295    4.8548    3.9895 C.ar    1  LIG1       -0.0645
      2 C           3.1747    4.3538    4.7280 C.ar    1  LIG1       -0.0650
      3 C           1.3300    6.0459   -0.3258 C.ar    1  LIG1       -0.0774
      4 C           3.0684    5.5074   -1.9148 C.ar    1  LIG1       -0.0735
      5 C           0.4741    4.7512    5.3038 C.ar    1  LIG1       -0.0682
      6 C           2.7193    4.2503    6.0424 C.ar    1  LIG1       -0.0717
      7 C           1.0908    7.2463   -0.9945 C.ar    1  LIG1       -0.0440
      8 C           2.8291    6.7078   -2.5835 C.ar    1  LIG1       -0.0425
      9 C           2.2799    4.6561    3.7016 C.ar    1  LIG1        0.0343
     10 C           2.3190    5.1764   -0.7860 C.ar    1  LIG1       -0.0435
     11 C           1.3690    4.4490    6.3303 C.ar    1  LIG1       -0.0973
     12 C           1.8402    7.5774   -2.1233 C.ar    1  LIG1        0.0661
     13 C           1.1136    2.2158    0.6558 C.2     1  LIG1        0.1436
     14 C           2.7617    4.7655    2.3108 C.2     1  LIG1        0.1605
     15 C           1.7199    2.7309   -0.6148 C.3     1  LIG1        0.0799
     16 C           2.5798    3.8673   -0.0581 C.3     1  LIG1        0.0821
     17 C           0.2265    1.0162    0.6497 C.3     1  LIG1        0.4007
     18 N           1.3866    2.8809    1.7325 N.2     1  LIG1       -0.2739
     19 N           2.2178    3.9027    1.3689 N.am    1  LIG1       -0.2200
     20 N           0.9085    4.3443    7.6592 N.pl3   1  LIG1       -0.4160
     21 O           3.6192    5.6146    2.0740 O.2     1  LIG1       -0.4487
     22 O           3.9516    3.4822   -0.1384 O.3     1  LIG1       -0.4383
     23 F           1.6086    8.7289   -2.7671 F       1  LIG1       -0.2649
     24 F           0.0819    0.5228   -0.5991 F       1  LIG1       -0.1611
     25 F           0.7306    0.0305    1.4232 F       1  LIG1       -0.1608
     26 F          -1.0054    1.3129    1.1173 F       1  LIG1       -0.1606
     27 H           0.2235    5.0907    3.1975 H       1  LIG1        0.1490
     28 H           4.2291    4.1971    4.5149 H       1  LIG1        0.1652
     29 H           0.7415    5.7970    0.5534 H       1  LIG1        0.1320
     30 H           3.8407    4.8359   -2.2808 H       1  LIG1        0.1459
     31 H          -0.5802    4.9079    5.5171 H       1  LIG1        0.1141
     32 H           3.4252    4.0144    6.8346 H       1  LIG1        0.1126
     33 H           0.3205    7.9230   -0.6368 H       1  LIG1        0.1344
     34 H           3.4127    6.9661   -3.4621 H       1  LIG1        0.1363
     35 H           2.2998    1.9420   -1.1022 H       1  LIG1        0.1314
     36 H           0.9103    3.0652   -1.2717 H       1  LIG1        0.1345
     37 H          -0.0525    4.5353    7.8591 H       1  LIG1        0.2568
     38 H           1.5676    4.1739    8.3917 H       1  LIG1        0.2565
     39 H           4.4685    4.1943    0.2730 H       1  LIG1        0.3557
@<TRIPOS>BOND
     1     1     5   ar
     2     1     9   ar
     3     2     6   ar
     4     2     9   ar
     5     3     7   ar
     6     3    10   ar
     7     4     8   ar
     8     4    10   ar
     9     5    11   ar
    10     6    11   ar
    11     7    12   ar
    12     8    12   ar
    13     9    14    1
    14    10    16    1
    15    11    20    1
    16    12    23    1
    17    13    15    1
    18    13    17    1
    19    13    18    2
    20    14    19   am
    21    14    21    2
    22    15    16    1
    23    16    19    1
    24    16    22    1
    25    17    24    1
    26    17    25    1
    27    17    26    1
    28    18    19    1
    29     1    27    1
    30     2    28    1
    31     3    29    1
    32     4    30    1
    33     5    31    1
    34     6    32    1
    35     7    33    1
    36     8    34    1
    37    15    35    1
    38    15    36    1
    39    20    37    1
    40    20    38    1
    41    22    39    1
