@<TRIPOS>MOLECULE
AG-205/33648009
 45 47 0 0 0
SMALL
USER_CHARGES

@<TRIPOS>ATOM
      1 C           0.3472    0.5963   -2.0396 C.ar    1  LIG1       -0.1062
      2 C           2.1769    7.5754   -2.4566 C.ar    1  LIG1       -0.1082
      3 C           1.6765    0.9488   -2.2724 C.ar    1  LIG1       -0.1044
      4 C          -0.4294    1.3476   -1.1574 C.ar    1  LIG1       -0.1045
      5 C           3.1446    6.5853   -2.6265 C.ar    1  LIG1       -0.1024
      6 C           1.1665    7.4079   -1.5097 C.ar    1  LIG1       -0.1066
      7 C           2.2293    2.0525   -1.6229 C.ar    1  LIG1       -0.0986
      8 C           0.1235    2.4513   -0.5079 C.ar    1  LIG1       -0.0981
      9 C           3.1018    5.4276   -1.8495 C.ar    1  LIG1       -0.0918
     10 C           1.1237    6.2503   -0.7327 C.ar    1  LIG1       -0.0974
     11 C           2.9607    4.3112    6.0311 C.ar    1  LIG1       -0.0948
     12 C           3.1786    4.1386    4.6642 C.ar    1  LIG1       -0.0672
     13 C           0.8525    4.6278    4.2317 C.ar    1  LIG1       -0.0726
     14 C           1.4528    2.8038   -0.7406 C.ar    1  LIG1       -0.0742
     15 C           2.0913    5.2601   -0.9025 C.ar    1  LIG1       -0.0683
     16 C           1.6888    4.6421    6.4983 C.ar    1  LIG1       -0.1165
     17 C           0.6347    4.8004    5.5986 C.ar    1  LIG1       -0.1116
     18 C           2.1244    4.2969    3.7645 C.ar    1  LIG1       -0.0546
     19 C           1.4173    4.2531    1.3454 C.2     1  LIG1        0.1098
     20 C           1.4797    4.8209    7.9662 C.3     1  LIG1       -0.0448
     21 C          -0.7351    5.1565    6.0757 C.3     1  LIG1       -0.0415
     22 C           2.0434    3.9839   -0.0456 C.3     1  LIG1        0.0875
     23 N           2.3454    4.1239    2.3775 N.am    1  LIG1       -0.3112
     24 O           0.2280    4.5366    1.4587 O.2     1  LIG1       -0.4677
     25 H          -0.0835   -0.2623   -2.5464 H       1  LIG1        0.1167
     26 H           2.2112    8.4773   -3.0608 H       1  LIG1        0.1144
     27 H           2.2809    0.3646   -2.9601 H       1  LIG1        0.1174
     28 H          -1.4647    1.0741   -0.9767 H       1  LIG1        0.1179
     29 H           3.9320    6.7159   -3.3629 H       1  LIG1        0.1148
     30 H           0.4136    8.1791   -1.3763 H       1  LIG1        0.1142
     31 H           3.2661    2.3196   -1.8102 H       1  LIG1        0.1171
     32 H          -0.4891    3.0307    0.1778 H       1  LIG1        0.1206
     33 H           3.8599    4.6614   -1.9888 H       1  LIG1        0.1234
     34 H           0.3327    6.1285    0.0026 H       1  LIG1        0.1178
     35 H           3.7883    4.1847    6.7243 H       1  LIG1        0.1229
     36 H           4.1738    3.8798    4.3121 H       1  LIG1        0.1324
     37 H           0.0297    4.7515    3.5308 H       1  LIG1        0.1223
     38 H           1.6535    5.8653    8.2501 H       1  LIG1        0.0547
     39 H           0.4590    4.5445    8.2579 H       1  LIG1        0.0547
     40 H           2.1605    4.1835    8.5440 H       1  LIG1        0.0514
     41 H          -1.3117    4.2485    6.2867 H       1  LIG1        0.0574
     42 H          -0.6916    5.7631    6.9886 H       1  LIG1        0.0526
     43 H          -1.2750    5.7472    5.3254 H       1  LIG1        0.0577
     44 H           3.1076    3.7600    0.1832 H       1  LIG1        0.1433
     45 H           3.3004    3.8850    2.1189 H       1  LIG1        0.3221
@<TRIPOS>BOND
     1     1     3   ar
     2     1     4   ar
     3     2     5   ar
     4     2     6   ar
     5     3     7   ar
     6     4     8   ar
     7     5     9   ar
     8     6    10   ar
     9     7    14   ar
    10     8    14   ar
    11     9    15   ar
    12    10    15   ar
    13    11    12   ar
    14    11    16   ar
    15    12    18   ar
    16    13    17   ar
    17    13    18   ar
    18    14    22    1
    19    15    22    1
    20    16    17   ar
    21    16    20    1
    22    17    21    1
    23    18    23    1
    24    19    22    1
    25    19    23   am
    26    19    24    2
    27     1    25    1
    28     2    26    1
    29     3    27    1
    30     4    28    1
    31     5    29    1
    32     6    30    1
    33     7    31    1
    34     8    32    1
    35     9    33    1
    36    10    34    1
    37    11    35    1
    38    12    36    1
    39    13    37    1
    40    20    38    1
    41    20    39    1
    42    20    40    1
    43    21    41    1
    44    21    42    1
    45    21    43    1
    46    22    44    1
    47    23    45    1
