@<TRIPOS>MOLECULE
AM-879/15039143
 44 47 0 0 0
SMALL
USER_CHARGES

@<TRIPOS>ATOM
      1 C           2.2775    4.9514    6.2222 C.ar    1  LIG1       -0.0862
      2 C           0.9039    4.7991    5.9483 C.ar    1  LIG1       -0.0861
      3 C           0.4306    1.6888   -1.7705 C.ar    1  LIG1       -0.0947
      4 C           3.2409    4.6630    5.2515 C.ar    1  LIG1       -0.0685
      5 C           0.4645    4.3558    4.6978 C.ar    1  LIG1       -0.0685
      6 C           0.7935    5.9446   -1.1741 C.ar    1  LIG1       -0.0568
      7 C           3.0954    5.3385   -1.5876 C.ar    1  LIG1       -0.0611
      8 C           1.1371    7.2948   -1.2402 C.ar    1  LIG1       -0.0576
      9 C           3.4390    6.6887   -1.6538 C.ar    1  LIG1       -0.0602
     10 C           1.3134    1.4761   -0.6831 C.ar    1  LIG1       -0.0887
     11 C           0.5217    3.0179   -2.1205 C.ar    1  LIG1       -0.0557
     12 C           2.7917    4.2254    4.0206 C.ar    1  LIG1        0.0207
     13 C           1.4280    4.0747    3.7485 C.ar    1  LIG1        0.0204
     14 C           1.7725    4.9663   -1.3477 C.ar    1  LIG1       -0.0321
     15 C           2.4599    7.6668   -1.4800 C.ar    1  LIG1       -0.0683
     16 C           1.9169    2.6819   -0.4014 C.ar    1  LIG1       -0.0325
     17 C           3.5969    3.8593    2.8458 C.2     1  LIG1        0.1257
     18 C           1.2248    3.5979    2.3723 C.2     1  LIG1        0.1212
     19 C           2.5970    3.4677    1.8201 C.2     1  LIG1        0.1046
     20 C           2.8882    3.0593    0.5860 C.2     1  LIG1       -0.0102
     21 C           1.7976   10.0562   -1.3678 C.3     1  LIG1       -0.0358
     22 C           4.1815    9.4290   -1.7819 C.3     1  LIG1       -0.0359
     23 N           1.4278    3.6119   -1.2813 N.ar    1  LIG1       -0.3468
     24 N           2.8074    9.0321   -1.5470 N.pl3   1  LIG1       -0.4237
     25 O           4.8044    3.8780    2.7507 O.2     1  LIG1       -0.4287
     26 O           0.1687    3.3667    1.8256 O.2     1  LIG1       -0.4388
     27 H           2.5903    5.2980    7.2038 H       1  LIG1        0.1345
     28 H           0.1769    5.0306    6.7225 H       1  LIG1        0.1343
     29 H          -0.2027    0.9539   -2.2474 H       1  LIG1        0.1156
     30 H           4.2967    4.7810    5.4666 H       1  LIG1        0.1405
     31 H          -0.5933    4.2403    4.4908 H       1  LIG1        0.1422
     32 H          -0.2414    5.6686   -0.9866 H       1  LIG1        0.1452
     33 H           3.8686    4.5863   -1.7247 H       1  LIG1        0.1372
     34 H           0.3663    8.0490   -1.1035 H       1  LIG1        0.1222
     35 H           4.4728    6.9675   -1.8410 H       1  LIG1        0.1224
     36 H           1.4865    0.5425   -0.1651 H       1  LIG1        0.1297
     37 H           0.0153    3.5798   -2.8948 H       1  LIG1        0.1851
     38 H           3.9418    2.9801    0.3134 H       1  LIG1        0.2028
     39 H           2.2492   11.0480   -1.4523 H       1  LIG1        0.0804
     40 H           1.3354    9.9628   -0.3812 H       1  LIG1        0.0928
     41 H           1.0198    9.9575   -2.1298 H       1  LIG1        0.0933
     42 H           4.2596   10.5191   -1.8016 H       1  LIG1        0.0985
     43 H           4.5306    9.0338   -2.7397 H       1  LIG1        0.0823
     44 H           4.8271    9.0441   -0.9879 H       1  LIG1        0.0850
@<TRIPOS>BOND
     1     1     2   ar
     2     1     4   ar
     3     2     5   ar
     4     3    10   ar
     5     3    11   ar
     6     4    12   ar
     7     5    13   ar
     8     6     8   ar
     9     6    14   ar
    10     7     9   ar
    11     7    14   ar
    12     8    15   ar
    13     9    15   ar
    14    10    16   ar
    15    11    23   ar
    16    12    13   ar
    17    12    17    1
    18    13    18    1
    19    14    23    1
    20    15    24    1
    21    16    20    1
    22    16    23   ar
    23    17    19    1
    24    17    25    2
    25    18    19    1
    26    18    26    2
    27    19    20    2
    28    21    24    1
    29    22    24    1
    30     1    27    1
    31     2    28    1
    32     3    29    1
    33     4    30    1
    34     5    31    1
    35     6    32    1
    36     7    33    1
    37     8    34    1
    38     9    35    1
    39    10    36    1
    40    11    37    1
    41    20    38    1
    42    21    39    1
    43    21    40    1
    44    21    41    1
    45    22    42    1
    46    22    43    1
    47    22    44    1
