@<TRIPOS>MOLECULE
AG-205/07682013
 42 44 0 0 0
SMALL
USER_CHARGES

@<TRIPOS>ATOM
      1 C           1.6787    4.4815    6.7013 C.ar    1  LIG1       -0.1041
      2 C           2.0455    7.1643   -2.9123 C.ar    1  LIG1       -0.1103
      3 C           2.8881    4.0454    6.1602 C.ar    1  LIG1       -0.0991
      4 C           0.6178    4.8148    5.8593 C.ar    1  LIG1       -0.0977
      5 C           2.6896    5.9301   -2.9990 C.ar    1  LIG1       -0.1028
      6 C           1.4631    7.5640   -1.7094 C.ar    1  LIG1       -0.0998
      7 C           3.0366    3.9428    4.7771 C.ar    1  LIG1       -0.0780
      8 C           0.7662    4.7121    4.4762 C.ar    1  LIG1       -0.0756
      9 C           2.7511    5.0955   -1.8831 C.ar    1  LIG1       -0.0625
     10 C           1.5246    6.7294   -0.5936 C.ar    1  LIG1       -0.0576
     11 C           1.9756    4.2761    3.9350 C.ar    1  LIG1       -0.0361
     12 C           2.1686    5.4952   -0.6803 C.ar    1  LIG1       -0.0261
     13 C           2.1302    4.1693    2.4959 C.2     1  LIG1        0.0117
     14 C           0.9598    1.8615   -1.2561 C.2     1  LIG1       -0.1061
     15 C           1.0077    2.6624   -0.1858 C.2     1  LIG1       -0.0189
     16 C           2.4561    2.8491    1.8487 C.3     1  LIG1        0.0385
     17 C           2.2775    3.2178    0.3776 C.3     1  LIG1        0.0514
     18 C          -2.2959    4.0583    0.4208 C.3     1  LIG1       -0.0350
     19 C          -1.0545    3.7069   -0.3710 C.3     1  LIG1        0.0112
     20 N           2.0320    5.1670    1.6722 N.2     1  LIG1       -0.3196
     21 N           2.2289    4.6757    0.4162 N.pl3   1  LIG1       -0.3137
     22 O          -0.1567    3.0200    0.4657 O.2     1  LIG1       -0.4242
     23 H           1.5633    4.5615    7.7782 H       1  LIG1        0.1191
     24 H           1.9975    7.8140   -3.7814 H       1  LIG1        0.1046
     25 H           3.7142    3.7862    6.8159 H       1  LIG1        0.1195
     26 H          -0.3240    5.1540    6.2807 H       1  LIG1        0.1194
     27 H           3.1429    5.6190   -3.9354 H       1  LIG1        0.1219
     28 H           0.9616    8.5253   -1.6421 H       1  LIG1        0.1224
     29 H           3.9833    3.6018    4.3660 H       1  LIG1        0.1284
     30 H          -0.0673    4.9746    3.8297 H       1  LIG1        0.1335
     31 H           3.2552    4.1358   -1.9611 H       1  LIG1        0.1166
     32 H           1.0673    7.0516    0.3386 H       1  LIG1        0.1255
     33 H           0.0132    1.4827   -1.6270 H       1  LIG1        0.0689
     34 H           1.8612    1.5673   -1.7829 H       1  LIG1        0.0717
     35 H           3.4984    2.5979    2.0723 H       1  LIG1        0.1024
     36 H           1.7988    2.0500    2.2025 H       1  LIG1        0.1023
     37 H           3.1281    2.8666   -0.2173 H       1  LIG1        0.1586
     38 H          -2.7882    3.1565    0.7952 H       1  LIG1        0.0571
     39 H          -2.0430    4.7016    1.2700 H       1  LIG1        0.0473
     40 H          -3.0049    4.6156   -0.2005 H       1  LIG1        0.0473
     41 H          -0.5670    4.6131   -0.7426 H       1  LIG1        0.0936
     42 H          -1.3089    3.0635   -1.2185 H       1  LIG1        0.0938
@<TRIPOS>BOND
     1     1     3   ar
     2     1     4   ar
     3     2     5   ar
     4     2     6   ar
     5     3     7   ar
     6     4     8   ar
     7     5     9   ar
     8     6    10   ar
     9     7    11   ar
    10     8    11   ar
    11     9    12   ar
    12    10    12   ar
    13    11    13    1
    14    12    21    1
    15    13    16    1
    16    13    20    2
    17    14    15    2
    18    15    17    1
    19    15    22    1
    20    16    17    1
    21    17    21    1
    22    18    19    1
    23    19    22    1
    24    20    21    1
    25     1    23    1
    26     2    24    1
    27     3    25    1
    28     4    26    1
    29     5    27    1
    30     6    28    1
    31     7    29    1
    32     8    30    1
    33     9    31    1
    34    10    32    1
    35    14    33    1
    36    14    34    1
    37    16    35    1
    38    16    36    1
    39    17    37    1
    40    18    38    1
    41    18    39    1
    42    18    40    1
    43    19    41    1
    44    19    42    1
