@<TRIPOS>MOLECULE
AO-548/43242484
 46 48 0 0 0
SMALL
USER_CHARGES

@<TRIPOS>ATOM
      1 C           1.2708    4.0862    6.2514 C.ar    1  LIG1       -0.1092
      2 C           2.9835    7.3408   -1.8864 C.ar    1  LIG1       -0.1026
      3 C           0.4980    4.6249    5.2227 C.ar    1  LIG1       -0.1032
      4 C           2.6247    3.8235    6.0426 C.ar    1  LIG1       -0.1084
      5 C           1.3591    0.4645   -0.8852 C.ar    1  LIG1       -0.0973
      6 C           3.0782    6.1353   -2.5817 C.ar    1  LIG1       -0.0956
      7 C           1.9195    7.5593   -1.0112 C.ar    1  LIG1       -0.0972
      8 C           0.5256    0.8125   -1.9480 C.ar    1  LIG1       -0.1041
      9 C           1.0792    4.9007    3.9850 C.ar    1  LIG1       -0.0946
     10 C           3.2059    4.0995    4.8050 C.ar    1  LIG1       -0.1019
     11 C           1.7674    1.4366    0.0282 C.ar    1  LIG1       -0.0563
     12 C           2.1090    5.1484   -2.4020 C.ar    1  LIG1       -0.0604
     13 C           0.9503    6.5724   -0.8315 C.ar    1  LIG1       -0.0625
     14 C           0.1006    2.1326   -2.0978 C.ar    1  LIG1       -0.0631
     15 C           2.4332    4.6380    3.7762 C.ar    1  LIG1       -0.0813
     16 C           1.3424    2.7566   -0.1217 C.ar    1  LIG1       -0.0084
     17 C           1.0451    5.3669   -1.5268 C.ar    1  LIG1        0.0067
     18 C           0.5089    3.1047   -1.1846 C.ar    1  LIG1        0.0352
     19 C           2.9611    3.7130    1.5057 C.2     1  LIG1        0.0987
     20 C           5.1760    5.7079    1.2034 C.3     1  LIG1       -0.0662
     21 C           4.5318    5.4062    2.5508 C.3     1  LIG1       -0.0363
     22 C           3.0670    4.9381    2.4280 C.3     1  LIG1        0.0606
     23 N           1.7603    3.7191    0.8007 N.am    1  LIG1       -0.3026
     24 O           3.8527    2.8704    1.4592 O.2     1  LIG1       -0.4735
     25 O           0.0823    4.3887   -1.3494 O.3     1  LIG1       -0.3688
     26 H           0.8184    3.8728    7.2155 H       1  LIG1        0.1135
     27 H           3.7382    8.1091   -2.0257 H       1  LIG1        0.1207
     28 H          -0.5559    4.8304    5.3854 H       1  LIG1        0.1143
     29 H           3.2269    3.4052    6.8437 H       1  LIG1        0.1127
     30 H           1.6894   -0.5635   -0.7684 H       1  LIG1        0.1183
     31 H           3.9066    5.9650   -3.2634 H       1  LIG1        0.1253
     32 H           1.8465    8.4982   -0.4699 H       1  LIG1        0.1241
     33 H           0.2071    0.0554   -2.6586 H       1  LIG1        0.1195
     34 H           0.4695    5.3201    3.1892 H       1  LIG1        0.1270
     35 H           4.2615    3.8914    4.6513 H       1  LIG1        0.1160
     36 H           2.4170    1.1532    0.8525 H       1  LIG1        0.1621
     37 H           2.1878    4.2121   -2.9478 H       1  LIG1        0.1307
     38 H           0.1227    6.7488   -0.1497 H       1  LIG1        0.1270
     39 H          -0.5488    2.3966   -2.9281 H       1  LIG1        0.1184
     40 H           4.6135    6.4917    0.6860 H       1  LIG1        0.0300
     41 H           5.1875    4.8251    0.5571 H       1  LIG1        0.0327
     42 H           6.2055    6.0584    1.3297 H       1  LIG1        0.0364
     43 H           5.1192    4.6189    3.0407 H       1  LIG1        0.0613
     44 H           4.6128    6.2919    3.1927 H       1  LIG1        0.0545
     45 H           2.5102    5.7502    1.9385 H       1  LIG1        0.1195
     46 H           1.1282    4.4974    0.9734 H       1  LIG1        0.3282
@<TRIPOS>BOND
     1     1     3   ar
     2     1     4   ar
     3     2     6   ar
     4     2     7   ar
     5     3     9   ar
     6     4    10   ar
     7     5     8   ar
     8     5    11   ar
     9     6    12   ar
    10     7    13   ar
    11     8    14   ar
    12     9    15   ar
    13    10    15   ar
    14    11    16   ar
    15    12    17   ar
    16    13    17   ar
    17    14    18   ar
    18    15    22    1
    19    16    18   ar
    20    16    23    1
    21    17    25    1
    22    18    25    1
    23    19    22    1
    24    19    23   am
    25    19    24    2
    26    20    21    1
    27    21    22    1
    28     1    26    1
    29     2    27    1
    30     3    28    1
    31     4    29    1
    32     5    30    1
    33     6    31    1
    34     7    32    1
    35     8    33    1
    36     9    34    1
    37    10    35    1
    38    11    36    1
    39    12    37    1
    40    13    38    1
    41    14    39    1
    42    20    40    1
    43    20    41    1
    44    20    42    1
    45    21    43    1
    46    21    44    1
    47    22    45    1
    48    23    46    1
