@<TRIPOS>MOLECULE
AG-205/10565045
 46 48 0 0 0
SMALL
USER_CHARGES

@<TRIPOS>ATOM
      1 C           2.1308    5.0650    6.3262 C.ar    1  LIG1       -0.1073
      2 C           0.1628    1.4791   -1.5467 C.ar    1  LIG1       -0.0969
      3 C           2.0780    6.0660   -3.1944 C.ar    1  LIG1       -0.1036
      4 C           1.4203    1.5046   -2.1497 C.ar    1  LIG1       -0.0924
      5 C           0.9238    5.1040    5.6282 C.ar    1  LIG1       -0.1018
      6 C           3.2611    4.5015    5.7341 C.ar    1  LIG1       -0.0976
      7 C           0.9326    6.7155   -2.7344 C.ar    1  LIG1       -0.1033
      8 C          -0.0359    2.1142   -0.3208 C.ar    1  LIG1       -0.0687
      9 C           2.9176    5.4107   -2.2936 C.ar    1  LIG1       -0.0797
     10 C           2.4793    2.1653   -1.5268 C.ar    1  LIG1       -0.0586
     11 C           0.8469    4.5792    4.3382 C.ar    1  LIG1       -0.0748
     12 C           3.1842    3.9767    4.4439 C.ar    1  LIG1       -0.0675
     13 C           0.6268    6.7100   -1.3734 C.ar    1  LIG1       -0.0657
     14 C           1.0230    2.7748    0.3022 C.ar    1  LIG1        0.0541
     15 C           2.6117    5.4052   -0.9326 C.ar    1  LIG1        0.0055
     16 C           2.2806    2.8003   -0.3008 C.ar    1  LIG1       -0.0078
     17 C           1.9771    4.0155    3.7460 C.ar    1  LIG1       -0.0543
     18 C           1.4664    6.0548   -0.4726 C.ar    1  LIG1        0.0083
     19 C           3.5118    4.7075    0.0011 C.2     1  LIG1        0.0125
     20 C           0.7866    3.4296    1.5821 C.2     1  LIG1        0.1240
     21 C          -0.3467    7.5101    2.0305 C.3     1  LIG1       -0.0337
     22 C           1.0569    7.3298    1.4927 C.3     1  LIG1        0.0173
     23 N           3.3578    3.4569    0.3083 N.2     1  LIG1       -0.3657
     24 N           1.8988    3.4823    2.4347 N.am    1  LIG1       -0.3072
     25 O          -0.3286    3.8687    1.8897 O.2     1  LIG1       -0.4596
     26 O           1.1495    6.0588    0.8531 O.3     1  LIG1       -0.4080
     27 H           2.1913    5.4743    7.3305 H       1  LIG1        0.1116
     28 H          -0.6610    0.9634   -2.0313 H       1  LIG1        0.1180
     29 H           2.3159    6.0705   -4.2543 H       1  LIG1        0.1103
     30 H           1.5743    1.0096   -3.1040 H       1  LIG1        0.1343
     31 H           0.0438    5.5435    6.0886 H       1  LIG1        0.1204
     32 H           4.2011    4.4722    6.2774 H       1  LIG1        0.1192
     33 H           0.2798    7.2260   -3.4362 H       1  LIG1        0.1280
     34 H          -1.0202    2.0873    0.1394 H       1  LIG1        0.1305
     35 H           3.8072    4.9075   -2.6635 H       1  LIG1        0.1421
     36 H           3.4552    2.1792   -2.0051 H       1  LIG1        0.1303
     37 H          -0.0991    4.6152    3.8038 H       1  LIG1        0.1200
     38 H           4.0716    3.5400    3.9925 H       1  LIG1        0.1336
     39 H          -0.2672    7.2178   -1.0216 H       1  LIG1        0.1120
     40 H           4.3357    5.3044    0.4365 H       1  LIG1        0.2554
     41 H          -1.0822    7.4719    1.2221 H       1  LIG1        0.0571
     42 H          -0.5834    6.7296    2.7611 H       1  LIG1        0.0491
     43 H          -0.4410    8.4702    2.5487 H       1  LIG1        0.0494
     44 H           1.7875    7.3691    2.3062 H       1  LIG1        0.0955
     45 H           1.2914    8.1100    0.7624 H       1  LIG1        0.0959
     46 H           2.7599    3.0873    2.0648 H       1  LIG1        0.3198
@<TRIPOS>BOND
     1     1     5   ar
     2     1     6   ar
     3     2     4   ar
     4     2     8   ar
     5     3     7   ar
     6     3     9   ar
     7     4    10   ar
     8     5    11   ar
     9     6    12   ar
    10     7    13   ar
    11     8    14   ar
    12     9    15   ar
    13    10    16   ar
    14    11    17   ar
    15    12    17   ar
    16    13    18   ar
    17    14    16   ar
    18    14    20    1
    19    15    18   ar
    20    15    19    1
    21    16    23    1
    22    17    24    1
    23    18    26    1
    24    19    23    2
    25    20    24   am
    26    20    25    2
    27    21    22    1
    28    22    26    1
    29     1    27    1
    30     2    28    1
    31     3    29    1
    32     4    30    1
    33     5    31    1
    34     6    32    1
    35     7    33    1
    36     8    34    1
    37     9    35    1
    38    10    36    1
    39    11    37    1
    40    12    38    1
    41    13    39    1
    42    19    40    1
    43    21    41    1
    44    21    42    1
    45    21    43    1
    46    22    44    1
    47    22    45    1
    48    24    46    1
