@<TRIPOS>MOLECULE
AF-399/15284013
 43 46 0 0 0
SMALL
USER_CHARGES

@<TRIPOS>ATOM
      1 C           0.1366    0.6463   -1.8491 C.ar    1  LIG1       -0.1074
      2 C           1.3995    0.9701   -2.3449 C.ar    1  LIG1       -0.1053
      3 C          -0.3720    1.3229   -0.7402 C.ar    1  LIG1       -0.1023
      4 C           2.8025    4.2805    5.9455 C.ar    1  LIG1       -0.1007
      5 C           1.4560    4.4137    6.2844 C.ar    1  LIG1       -0.1027
      6 C           2.1539    1.9705   -1.7318 C.ar    1  LIG1       -0.0927
      7 C           0.3825    2.3232   -0.1272 C.ar    1  LIG1       -0.0880
      8 C           3.2014    4.3963    4.6139 C.ar    1  LIG1       -0.0763
      9 C           2.1024    7.5163   -0.2599 C.ar    1  LIG1       -0.0616
     10 C           0.5084    4.6626    5.2916 C.ar    1  LIG1       -0.0663
     11 C           2.0180    7.6922   -1.6407 C.ar    1  LIG1       -0.0783
     12 C           2.2424    5.3108   -1.9547 C.ar    1  LIG1       -0.0688
     13 C           1.6455    2.6471   -0.6230 C.ar    1  LIG1       -0.0624
     14 C           2.2537    4.6452    3.6211 C.ar    1  LIG1       -0.0020
     15 C           2.2971    5.1183   -0.5650 C.ar    1  LIG1       -0.0296
     16 C           2.2682    6.2378    0.2906 C.ar    1  LIG1       -0.0618
     17 C           0.9071    4.7783    3.9599 C.ar    1  LIG1        0.0072
     18 C           2.0969    6.5911   -2.4875 C.ar    1  LIG1       -0.0436
     19 C           2.4647    3.7337    0.0436 C.3     1  LIG1        0.0606
     20 C           2.7042    4.7672    2.1836 C.3     1  LIG1        0.0612
     21 C          -1.3841    5.1426    3.4372 C.3     1  LIG1        0.0262
     22 N           2.3572    6.0787    1.6688 N.pl3   1  LIG1       -0.3748
     23 O           2.0841    3.7189    1.4301 O.3     1  LIG1       -0.4018
     24 O          -0.0314    5.0207    3.0024 O.3     1  LIG1       -0.4106
     25 BR          2.0062    6.8322   -4.3600 Br      1  LIG1       -0.1273
     26 H          -0.4514   -0.1317   -2.3273 H       1  LIG1        0.1153
     27 H           1.7951    0.4443   -3.2088 H       1  LIG1        0.1164
     28 H          -1.3556    1.0718   -0.3546 H       1  LIG1        0.1151
     29 H           3.5409    4.0862    6.7182 H       1  LIG1        0.1138
     30 H           1.1458    4.3226    7.3211 H       1  LIG1        0.1283
     31 H           3.1369    2.2159   -2.1249 H       1  LIG1        0.1195
     32 H          -0.0216    2.8449    0.7363 H       1  LIG1        0.1252
     33 H           4.2527    4.2895    4.3600 H       1  LIG1        0.1345
     34 H           2.0516    8.3892    0.3870 H       1  LIG1        0.1244
     35 H          -0.5392    4.7652    5.5617 H       1  LIG1        0.1147
     36 H           1.8970    8.6965   -2.0384 H       1  LIG1        0.1412
     37 H           2.3114    4.4544   -2.6218 H       1  LIG1        0.1448
     38 H           3.5306    3.4435   -0.0213 H       1  LIG1        0.1410
     39 H           3.7995    4.6269    2.1599 H       1  LIG1        0.1792
     40 H          -2.0286    5.3345    2.5757 H       1  LIG1        0.0900
     41 H          -1.4644    5.9622    4.1557 H       1  LIG1        0.0906
     42 H          -1.6888    4.2092    3.9165 H       1  LIG1        0.1232
     43 H           2.4643    6.8996    2.2532 H       1  LIG1        0.2924
@<TRIPOS>BOND
     1     1     2   ar
     2     1     3   ar
     3     2     6   ar
     4     3     7   ar
     5     4     5   ar
     6     4     8   ar
     7     5    10   ar
     8     6    13   ar
     9     7    13   ar
    10     8    14   ar
    11     9    11   ar
    12     9    16   ar
    13    10    17   ar
    14    11    18   ar
    15    12    15   ar
    16    12    18   ar
    17    13    19    1
    18    14    17   ar
    19    14    20    1
    20    15    16   ar
    21    15    19    1
    22    16    22    1
    23    17    24    1
    24    18    25    1
    25    19    23    1
    26    20    22    1
    27    20    23    1
    28    21    24    1
    29     1    26    1
    30     2    27    1
    31     3    28    1
    32     4    29    1
    33     5    30    1
    34     6    31    1
    35     7    32    1
    36     8    33    1
    37     9    34    1
    38    10    35    1
    39    11    36    1
    40    12    37    1
    41    19    38    1
    42    20    39    1
    43    21    40    1
    44    21    41    1
    45    21    42    1
    46    22    43    1
