@<TRIPOS>MOLECULE
AE-848/36203017
 51 53 0 0 0
SMALL
USER_CHARGES

@<TRIPOS>ATOM
      1 C           1.9036    7.6376   -2.2191 C.ar    1  LIG1       -0.1111
      2 C           3.1979    7.2493   -1.8738 C.ar    1  LIG1       -0.1082
      3 C           0.8260    6.7959   -1.9437 C.ar    1  LIG1       -0.1079
      4 C           3.4148    6.0191   -1.2530 C.ar    1  LIG1       -0.0989
      5 C           1.0428    5.5657   -1.3230 C.ar    1  LIG1       -0.0987
      6 C           0.5064    2.4197   -0.0905 C.ar    1  LIG1       -0.0829
      7 C           1.9105    4.8234    1.9270 C.ar    1  LIG1       -0.0831
      8 C          -0.3288    1.3812   -0.5022 C.ar    1  LIG1       -0.0650
      9 C           1.9928    4.8907    3.3178 C.ar    1  LIG1       -0.0652
     10 C           1.1666    0.9069   -2.3396 C.ar    1  LIG1       -0.0419
     11 C           3.6362    3.1197    3.3062 C.ar    1  LIG1       -0.0417
     12 C           2.3372    5.1772   -0.9777 C.ar    1  LIG1       -0.0911
     13 C           1.6718    2.7018   -0.8034 C.ar    1  LIG1       -0.0617
     14 C           2.6910    3.9042    1.2258 C.ar    1  LIG1       -0.0616
     15 C           0.0013    0.6248   -1.6267 C.ar    1  LIG1       -0.0661
     16 C           2.8556    4.0388    4.0075 C.ar    1  LIG1       -0.0661
     17 C           2.0018    1.9454   -1.9278 C.ar    1  LIG1       -0.0045
     18 C           3.5538    3.0524    1.9154 C.ar    1  LIG1       -0.0041
     19 C          -2.0557   -0.7270   -1.3084 C.3     1  LIG1       -0.0361
     20 C          -0.5161   -1.2084   -3.2179 C.3     1  LIG1       -0.0360
     21 C           2.1328    5.0592    6.1514 C.3     1  LIG1       -0.0360
     22 C           3.8224    3.2170    6.1405 C.3     1  LIG1       -0.0362
     23 C           2.5684    3.8617   -0.3141 C.3     1  LIG1        0.0058
     24 N          -0.8430   -0.4256   -2.0426 N.pl3   1  LIG1       -0.4233
     25 N           2.9392    4.1072    5.4137 N.pl3   1  LIG1       -0.4233
     26 CL          3.4347    2.2671   -2.8350 Cl      1  LIG1       -0.1317
     27 CL          4.5332    1.9019    1.0810 Cl      1  LIG1       -0.1317
     28 H           1.7347    8.5962   -2.7011 H       1  LIG1        0.1100
     29 H           4.0370    7.9051   -2.0871 H       1  LIG1        0.1118
     30 H          -0.1821    7.0984   -2.2114 H       1  LIG1        0.1120
     31 H           4.4268    5.7247   -0.9877 H       1  LIG1        0.1181
     32 H           0.1972    4.9163   -1.1124 H       1  LIG1        0.1174
     33 H           0.2393    3.0038    0.7861 H       1  LIG1        0.1364
     34 H           1.2340    5.4906    1.3996 H       1  LIG1        0.1362
     35 H          -1.2346    1.1710    0.0610 H       1  LIG1        0.1171
     36 H           1.3792    5.6107    3.8535 H       1  LIG1        0.1175
     37 H           1.4187    0.3144   -3.2165 H       1  LIG1        0.1254
     38 H           4.3067    2.4570    3.8492 H       1  LIG1        0.1249
     39 H          -2.5783   -1.5664   -1.7746 H       1  LIG1        0.0790
     40 H          -2.7198    0.1415   -1.3027 H       1  LIG1        0.0923
     41 H          -1.8161   -0.9918   -0.2751 H       1  LIG1        0.0927
     42 H          -1.2798   -1.9724   -3.3848 H       1  LIG1        0.0838
     43 H           0.4514   -1.7007   -3.0869 H       1  LIG1        0.0975
     44 H          -0.4646   -0.5635   -4.0993 H       1  LIG1        0.0837
     45 H           2.3298    4.9677    7.2227 H       1  LIG1        0.0791
     46 H           1.0704    4.8737    5.9718 H       1  LIG1        0.0924
     47 H           2.3688    6.0790    5.8360 H       1  LIG1        0.0933
     48 H           3.7546    3.4142    7.2135 H       1  LIG1        0.0835
     49 H           4.8571    3.3663    5.8199 H       1  LIG1        0.0973
     50 H           3.5450    2.1757    5.9559 H       1  LIG1        0.0834
     51 H           3.5837    3.5334   -0.6295 H       1  LIG1        0.1236
@<TRIPOS>BOND
     1     1     2   ar
     2     1     3   ar
     3     2     4   ar
     4     3     5   ar
     5     4    12   ar
     6     5    12   ar
     7     6     8   ar
     8     6    13   ar
     9     7     9   ar
    10     7    14   ar
    11     8    15   ar
    12     9    16   ar
    13    10    15   ar
    14    10    17   ar
    15    11    16   ar
    16    11    18   ar
    17    12    23    1
    18    13    17   ar
    19    13    23    1
    20    14    18   ar
    21    14    23    1
    22    15    24    1
    23    16    25    1
    24    17    26    1
    25    18    27    1
    26    19    24    1
    27    20    24    1
    28    21    25    1
    29    22    25    1
    30     1    28    1
    31     2    29    1
    32     3    30    1
    33     4    31    1
    34     5    32    1
    35     6    33    1
    36     7    34    1
    37     8    35    1
    38     9    36    1
    39    10    37    1
    40    11    38    1
    41    19    39    1
    42    19    40    1
    43    19    41    1
    44    20    42    1
    45    20    43    1
    46    20    44    1
    47    21    45    1
    48    21    46    1
    49    21    47    1
    50    22    48    1
    51    22    49    1
    52    22    50    1
    53    23    51    1
