@<TRIPOS>MOLECULE
AG-690/09697040
 38 41 0 0 0
SMALL
USER_CHARGES

@<TRIPOS>ATOM
      1 C           1.5486    8.9138   -3.0925 C.1     1  LIG1        0.0554
      2 C           1.2806    4.5545    6.2541 C.ar    1  LIG1       -0.0771
      3 C           2.5883    4.9666    5.9314 C.ar    1  LIG1       -0.0770
      4 C           0.2565    0.9416   -0.9135 C.ar    1  LIG1       -0.0808
      5 C           0.9334    1.5098   -1.9926 C.ar    1  LIG1       -0.0822
      6 C           0.8516    7.0056   -1.7301 C.ar    1  LIG1       -0.0466
      7 C           3.1727    7.2401   -2.3582 C.ar    1  LIG1       -0.0422
      8 C           0.4818    3.9024    5.3107 C.ar    1  LIG1       -0.0539
      9 C           3.1190    4.7340    4.6596 C.ar    1  LIG1       -0.0535
     10 C           0.4224    1.4659    0.3683 C.ar    1  LIG1       -0.0463
     11 C           1.7764    2.6024   -1.7898 C.ar    1  LIG1       -0.0400
     12 C           1.1562    5.8308   -1.0428 C.ar    1  LIG1       -0.0461
     13 C           3.4774    6.0653   -1.6708 C.ar    1  LIG1       -0.0393
     14 C           1.8598    7.7104   -2.3879 C.ar    1  LIG1        0.0556
     15 C           1.0290    3.6832    4.0619 C.ar    1  LIG1        0.0615
     16 C           2.3100    4.0895    3.7447 C.ar    1  LIG1        0.0621
     17 C           1.2654    2.5585    0.5712 C.ar    1  LIG1        0.0380
     18 C           2.4691    5.3606   -1.0131 C.ar    1  LIG1        0.0197
     19 C           1.9425    3.1268   -0.5079 C.ar    1  LIG1        0.0582
     20 C           0.4496    3.0449    2.8833 C.2     1  LIG1        0.1776
     21 C           2.5788    3.7069    2.3614 C.2     1  LIG1        0.1777
     22 N           1.2957    9.8912   -3.6648 N.1     1  LIG1       -0.3787
     23 N           1.4260    3.0855    1.8944 N.am    1  LIG1       -0.1911
     24 O          -0.6972    2.6349    2.8867 O.2     1  LIG1       -0.4161
     25 O           3.6633    3.9151    1.8480 O.2     1  LIG1       -0.4174
     26 O           2.7711    4.1947   -0.3315 O.3     1  LIG1       -0.3527
     27 H           0.8898    4.7471    7.2497 H       1  LIG1        0.1425
     28 H           3.1903    5.4714    6.6824 H       1  LIG1        0.1427
     29 H          -0.4003    0.0910   -1.0718 H       1  LIG1        0.1369
     30 H           0.8035    1.1020   -2.9908 H       1  LIG1        0.1393
     31 H          -0.1765    7.3595   -1.7446 H       1  LIG1        0.1533
     32 H           3.9697    7.7782   -2.8659 H       1  LIG1        0.1564
     33 H          -0.5248    3.5862    5.5583 H       1  LIG1        0.1528
     34 H           4.1255    5.0502    4.4111 H       1  LIG1        0.1533
     35 H          -0.1106    1.0145    1.2013 H       1  LIG1        0.1457
     36 H           2.3006    3.0403   -2.6350 H       1  LIG1        0.1453
     37 H           0.3667    5.2857   -0.5326 H       1  LIG1        0.1270
     38 H           4.5021    5.7042   -1.6518 H       1  LIG1        0.1399
@<TRIPOS>BOND
     1     1    14    1
     2     1    22    3
     3     2     3   ar
     4     2     8   ar
     5     3     9   ar
     6     4     5   ar
     7     4    10   ar
     8     5    11   ar
     9     6    12   ar
    10     6    14   ar
    11     7    13   ar
    12     7    14   ar
    13     8    15   ar
    14     9    16   ar
    15    10    17   ar
    16    11    19   ar
    17    12    18   ar
    18    13    18   ar
    19    15    16   ar
    20    15    20    1
    21    16    21    1
    22    17    19   ar
    23    17    23    1
    24    18    26    1
    25    19    26    1
    26    20    23   am
    27    20    24    2
    28    21    23   am
    29    21    25    2
    30     2    27    1
    31     3    28    1
    32     4    29    1
    33     5    30    1
    34     6    31    1
    35     7    32    1
    36     8    33    1
    37     9    34    1
    38    10    35    1
    39    11    36    1
    40    12    37    1
    41    13    38    1
