@<TRIPOS>MOLECULE
AG-690/09393058
 39 41 0 0 0
SMALL
USER_CHARGES

@<TRIPOS>ATOM
      1 C           1.8384    7.5765   -2.1097 C.ar    1  LIG1       -0.1032
      2 C           1.0874    7.2447   -0.9821 C.ar    1  LIG1       -0.1003
      3 C           2.8281    6.7074   -2.5689 C.ar    1  LIG1       -0.1021
      4 C           0.9221    4.8527    4.0012 C.ar    1  LIG1       -0.0371
      5 C           3.1669    4.3533    4.7419 C.ar    1  LIG1       -0.0382
      6 C           1.3260    6.0439   -0.3137 C.ar    1  LIG1       -0.0879
      7 C           3.0668    5.5066   -1.9006 C.ar    1  LIG1       -0.0919
      8 C           0.4655    4.7494    5.3151 C.ar    1  LIG1       -0.0380
      9 C           2.7103    4.2500    6.0558 C.ar    1  LIG1       -0.0350
     10 C           2.2727    4.6546    3.7145 C.ar    1  LIG1        0.0566
     11 C           2.3157    5.1748   -0.7730 C.ar    1  LIG1       -0.0521
     12 C           1.3596    4.4480    6.3425 C.ar    1  LIG1        0.0691
     13 C           1.1104    2.2137    0.6678 C.2     1  LIG1       -0.0111
     14 C           2.7558    4.7643    2.3242 C.2     1  LIG1        0.1726
     15 C           1.7176    2.7291   -0.6024 C.3     1  LIG1        0.0555
     16 C           2.5764    3.8659   -0.0449 C.3     1  LIG1        0.0749
     17 C           0.2237    1.0138    0.6608 C.3     1  LIG1        0.0060
     18 N           1.3820    2.8790    1.7447 N.2     1  LIG1       -0.3226
     19 N           2.2131    3.9011    1.3818 N.am    1  LIG1       -0.2349
     20 N           0.8948    4.3424    7.6798 N.pl3   1  LIG1       -0.0464
     21 O          -0.3242    4.5239    7.9161 O.2     1  LIG1       -0.1537
     22 O           3.6131    5.6137    2.0882 O.2     1  LIG1       -0.4426
     23 O           1.7155    4.0704    8.5893 O.2     1  LIG1       -0.2452
     24 O           3.9485    3.4814   -0.1240 O.3     1  LIG1       -0.4417
     25 H           1.6516    8.5109   -2.6308 H       1  LIG1        0.1212
     26 H           0.3159    7.9208   -0.6251 H       1  LIG1        0.1212
     27 H           3.4124    6.9649   -3.4474 H       1  LIG1        0.1184
     28 H           0.2168    5.0882    3.2083 H       1  LIG1        0.1848
     29 H           4.2215    4.1974    4.5296 H       1  LIG1        0.1638
     30 H           0.7359    5.7938    0.5640 H       1  LIG1        0.1289
     31 H           3.8399    4.8357   -2.2655 H       1  LIG1        0.1150
     32 H          -0.5898    4.9058    5.5249 H       1  LIG1        0.1637
     33 H           3.4180    4.0149    6.8471 H       1  LIG1        0.1658
     34 H           2.2983    1.9405   -1.0892 H       1  LIG1        0.1219
     35 H           0.9084    3.0630   -1.2600 H       1  LIG1        0.1246
     36 H           0.8194    0.1120    0.8042 H       1  LIG1        0.0920
     37 H          -0.3038    0.9476   -0.2914 H       1  LIG1        0.0874
     38 H          -0.5101    1.0904    1.4638 H       1  LIG1        0.0895
     39 H           4.4647    4.1938    0.2879 H       1  LIG1        0.3510
@<TRIPOS>BOND
     1     1     2   ar
     2     1     3   ar
     3     2     6   ar
     4     3     7   ar
     5     4     8   ar
     6     4    10   ar
     7     5     9   ar
     8     5    10   ar
     9     6    11   ar
    10     7    11   ar
    11     8    12   ar
    12     9    12   ar
    13    10    14    1
    14    11    16    1
    15    12    20    1
    16    13    15    1
    17    13    17    1
    18    13    18    2
    19    14    19   am
    20    14    22    2
    21    15    16    1
    22    16    19    1
    23    16    24    1
    24    18    19    1
    25    20    21    1
    26    20    23    2
    27     1    25    1
    28     2    26    1
    29     3    27    1
    30     4    28    1
    31     5    29    1
    32     6    30    1
    33     7    31    1
    34     8    32    1
    35     9    33    1
    36    15    34    1
    37    15    35    1
    38    17    36    1
    39    17    37    1
    40    17    38    1
    41    24    39    1
