@<TRIPOS>MOLECULE
AR-360/42760422
 43 45 0 0 0
SMALL
USER_CHARGES

@<TRIPOS>ATOM
      1 C           1.4602    4.1754    6.2317 C.ar    1  LIG1       -0.1098
      2 C           2.2692    7.1312   -2.4730 C.ar    1  LIG1       -0.1073
      3 C           2.8017    4.4869    6.0109 C.ar    1  LIG1       -0.1068
      4 C           0.5355    4.2995    5.1947 C.ar    1  LIG1       -0.1087
      5 C           1.3294    7.5239   -1.5201 C.ar    1  LIG1       -0.1068
      6 C           3.0879    6.0279   -2.2319 C.ar    1  LIG1       -0.1024
      7 C           3.2187    4.9226    4.7531 C.ar    1  LIG1       -0.1027
      8 C           0.9524    4.7352    3.9369 C.ar    1  LIG1       -0.1053
      9 C           1.2083    6.8134   -0.3259 C.ar    1  LIG1       -0.0997
     10 C           2.9668    5.3173   -1.0377 C.ar    1  LIG1       -0.0940
     11 C           0.8654    1.4126   -1.5257 C.ar    1  LIG1       -0.0529
     12 C           2.2940    5.0467    3.7161 C.ar    1  LIG1       -0.1067
     13 C           2.0269    5.7101   -0.0846 C.ar    1  LIG1       -0.0740
     14 C          -0.1524    2.3068   -1.1594 C.ar    1  LIG1       -0.0275
     15 C           1.9297    1.7612   -0.7315 C.ar    1  LIG1       -0.0343
     16 C           2.2569    3.4975    1.0121 C.2     1  LIG1        0.1673
     17 C          -1.5193    2.3811   -1.7017 C.3     1  LIG1       -0.0016
     18 C           3.2821    1.1703   -0.6710 C.3     1  LIG1       -0.0067
     19 C           2.7446    5.5186    2.3544 C.3     1  LIG1       -0.0024
     20 C           1.8963    4.9397    1.2095 C.3     1  LIG1        0.0921
     21 N           0.2275    3.1610   -0.2074 N.ar    1  LIG1       -0.3208
     22 N           1.5115    2.8151    0.0500 N.ar    1  LIG1       -0.2362
     23 O           3.1342    2.8999    1.6183 O.2     1  LIG1       -0.4324
     24 H           1.1359    3.8349    7.2107 H       1  LIG1        0.1122
     25 H           2.3625    7.6837   -3.4034 H       1  LIG1        0.1151
     26 H           3.5220    4.3892    6.8179 H       1  LIG1        0.1134
     27 H          -0.5089    4.0560    5.3660 H       1  LIG1        0.1134
     28 H           0.6912    8.3824   -1.7082 H       1  LIG1        0.1148
     29 H           3.8190    5.7211   -2.9739 H       1  LIG1        0.1166
     30 H           4.2659    5.1633    4.5903 H       1  LIG1        0.1174
     31 H           0.2249    4.8290    3.1350 H       1  LIG1        0.1145
     32 H           0.4733    7.1268    0.4109 H       1  LIG1        0.1170
     33 H           3.6090    4.4590   -0.8582 H       1  LIG1        0.1244
     34 H           0.8352    0.6234   -2.2633 H       1  LIG1        0.1296
     35 H          -2.2128    1.7408   -1.1298 H       1  LIG1        0.0848
     36 H          -1.9221    3.4096   -1.6793 H       1  LIG1        0.0838
     37 H          -1.5670    2.0616   -2.7583 H       1  LIG1        0.0802
     38 H           3.9658    1.6723   -1.3746 H       1  LIG1        0.0794
     39 H           3.7217    1.2479    0.3377 H       1  LIG1        0.0835
     40 H           3.2744    0.0955   -0.9189 H       1  LIG1        0.0802
     41 H           2.7497    6.6163    2.3236 H       1  LIG1        0.0784
     42 H           3.7960    5.2269    2.2240 H       1  LIG1        0.0831
     43 H           0.8462    4.9314    1.5173 H       1  LIG1        0.1380
@<TRIPOS>BOND
     1     1     3   ar
     2     1     4   ar
     3     2     5   ar
     4     2     6   ar
     5     3     7   ar
     6     4     8   ar
     7     5     9   ar
     8     6    10   ar
     9     7    12   ar
    10     8    12   ar
    11     9    13   ar
    12    10    13   ar
    13    11    14   ar
    14    11    15   ar
    15    12    19    1
    16    13    20    1
    17    14    17    1
    18    14    21   ar
    19    15    18    1
    20    15    22   ar
    21    16    20    1
    22    16    22   am
    23    16    23    2
    24    19    20    1
    25    21    22   ar
    26     1    24    1
    27     2    25    1
    28     3    26    1
    29     4    27    1
    30     5    28    1
    31     6    29    1
    32     7    30    1
    33     8    31    1
    34     9    32    1
    35    10    33    1
    36    11    34    1
    37    17    35    1
    38    17    36    1
    39    17    37    1
    40    18    38    1
    41    18    39    1
    42    18    40    1
    43    19    41    1
    44    19    42    1
    45    20    43    1
