@<TRIPOS>MOLECULE
AN-717/42026282
 45 48 0 0 0
SMALL
USER_CHARGES

@<TRIPOS>ATOM
      1 C           1.2731    7.2808    6.5817 C.ar    1  LIG1       -0.0986
      2 C           0.1151    1.1785   -2.0892 C.ar    1  LIG1       -0.1009
      3 C           1.6829    7.2723   -2.8341 C.ar    1  LIG1       -0.0969
      4 C           0.4242    6.4819    5.8156 C.ar    1  LIG1       -0.0901
      5 C           2.6492    7.0536    6.5637 C.ar    1  LIG1       -0.1017
      6 C          -0.4469    1.9382   -1.0633 C.ar    1  LIG1       -0.0989
      7 C           1.4984    1.1629   -2.2682 C.ar    1  LIG1       -0.0998
      8 C           0.7712    7.2946   -1.7788 C.ar    1  LIG1       -0.0912
      9 C           2.8223    6.4716   -2.7548 C.ar    1  LIG1       -0.0858
     10 C           0.9516    5.4558    5.0315 C.ar    1  LIG1       -0.0641
     11 C           3.1766    6.0276    5.7796 C.ar    1  LIG1       -0.0779
     12 C           0.3743    2.6825   -0.2164 C.ar    1  LIG1       -0.0883
     13 C           2.3196    1.9073   -1.4214 C.ar    1  LIG1       -0.0911
     14 C           0.9989    6.5162   -0.6439 C.ar    1  LIG1       -0.0607
     15 C           3.0500    5.6932   -1.6199 C.ar    1  LIG1       -0.0540
     16 C           2.3277    5.2286    5.0135 C.ar    1  LIG1        0.0295
     17 C           1.7576    2.6671   -0.3954 C.ar    1  LIG1       -0.0504
     18 C           2.1383    5.7155   -0.5645 C.ar    1  LIG1       -0.0203
     19 C           2.5250    5.3840    1.9532 C.2     1  LIG1        0.0329
     20 C           2.8840    4.1461    4.1864 C.2     1  LIG1        0.1742
     21 C           2.4704    3.0126    1.9737 C.3     1  LIG1        0.0767
     22 C           2.6558    3.4805    0.5297 C.3     1  LIG1        0.0749
     23 N           2.3717    4.9163    0.6004 N.am    1  LIG1       -0.2910
     24 N           2.6574    4.2052    2.7946 N.am    1  LIG1       -0.2383
     25 O           3.4801    3.2573    4.7906 O.2     1  LIG1       -0.4010
     26 O           4.0407    3.3161    0.2093 O.3     1  LIG1       -0.4352
     27 S           2.6341    6.9684    2.4952 S.2     1  LIG1       -0.2654
     28 H           0.8625    8.0796    7.1921 H       1  LIG1        0.1292
     29 H          -0.5244    0.5978   -2.7477 H       1  LIG1        0.1243
     30 H           1.5056    7.8778   -3.7184 H       1  LIG1        0.1251
     31 H          -0.6473    6.6587    5.8300 H       1  LIG1        0.1273
     32 H           3.3101    7.6759    7.1599 H       1  LIG1        0.1222
     33 H          -1.5239    1.9495   -0.9230 H       1  LIG1        0.1226
     34 H           1.9364    0.5707   -3.0662 H       1  LIG1        0.1216
     35 H          -0.1164    7.9173   -1.8406 H       1  LIG1        0.1266
     36 H           3.5316    6.4537   -3.5772 H       1  LIG1        0.1285
     37 H           0.2810    4.8392    4.4385 H       1  LIG1        0.1470
     38 H           4.2505    5.8597    5.7734 H       1  LIG1        0.1349
     39 H          -0.0723    3.2717    0.5801 H       1  LIG1        0.1316
     40 H           3.3963    1.8892   -1.5685 H       1  LIG1        0.1209
     41 H           0.2813    6.5415    0.1723 H       1  LIG1        0.1314
     42 H           3.9414    5.0729   -1.5693 H       1  LIG1        0.1387
     43 H           1.4525    2.6535    2.1716 H       1  LIG1        0.1661
     44 H           3.1838    2.2317    2.2584 H       1  LIG1        0.1634
     45 H           4.5386    3.8617    0.8387 H       1  LIG1        0.3520
@<TRIPOS>BOND
     1     1     4   ar
     2     1     5   ar
     3     2     6   ar
     4     2     7   ar
     5     3     8   ar
     6     3     9   ar
     7     4    10   ar
     8     5    11   ar
     9     6    12   ar
    10     7    13   ar
    11     8    14   ar
    12     9    15   ar
    13    10    16   ar
    14    11    16   ar
    15    12    17   ar
    16    13    17   ar
    17    14    18   ar
    18    15    18   ar
    19    16    20    1
    20    17    22    1
    21    18    23    1
    22    19    23    1
    23    19    24    1
    24    19    27    2
    25    20    24   am
    26    20    25    2
    27    21    22    1
    28    21    24    1
    29    22    23    1
    30    22    26    1
    31     1    28    1
    32     2    29    1
    33     3    30    1
    34     4    31    1
    35     5    32    1
    36     6    33    1
    37     7    34    1
    38     8    35    1
    39     9    36    1
    40    10    37    1
    41    11    38    1
    42    12    39    1
    43    13    40    1
    44    14    41    1
    45    15    42    1
    46    21    43    1
    47    21    44    1
    48    26    45    1
