@<TRIPOS>MOLECULE
AG-205/12013098
 41 43 0 0 0
SMALL
USER_CHARGES

@<TRIPOS>ATOM
      1 C          -0.2130    0.8353   -1.4552 C.ar    1  LIG1       -0.1039
      2 C           0.9058    4.6970    5.8987 C.ar    1  LIG1       -0.0963
      3 C           1.5906    7.6618   -1.5625 C.ar    1  LIG1       -0.0870
      4 C           1.9942    3.8444    6.0831 C.ar    1  LIG1       -0.0982
      5 C           0.6132    1.1737   -2.5269 C.ar    1  LIG1       -0.1038
      6 C           0.0676    1.3205   -0.1779 C.ar    1  LIG1       -0.1002
      7 C           2.1577    6.9241   -2.6016 C.ar    1  LIG1       -0.0935
      8 C           0.7713    5.4083    4.7063 C.ar    1  LIG1       -0.0642
      9 C           1.5766    7.1450   -0.2669 C.ar    1  LIG1       -0.0543
     10 C           2.9481    3.7031    5.0754 C.ar    1  LIG1       -0.0591
     11 C           1.7199    1.9974   -2.3213 C.ar    1  LIG1       -0.0943
     12 C           1.1744    2.1441    0.0277 C.ar    1  LIG1       -0.0894
     13 C           2.7108    5.6695   -2.3452 C.ar    1  LIG1       -0.0793
     14 C           1.7253    5.2670    3.6985 C.ar    1  LIG1        0.0669
     15 C           2.1296    5.8903   -0.0106 C.ar    1  LIG1       -0.0344
     16 C           2.8137    4.4144    3.8830 C.ar    1  LIG1        0.0271
     17 C           2.0005    2.4826   -1.0440 C.ar    1  LIG1       -0.0557
     18 C           2.6968    5.1526   -1.0498 C.ar    1  LIG1       -0.0185
     19 C           1.5659    6.0188    2.4616 C.2     1  LIG1        0.1293
     20 C           4.8327    3.3693    3.1851 C.3     1  LIG1        0.0322
     21 N           2.0958    5.4006    1.3194 N.am    1  LIG1       -0.2980
     22 O           1.0310    7.1350    2.4445 O.2     1  LIG1       -0.4566
     23 O           3.7552    4.2615    2.9093 O.3     1  LIG1       -0.3985
     24 S           3.4176    3.5362   -0.7809 S.3     1  LIG1       -0.1528
     25 H          -1.0746    0.1939   -1.6159 H       1  LIG1        0.1163
     26 H           0.1631    4.8068    6.6838 H       1  LIG1        0.1166
     27 H           1.1596    8.6387   -1.7619 H       1  LIG1        0.1340
     28 H           2.0986    3.2914    7.0120 H       1  LIG1        0.1354
     29 H           0.3951    0.7958   -3.5215 H       1  LIG1        0.1185
     30 H          -0.5762    1.0565    0.6560 H       1  LIG1        0.1228
     31 H           2.1687    7.3268   -3.6104 H       1  LIG1        0.1198
     32 H          -0.0812    6.0696    4.5734 H       1  LIG1        0.1394
     33 H           1.1316    7.7301    0.5340 H       1  LIG1        0.1456
     34 H           3.7935    3.0371    5.2255 H       1  LIG1        0.1171
     35 H           2.3523    2.2499   -3.1689 H       1  LIG1        0.1154
     36 H           1.3771    2.5123    1.0305 H       1  LIG1        0.1253
     37 H           3.1478    5.1121   -3.1705 H       1  LIG1        0.1422
     38 H           5.5105    3.3395    2.3285 H       1  LIG1        0.1247
     39 H           4.4375    2.3702    3.3856 H       1  LIG1        0.0910
     40 H           5.3749    3.7275    4.0634 H       1  LIG1        0.0907
     41 H           2.5092    4.4827    1.4641 H       1  LIG1        0.3274
@<TRIPOS>BOND
     1     1     5   ar
     2     1     6   ar
     3     2     4   ar
     4     2     8   ar
     5     3     7   ar
     6     3     9   ar
     7     4    10   ar
     8     5    11   ar
     9     6    12   ar
    10     7    13   ar
    11     8    14   ar
    12     9    15   ar
    13    10    16   ar
    14    11    17   ar
    15    12    17   ar
    16    13    18   ar
    17    14    16   ar
    18    14    19    1
    19    15    18   ar
    20    15    21    1
    21    16    23    1
    22    17    24    1
    23    18    24    1
    24    19    21   am
    25    19    22    2
    26    20    23    1
    27     1    25    1
    28     2    26    1
    29     3    27    1
    30     4    28    1
    31     5    29    1
    32     6    30    1
    33     7    31    1
    34     8    32    1
    35     9    33    1
    36    10    34    1
    37    11    35    1
    38    12    36    1
    39    13    37    1
    40    20    38    1
    41    20    39    1
    42    20    40    1
    43    21    41    1
