@<TRIPOS>MOLECULE
AG-205/33133057
 44 48 0 0 0
SMALL
USER_CHARGES

@<TRIPOS>ATOM
      1 C           2.0001    7.6264   -2.3259 C.ar    1  LIG1       -0.1099
      2 C           1.8676    4.6414    6.4422 C.ar    1  LIG1       -0.1038
      3 C           0.7187    4.3705    5.7217 C.ar    1  LIG1       -0.1035
      4 C           2.9276    6.7470   -2.8844 C.ar    1  LIG1       -0.1058
      5 C           1.2499    7.2368   -1.2163 C.ar    1  LIG1       -0.1076
      6 C           3.0943    4.6309    5.7911 C.ar    1  LIG1       -0.0929
      7 C           0.8037    4.0621    4.3594 C.ar    1  LIG1       -0.0868
      8 C           4.4428    4.3966    3.8160 C.ar    1  LIG1       -0.0742
      9 C           3.1048    5.4779   -2.3335 C.ar    1  LIG1       -0.0937
     10 C           1.4271    5.9677   -0.6653 C.ar    1  LIG1       -0.0969
     11 C           4.5812    4.1787    2.4544 C.ar    1  LIG1       -0.0520
     12 C           3.1882    4.3321    4.4205 C.ar    1  LIG1       -0.0705
     13 C           2.0360    3.9903    3.6571 C.ar    1  LIG1       -0.0663
     14 C           2.2027    3.6508    2.2648 C.ar    1  LIG1       -0.0271
     15 C           2.3546    5.0882   -1.2239 C.ar    1  LIG1       -0.0773
     16 C           3.4773    3.8367    1.6666 C.ar    1  LIG1       -0.0494
     17 C           1.1442    3.0547    1.3695 C.2     1  LIG1       -0.0677
     18 C           1.3168    3.1250    0.0298 C.2     1  LIG1        0.0008
     19 C           0.2910    2.5370   -0.9000 C.2     1  LIG1        0.0593
     20 C          -0.0106    2.2818    1.9618 C.3     1  LIG1       -0.0248
     21 C          -0.8951    1.8112   -0.3153 C.3     1  LIG1        0.0240
     22 C          -0.5385    1.2016    1.0241 C.3     1  LIG1       -0.0392
     23 C           2.5470    3.7057   -0.6234 C.3     1  LIG1        0.0063
     24 N           3.6699    3.7035    0.2967 N.pl3   1  LIG1       -0.3818
     25 O           0.3898    2.6811   -2.1188 O.2     1  LIG1       -0.4808
     26 H           1.8632    8.6152   -2.7541 H       1  LIG1        0.1128
     27 H           1.8101    4.8812    7.4993 H       1  LIG1        0.1119
     28 H          -0.2516    4.4060    6.2089 H       1  LIG1        0.1213
     29 H           3.5126    7.0506   -3.7477 H       1  LIG1        0.1138
     30 H           0.5285    7.9216   -0.7806 H       1  LIG1        0.1111
     31 H           3.9855    4.8745    6.3673 H       1  LIG1        0.1281
     32 H          -0.1435    3.9165    3.8553 H       1  LIG1        0.1257
     33 H           5.3285    4.6589    4.3917 H       1  LIG1        0.1454
     34 H           3.8296    4.7992   -2.7754 H       1  LIG1        0.1247
     35 H           0.8382    5.6727    0.1990 H       1  LIG1        0.1141
     36 H           5.5651    4.2899    2.0030 H       1  LIG1        0.1252
     37 H           0.2905    1.7810    2.8889 H       1  LIG1        0.0799
     38 H          -0.8344    2.9695    2.1823 H       1  LIG1        0.0828
     39 H          -1.7232    2.5223   -0.2209 H       1  LIG1        0.0782
     40 H          -1.1955    1.0165   -1.0067 H       1  LIG1        0.0871
     41 H           0.2223    0.4214    0.8916 H       1  LIG1        0.0507
     42 H          -1.4199    0.7219    1.4646 H       1  LIG1        0.0583
     43 H           2.8552    3.0391   -1.4709 H       1  LIG1        0.1479
     44 H           4.6037    3.8312   -0.0776 H       1  LIG1        0.3023
@<TRIPOS>BOND
     1     1     4   ar
     2     1     5   ar
     3     2     3   ar
     4     2     6   ar
     5     3     7   ar
     6     4     9   ar
     7     5    10   ar
     8     6    12   ar
     9     7    13   ar
    10     8    11   ar
    11     8    12   ar
    12     9    15   ar
    13    10    15   ar
    14    11    16   ar
    15    12    13   ar
    16    13    14   ar
    17    14    16   ar
    18    14    17    1
    19    15    23    1
    20    16    24    1
    21    17    18    2
    22    17    20    1
    23    18    19    1
    24    18    23    1
    25    19    21    1
    26    19    25    2
    27    20    22    1
    28    21    22    1
    29    23    24    1
    30     1    26    1
    31     2    27    1
    32     3    28    1
    33     4    29    1
    34     5    30    1
    35     6    31    1
    36     7    32    1
    37     8    33    1
    38     9    34    1
    39    10    35    1
    40    11    36    1
    41    20    37    1
    42    20    38    1
    43    21    39    1
    44    21    40    1
    45    22    41    1
    46    22    42    1
    47    23    43    1
    48    24    44    1
