@<TRIPOS>MOLECULE
AB-337/13036016
 32 34 0 0 0
SMALL
USER_CHARGES

@<TRIPOS>ATOM
      1 C           0.0345    0.8040   -1.8112 C.ar    1  LIG1       -0.0958
      2 C           0.8524    4.5892    6.2365 C.ar    1  LIG1       -0.0989
      3 C           2.2314    4.5583    6.4997 C.ar    1  LIG1       -0.0983
      4 C          -0.4892    2.0651   -1.5271 C.ar    1  LIG1       -0.0931
      5 C           1.3536    0.5038   -1.4712 C.ar    1  LIG1       -0.0925
      6 C           0.3740    4.4960    4.9279 C.ar    1  LIG1       -0.0978
      7 C           3.1533    4.4370    5.4579 C.ar    1  LIG1       -0.0952
      8 C           0.3061    3.0262   -0.9031 C.ar    1  LIG1       -0.0228
      9 C           2.1490    1.4648   -0.8471 C.ar    1  LIG1       -0.0211
     10 C           1.2937    4.3638    3.9016 C.ar    1  LIG1       -0.1030
     11 C           2.6719    4.3406    4.1622 C.ar    1  LIG1       -0.0844
     12 C           1.6252    2.7261   -0.5630 C.ar    1  LIG1        0.2352
     13 C           1.0255    4.2676    2.4310 C.3     1  LIG1        0.0558
     14 C           3.4560    4.2403    2.8856 C.3     1  LIG1        0.1133
     15 C           2.3643    3.6918    1.9419 C.3     1  LIG1        0.2408
     16 O           4.0168    3.6168   -0.0923 O.2     1  LIG1       -0.1401
     17 O           2.1039    5.2556   -0.1271 O.2     1  LIG1       -0.1401
     18 S           2.6352    3.9472    0.2260 S.O2    1  LIG1       -0.1304
     19 CL          4.0562    5.8587    2.4506 Cl      1  LIG1       -0.1882
     20 H          -0.5841    0.0554   -2.2977 H       1  LIG1        0.1344
     21 H           0.1513    4.6897    7.0608 H       1  LIG1        0.1254
     22 H           2.5834    4.6353    7.5249 H       1  LIG1        0.1228
     23 H          -1.5158    2.2996   -1.7927 H       1  LIG1        0.1227
     24 H           1.7613   -0.4780   -1.6932 H       1  LIG1        0.1228
     25 H          -0.6915    4.5255    4.7272 H       1  LIG1        0.1243
     26 H           4.2182    4.4239    5.6637 H       1  LIG1        0.1271
     27 H          -0.1116    4.0059   -0.6871 H       1  LIG1        0.1442
     28 H           3.1755    1.2206   -0.5879 H       1  LIG1        0.1499
     29 H           0.1958    3.5914    2.2039 H       1  LIG1        0.0855
     30 H           0.8193    5.2589    2.0141 H       1  LIG1        0.0922
     31 H           4.3034    3.5525    2.9633 H       1  LIG1        0.1409
     32 H           2.3304    2.5983    2.0616 H       1  LIG1        0.1997
@<TRIPOS>BOND
     1     1     4   ar
     2     1     5   ar
     3     2     3   ar
     4     2     6   ar
     5     3     7   ar
     6     4     8   ar
     7     5     9   ar
     8     6    10   ar
     9     7    11   ar
    10     8    12   ar
    11     9    12   ar
    12    10    11   ar
    13    10    13    1
    14    11    14    1
    15    12    18    1
    16    13    15    1
    17    14    15    1
    18    14    19    1
    19    15    18    1
    20    16    18    2
    21    17    18    2
    22     1    20    1
    23     2    21    1
    24     3    22    1
    25     4    23    1
    26     5    24    1
    27     6    25    1
    28     7    26    1
    29     8    27    1
    30     9    28    1
    31    13    29    1
    32    13    30    1
    33    14    31    1
    34    15    32    1
