@<TRIPOS>MOLECULE
AG-690/36273045
 36 38 0 0 0
SMALL
USER_CHARGES

@<TRIPOS>ATOM
      1 C           0.9990    5.7749   -1.1173 C.ar    1  LIG1       -0.0747
      2 C           3.3972    5.8327   -1.4050 C.ar    1  LIG1       -0.0797
      3 C           0.8757    6.9117   -1.9162 C.ar    1  LIG1       -0.0657
      4 C           3.2738    6.9694   -2.2041 C.ar    1  LIG1       -0.0678
      5 C           3.0849    4.1196    4.3901 C.ar    1  LIG1       -0.0318
      6 C           0.8555    5.0221    4.3879 C.ar    1  LIG1       -0.0324
      7 C           2.8993    3.8077    5.7273 C.ar    1  LIG1       -0.0307
      8 C           0.7696    4.6696    5.7251 C.ar    1  LIG1       -0.0337
      9 C           2.0387    4.7383    3.7149 C.ar    1  LIG1        0.0510
     10 C           2.2598    5.2355   -0.8617 C.ar    1  LIG1       -0.0437
     11 C           2.0131    7.5088   -2.4596 C.ar    1  LIG1       -0.0100
     12 C           0.8279    2.3917    0.6076 C.2     1  LIG1        0.1450
     13 C           2.1835    5.0918    2.2893 C.2     1  LIG1        0.1776
     14 C           1.6368    2.8058   -0.5847 C.3     1  LIG1        0.0820
     15 C           2.3945    3.9956    0.0077 C.3     1  LIG1        0.0840
     16 C          -0.0480    1.1848    0.5570 C.3     1  LIG1        0.4026
     17 N           1.7646    4.0676    6.4146 N.ar    1  LIG1       -0.3963
     18 N           0.9199    3.1482    1.6541 N.2     1  LIG1       -0.2738
     19 N           1.8014    4.1462    1.3472 N.am    1  LIG1       -0.2163
     20 O           2.6373    6.2038    2.0251 O.2     1  LIG1       -0.4334
     21 O           3.7601    3.6223    0.1878 O.3     1  LIG1       -0.4366
     22 F           0.0153    0.5865   -0.6521 F       1  LIG1       -0.1597
     23 F           0.3197    0.2739    1.4839 F       1  LIG1       -0.1590
     24 F          -1.3398    1.5044    0.7881 F       1  LIG1       -0.1593
     25 CL          1.8607    8.9110   -3.4454 Cl      1  LIG1       -0.1353
     26 H           0.1081    5.3155   -0.6974 H       1  LIG1        0.1439
     27 H           4.3830    5.4185   -1.2110 H       1  LIG1        0.1269
     28 H          -0.1131    7.3206   -2.1070 H       1  LIG1        0.1397
     29 H           4.1689    7.4242   -2.6207 H       1  LIG1        0.1371
     30 H           4.0208    3.8828    3.8951 H       1  LIG1        0.1491
     31 H           0.0201    5.5032    3.8906 H       1  LIG1        0.1627
     32 H           3.6842    3.3237    6.2988 H       1  LIG1        0.2059
     33 H          -0.1315    4.8695    6.2951 H       1  LIG1        0.2042
     34 H           2.2881    1.9861   -0.9010 H       1  LIG1        0.1371
     35 H           0.9476    3.0736   -1.3922 H       1  LIG1        0.1340
     36 H           4.2030    4.3729    0.6169 H       1  LIG1        0.3569
@<TRIPOS>BOND
     1     1     3   ar
     2     1    10   ar
     3     2     4   ar
     4     2    10   ar
     5     3    11   ar
     6     4    11   ar
     7     5     7   ar
     8     5     9   ar
     9     6     8   ar
    10     6     9   ar
    11     7    17   ar
    12     8    17   ar
    13     9    13    1
    14    10    15    1
    15    11    25    1
    16    12    14    1
    17    12    16    1
    18    12    18    2
    19    13    19   am
    20    13    20    2
    21    14    15    1
    22    15    19    1
    23    15    21    1
    24    16    22    1
    25    16    23    1
    26    16    24    1
    27    18    19    1
    28     1    26    1
    29     2    27    1
    30     3    28    1
    31     4    29    1
    32     5    30    1
    33     6    31    1
    34     7    32    1
    35     8    33    1
    36    14    34    1
    37    14    35    1
    38    21    36    1
