@<TRIPOS>MOLECULE
AG-690/11142277
 28 29 0 0 0
SMALL
USER_CHARGES

@<TRIPOS>ATOM
      1 C           0.3109    2.6079   -0.3134 C.ar    1  LIG1       -0.0873
      2 C           2.2559    1.9061   -1.5632 C.ar    1  LIG1       -0.0860
      3 C           1.1656    7.3499   -1.1901 C.ar    1  LIG1       -0.0657
      4 C          -0.4193    1.5508   -0.8562 C.ar    1  LIG1       -0.0730
      5 C           1.5255    0.8488   -2.1060 C.ar    1  LIG1       -0.0719
      6 C           2.0193    7.6195   -2.2597 C.ar    1  LIG1       -0.0793
      7 C           3.1242    5.4993   -1.9125 C.ar    1  LIG1       -0.0722
      8 C           1.6486    2.7856   -0.6669 C.ar    1  LIG1       -0.0717
      9 C           2.2706    5.2296   -0.8428 C.ar    1  LIG1       -0.0409
     10 C           1.2912    6.1549   -0.4816 C.ar    1  LIG1       -0.0851
     11 C           0.1879    0.6712   -1.7525 C.ar    1  LIG1       -0.0160
     12 C           2.9985    6.6943   -2.6209 C.ar    1  LIG1       -0.0447
     13 C           2.4304    3.9149   -0.0854 C.3     1  LIG1        0.0253
     14 N           0.4183    5.8989    0.5985 N.pl3   1  LIG1       -0.4174
     15 O           3.8245    3.5798    0.0286 O.3     1  LIG1       -0.4662
     16 CL         -0.7131   -0.6329   -2.4218 Cl      1  LIG1       -0.1434
     17 BR          4.1547    7.0604   -4.0704 Br      1  LIG1       -0.1272
     18 H          -0.1694    3.2891    0.3841 H       1  LIG1        0.1254
     19 H           3.2977    2.0375   -1.8435 H       1  LIG1        0.1280
     20 H           0.4061    8.0784   -0.9177 H       1  LIG1        0.1226
     21 H          -1.4607    1.4246   -0.5712 H       1  LIG1        0.1339
     22 H           2.0120    0.1715   -2.8032 H       1  LIG1        0.1352
     23 H           1.9081    8.5554   -2.8014 H       1  LIG1        0.1415
     24 H           3.8858    4.7736   -2.1892 H       1  LIG1        0.1403
     25 H           2.1154    4.0871    0.9599 H       1  LIG1        0.1590
     26 H          -0.2428    6.5988    0.8657 H       1  LIG1        0.2507
     27 H           0.5400    5.0644    1.1344 H       1  LIG1        0.2564
     28 H           4.2516    4.3580    0.4097 H       1  LIG1        0.3294
@<TRIPOS>BOND
     1     1     4   ar
     2     1     8   ar
     3     2     5   ar
     4     2     8   ar
     5     3     6   ar
     6     3    10   ar
     7     4    11   ar
     8     5    11   ar
     9     6    12   ar
    10     7     9   ar
    11     7    12   ar
    12     8    13    1
    13     9    10   ar
    14     9    13    1
    15    10    14    1
    16    11    16    1
    17    12    17    1
    18    13    15    1
    19     1    18    1
    20     2    19    1
    21     3    20    1
    22     4    21    1
    23     5    22    1
    24     6    23    1
    25     7    24    1
    26    13    25    1
    27    14    26    1
    28    14    27    1
    29    15    28    1
