@<TRIPOS>MOLECULE
AB-131/42301044
 39 42 0 0 0
SMALL
USER_CHARGES

@<TRIPOS>ATOM
      1 C           1.0788    7.1578   -2.3359 C.ar    1  LIG1       -0.1043
      2 C          -0.1341    1.4816   -1.9448 C.ar    1  LIG1       -0.1033
      3 C           2.3511    7.5855   -1.9768 C.ar    1  LIG1       -0.1056
      4 C           0.6502    0.6996   -1.1063 C.ar    1  LIG1       -0.1045
      5 C           0.7225    5.8130   -2.1956 C.ar    1  LIG1       -0.0916
      6 C           0.1806    2.8283   -2.1496 C.ar    1  LIG1       -0.0899
      7 C           3.2674    6.6703   -1.4698 C.ar    1  LIG1       -0.0989
      8 C           1.7575    1.2604   -0.4790 C.ar    1  LIG1       -0.0952
      9 C           3.8022    2.9083    2.4781 C.ar    1  LIG1       -0.0996
     10 C           2.1540    4.5406    1.8026 C.ar    1  LIG1       -0.1019
     11 C           3.5910    3.2480    3.8144 C.ar    1  LIG1       -0.1072
     12 C           1.9428    4.8804    3.1389 C.ar    1  LIG1       -0.1076
     13 C           1.6304    4.8622   -1.6942 C.ar    1  LIG1       -0.0751
     14 C           1.2869    3.4287   -1.5201 C.ar    1  LIG1       -0.0719
     15 C           3.0838    3.5547    1.4722 C.ar    1  LIG1       -0.0997
     16 C           2.9115    5.3216   -1.3131 C.ar    1  LIG1       -0.0931
     17 C           2.0888    2.6115   -0.6861 C.ar    1  LIG1       -0.0828
     18 C           2.6612    4.2340    4.1448 C.ar    1  LIG1       -0.1217
     19 C           3.9353    4.3421   -0.7933 C.3     1  LIG1       -0.0203
     20 C           3.3137    3.1838    0.0116 C.3     1  LIG1       -0.0119
     21 C           2.4347    4.5956    5.5739 C.3     1  LIG1       -0.0457
     22 H           0.3574    7.8697   -2.7268 H       1  LIG1        0.1158
     23 H          -0.9956    1.0465   -2.4431 H       1  LIG1        0.1165
     24 H           2.6286    8.6289   -2.0910 H       1  LIG1        0.1165
     25 H           0.4035   -0.3455   -0.9457 H       1  LIG1        0.1165
     26 H          -0.2891    5.5344   -2.4794 H       1  LIG1        0.1224
     27 H          -0.4610    3.3918   -2.8221 H       1  LIG1        0.1228
     28 H           4.2621    7.0121   -1.1950 H       1  LIG1        0.1189
     29 H           2.3690    0.6390    0.1707 H       1  LIG1        0.1199
     30 H           4.5288    2.1392    2.2300 H       1  LIG1        0.1255
     31 H           1.5889    5.0482    1.0252 H       1  LIG1        0.1163
     32 H           4.1540    2.7380    4.5913 H       1  LIG1        0.1116
     33 H           1.2165    5.6496    3.3877 H       1  LIG1        0.1132
     34 H           4.4569    3.9312   -1.6685 H       1  LIG1        0.0783
     35 H           4.6884    4.8592   -0.1847 H       1  LIG1        0.0788
     36 H           4.1050    2.3721    0.0359 H       1  LIG1        0.0999
     37 H           3.1125    5.4035    5.8754 H       1  LIG1        0.0550
     38 H           1.4018    4.9269    5.7421 H       1  LIG1        0.0522
     39 H           2.6037    3.7349    6.2341 H       1  LIG1        0.0519
@<TRIPOS>BOND
     1     1     3   ar
     2     1     5   ar
     3     2     4   ar
     4     2     6   ar
     5     3     7   ar
     6     4     8   ar
     7     5    13   ar
     8     6    14   ar
     9     7    16   ar
    10     8    17   ar
    11     9    11   ar
    12     9    15   ar
    13    10    12   ar
    14    10    15   ar
    15    11    18   ar
    16    12    18   ar
    17    13    14    1
    18    13    16   ar
    19    14    17   ar
    20    15    20    1
    21    16    19    1
    22    17    20    1
    23    18    21    1
    24    19    20    1
    25     1    22    1
    26     2    23    1
    27     3    24    1
    28     4    25    1
    29     5    26    1
    30     6    27    1
    31     7    28    1
    32     8    29    1
    33     9    30    1
    34    10    31    1
    35    11    32    1
    36    12    33    1
    37    19    34    1
    38    19    35    1
    39    20    36    1
    40    21    37    1
    41    21    38    1
    42    21    39    1
