@<TRIPOS>MOLECULE
ZINC08742439
 41 44 0 0 0
SMALL
USER_CHARGES

@<TRIPOS>ATOM
      1 C           0.4043    0.6100   -1.8316 C.ar    1  LIG1       -0.1052
      2 C           2.2180    7.5554   -2.3523 C.ar    1  LIG1       -0.1072
      3 C           1.7413    0.9609   -2.0177 C.ar    1  LIG1       -0.1040
      4 C          -0.4082    1.3766   -0.9960 C.ar    1  LIG1       -0.1036
      5 C           3.2127    6.5810   -2.4323 C.ar    1  LIG1       -0.1017
      6 C           1.1616    7.4018   -1.4544 C.ar    1  LIG1       -0.1057
      7 C           0.2592    5.0802    8.2029 C.ar    1  LIG1       -0.0819
      8 C           1.5452    4.7879    8.6437 C.ar    1  LIG1       -0.0875
      9 C           2.2661    2.0783   -1.3682 C.ar    1  LIG1       -0.0992
     10 C           0.1166    2.4939   -0.3465 C.ar    1  LIG1       -0.0980
     11 C           3.1510    5.4526   -1.6145 C.ar    1  LIG1       -0.0917
     12 C           1.1000    6.2735   -0.6366 C.ar    1  LIG1       -0.0968
     13 C          -0.0458    5.0607    6.8388 C.ar    1  LIG1       -0.0548
     14 C           2.5586    4.4688    7.7364 C.ar    1  LIG1       -0.0749
     15 C           1.4537    2.8448   -0.5325 C.ar    1  LIG1       -0.0744
     16 C           2.0947    5.2990   -0.7165 C.ar    1  LIG1       -0.0677
     17 C           0.9597    4.7415    5.9007 C.ar    1  LIG1       -0.0244
     18 C           2.2452    4.4511    6.3678 C.ar    1  LIG1       -0.0005
     19 C           1.9477    4.3565    3.9661 C.ar    1  LIG1        0.0827
     20 C           1.3325    4.3342    1.5217 C.2     1  LIG1        0.1417
     21 C           2.0265    4.0656    0.1776 C.3     1  LIG1        0.0922
     22 N           0.8052    4.6833    4.5233 N.ar    1  LIG1       -0.3591
     23 N           2.2105    4.1941    2.6317 N.am    1  LIG1       -0.2442
     24 O           0.1446    4.6371    1.5912 O.2     1  LIG1       -0.4329
     25 S           3.2670    4.0997    5.0242 S.2     1  LIG1       -0.0482
     26 H          -0.0045   -0.2592   -2.3385 H       1  LIG1        0.1181
     27 H           2.2668    8.4345   -2.9882 H       1  LIG1        0.1155
     28 H           2.3738    0.3648   -2.6691 H       1  LIG1        0.1181
     29 H          -1.4495    1.1043   -0.8518 H       1  LIG1        0.1191
     30 H           4.0359    6.7009   -3.1306 H       1  LIG1        0.1155
     31 H           0.3876    8.1609   -1.3911 H       1  LIG1        0.1150
     32 H          -0.5163    5.3257    8.9232 H       1  LIG1        0.1311
     33 H           1.7669    4.8078    9.7077 H       1  LIG1        0.1348
     34 H           3.3092    2.3440   -1.5190 H       1  LIG1        0.1175
     35 H          -0.5238    3.0851    0.3028 H       1  LIG1        0.1225
     36 H           3.9305    4.6984   -1.6838 H       1  LIG1        0.1239
     37 H           0.2731    6.1622    0.0600 H       1  LIG1        0.1193
     38 H          -1.0537    5.2915    6.5055 H       1  LIG1        0.1467
     39 H           3.5602    4.2404    8.0878 H       1  LIG1        0.1385
     40 H           3.0688    3.8223    0.4380 H       1  LIG1        0.1493
     41 H           3.1807    3.9407    2.3637 H       1  LIG1        0.3619
@<TRIPOS>BOND
     1     1     3   ar
     2     1     4   ar
     3     2     5   ar
     4     2     6   ar
     5     3     9   ar
     6     4    10   ar
     7     5    11   ar
     8     6    12   ar
     9     7     8   ar
    10     7    13   ar
    11     8    14   ar
    12     9    15   ar
    13    10    15   ar
    14    11    16   ar
    15    12    16   ar
    16    13    17   ar
    17    14    18   ar
    18    15    21    1
    19    16    21    1
    20    17    18   ar
    21    17    22   ar
    22    18    25   ar
    23    19    22   ar
    24    19    23    1
    25    19    25   ar
    26    20    21    1
    27    20    23   am
    28    20    24    2
    29     1    26    1
    30     2    27    1
    31     3    28    1
    32     4    29    1
    33     5    30    1
    34     6    31    1
    35     7    32    1
    36     8    33    1
    37     9    34    1
    38    10    35    1
    39    11    36    1
    40    12    37    1
    41    13    38    1
    42    14    39    1
    43    21    40    1
    44    23    41    1
