@<TRIPOS>MOLECULE
AG-205/08396013
 36 38 0 0 0
SMALL
USER_CHARGES

@<TRIPOS>ATOM
      1 C           1.0202    0.6002   -1.4679 C.ar    1  LIG1       -0.0933
      2 C           0.0169    1.3273   -2.1304 C.ar    1  LIG1       -0.0909
      3 C           0.9917    4.5528    4.2510 C.ar    1  LIG1       -0.0673
      4 C           3.1938    4.4687    5.2416 C.ar    1  LIG1       -0.0716
      5 C           1.9220    1.2416   -0.6155 C.ar    1  LIG1       -0.0776
      6 C          -0.1005    2.7075   -1.9525 C.ar    1  LIG1       -0.0631
      7 C           0.4229    4.6324    5.5221 C.ar    1  LIG1       -0.0394
      8 C           2.6250    4.5484    6.5127 C.ar    1  LIG1       -0.0422
      9 C           2.3772    4.4709    4.1108 C.ar    1  LIG1       -0.0084
     10 C           1.7986    2.6096   -0.4422 C.ar    1  LIG1       -0.0161
     11 C           0.8014    3.3267   -1.1044 C.ar    1  LIG1       -0.0321
     12 C           1.2396    4.6303    6.6530 C.ar    1  LIG1        0.0681
     13 C           1.9568    4.9113    0.1286 C.2     1  LIG1        0.1527
     14 C           2.9776    4.3870    2.7681 C.2     1  LIG1        0.0889
     15 C           2.6189    3.5452    0.4016 C.3     1  LIG1        0.1294
     16 C           0.0130    5.6962   -1.2852 C.3     1  LIG1       -0.0033
     17 C           2.5900    3.2048    1.8845 C.3     1  LIG1        0.0867
     18 N           0.8981    4.6824   -0.7627 N.am    1  LIG1       -0.3148
     19 O           2.3244    5.9764    0.6031 O.2     1  LIG1       -0.4304
     20 O           3.7711    5.2321    2.3493 O.2     1  LIG1       -0.4412
     21 O           3.9478    3.5894   -0.0806 O.3     1  LIG1       -0.4411
     22 F           0.6935    4.7068    7.8737 F       1  LIG1       -0.2609
     23 H           1.0943   -0.4731   -1.6218 H       1  LIG1        0.1211
     24 H          -0.6742    0.8083   -2.7893 H       1  LIG1        0.1339
     25 H           0.3461    4.5554    3.3767 H       1  LIG1        0.1534
     26 H           4.2748    4.4060    5.1439 H       1  LIG1        0.1458
     27 H           2.6959    0.6769   -0.1071 H       1  LIG1        0.1403
     28 H          -0.8772    3.2603   -2.4690 H       1  LIG1        0.1271
     29 H          -0.6556    4.6965    5.6316 H       1  LIG1        0.1356
     30 H           3.2606    4.5463    7.3935 H       1  LIG1        0.1348
     31 H          -0.8574    5.8073   -0.6334 H       1  LIG1        0.1110
     32 H          -0.3297    5.4196   -2.2859 H       1  LIG1        0.0977
     33 H           0.5322    6.6566   -1.3456 H       1  LIG1        0.0977
     34 H           3.2900    2.3829    2.0677 H       1  LIG1        0.1098
     35 H           1.5773    2.8835    2.1495 H       1  LIG1        0.1121
     36 H           4.4404    4.2031    0.4913 H       1  LIG1        0.3477
@<TRIPOS>BOND
     1     1     2   ar
     2     1     5   ar
     3     2     6   ar
     4     3     7   ar
     5     3     9   ar
     6     4     8   ar
     7     4     9   ar
     8     5    10   ar
     9     6    11   ar
    10     7    12   ar
    11     8    12   ar
    12     9    14    1
    13    10    11   ar
    14    10    15    1
    15    11    18    1
    16    12    22    1
    17    13    15    1
    18    13    18   am
    19    13    19    2
    20    14    17    1
    21    14    20    2
    22    15    17    1
    23    15    21    1
    24    16    18    1
    25     1    23    1
    26     2    24    1
    27     3    25    1
    28     4    26    1
    29     5    27    1
    30     6    28    1
    31     7    29    1
    32     8    30    1
    33    16    31    1
    34    16    32    1
    35    16    33    1
    36    17    34    1
    37    17    35    1
    38    21    36    1
