@<TRIPOS>MOLECULE
AK-968/13033657
 49 51 0 0 0
SMALL
USER_CHARGES

@<TRIPOS>ATOM
      1 C           0.5414    0.8905   -2.1192 C.ar    1  LIG1       -0.1036
      2 C           1.6376    5.2752    6.0665 C.ar    1  LIG1       -0.1048
      3 C          -0.4064    1.1923   -1.1414 C.ar    1  LIG1       -0.0998
      4 C           1.8495    1.3573   -1.9904 C.ar    1  LIG1       -0.1038
      5 C           0.5458    4.8799    5.2937 C.ar    1  LIG1       -0.1001
      6 C           2.9027    4.7478    5.8078 C.ar    1  LIG1       -0.1070
      7 C          -0.0461    1.9610   -0.0346 C.ar    1  LIG1       -0.0939
      8 C           2.2097    2.1261   -0.8836 C.ar    1  LIG1       -0.1001
      9 C           0.7191    3.9571    4.2621 C.ar    1  LIG1       -0.0901
     10 C           3.0760    3.8251    4.7762 C.ar    1  LIG1       -0.0982
     11 C           1.2619    2.4279    0.0943 C.ar    1  LIG1       -0.0706
     12 C           1.9842    3.4297    4.0034 C.ar    1  LIG1       -0.0608
     13 C           2.7553    4.2357    0.9682 C.2     1  LIG1        0.1162
     14 C           2.0850    7.0626   -2.2875 C.3     1  LIG1       -0.0613
     15 C           1.1970    5.2573   -0.7414 C.3     1  LIG1       -0.0196
     16 C           3.5054    6.1584   -0.3908 C.3     1  LIG1       -0.0223
     17 C           0.9495    6.6459   -1.3377 C.3     1  LIG1       -0.0525
     18 C           3.4527    6.4831   -1.8853 C.3     1  LIG1       -0.0545
     19 C          -0.4037    6.7128   -2.0415 C.3     1  LIG1       -0.0651
     20 C           4.5868    7.4216   -2.2895 C.3     1  LIG1       -0.0646
     21 C           1.6514    3.2577    1.2881 C.3     1  LIG1        0.1165
     22 N           2.4760    5.1814   -0.0205 N.am    1  LIG1       -0.3535
     23 O           3.8254    4.1658    1.5773 O.2     1  LIG1       -0.4700
     24 S           2.2034    2.2603    2.6971 S.3     1  LIG1       -0.1450
     25 H           0.2610    0.2908   -2.9803 H       1  LIG1        0.1195
     26 H           1.5020    5.9937    6.8696 H       1  LIG1        0.1155
     27 H          -1.4247    0.8279   -1.2411 H       1  LIG1        0.1205
     28 H           2.5879    1.1217   -2.7509 H       1  LIG1        0.1190
     29 H          -0.4396    5.2900    5.4951 H       1  LIG1        0.1235
     30 H           3.7523    5.0563    6.4099 H       1  LIG1        0.1185
     31 H          -0.7913    2.1913    0.7222 H       1  LIG1        0.1302
     32 H           3.2313    2.4857   -0.7917 H       1  LIG1        0.1182
     33 H          -0.1439    3.6609    3.6708 H       1  LIG1        0.1250
     34 H           4.0697    3.4248    4.5899 H       1  LIG1        0.1165
     35 H           1.8421    6.7662   -3.3177 H       1  LIG1        0.0492
     36 H           2.1474    8.1612   -2.2921 H       1  LIG1        0.0470
     37 H           0.4115    5.0208   -0.0072 H       1  LIG1        0.1185
     38 H           1.1229    4.4928   -1.5232 H       1  LIG1        0.1002
     39 H           4.5016    5.7859   -0.1221 H       1  LIG1        0.1021
     40 H           3.3268    7.0588    0.2135 H       1  LIG1        0.1058
     41 H           0.9152    7.3739   -0.5147 H       1  LIG1        0.0662
     42 H           3.5995    5.5358   -2.4468 H       1  LIG1        0.0614
     43 H          -0.4204    6.0068   -2.8685 H       1  LIG1        0.0335
     44 H          -0.5674    7.7177   -2.4231 H       1  LIG1        0.0335
     45 H          -1.1939    6.4616   -1.3379 H       1  LIG1        0.0331
     46 H           4.4869    8.3694   -1.7630 H       1  LIG1        0.0350
     47 H           4.5503    7.6040   -3.3622 H       1  LIG1        0.0340
     48 H           5.5457    6.9722   -2.0364 H       1  LIG1        0.0374
     49 H           0.8057    3.8642    1.6215 H       1  LIG1        0.1453
@<TRIPOS>BOND
     1     1     3   ar
     2     1     4   ar
     3     2     5   ar
     4     2     6   ar
     5     3     7   ar
     6     4     8   ar
     7     5     9   ar
     8     6    10   ar
     9     7    11   ar
    10     8    11   ar
    11     9    12   ar
    12    10    12   ar
    13    11    21    1
    14    12    24    1
    15    13    21    1
    16    13    22   am
    17    13    23    2
    18    14    17    1
    19    14    18    1
    20    15    17    1
    21    15    22    1
    22    16    18    1
    23    16    22    1
    24    17    19    1
    25    18    20    1
    26    21    24    1
    27     1    25    1
    28     2    26    1
    29     3    27    1
    30     4    28    1
    31     5    29    1
    32     6    30    1
    33     7    31    1
    34     8    32    1
    35     9    33    1
    36    10    34    1
    37    14    35    1
    38    14    36    1
    39    15    37    1
    40    15    38    1
    41    16    39    1
    42    16    40    1
    43    17    41    1
    44    18    42    1
    45    19    43    1
    46    19    44    1
    47    19    45    1
    48    20    46    1
    49    20    47    1
    50    20    48    1
    51    21    49    1
