@<TRIPOS>MOLECULE
AG-205/01784004
 48 50 0 0 0
SMALL
USER_CHARGES

@<TRIPOS>ATOM
      1 C           1.0335    3.8773    6.0365 C.ar    1  LIG1       -0.1139
      2 C           0.1725    1.2636   -1.9453 C.ar    1  LIG1       -0.1077
      3 C           0.5775    5.0151    5.3709 C.ar    1  LIG1       -0.1106
      4 C           2.1243    3.1666    5.5359 C.ar    1  LIG1       -0.1109
      5 C          -0.6237    1.9231   -1.0089 C.ar    1  LIG1       -0.1064
      6 C           1.5542    1.2001   -1.7647 C.ar    1  LIG1       -0.1067
      7 C           1.2122    5.4420    4.2045 C.ar    1  LIG1       -0.1041
      8 C           2.7590    3.5935    4.3695 C.ar    1  LIG1       -0.1046
      9 C          -0.0381    2.5192    0.1080 C.ar    1  LIG1       -0.1044
     10 C           2.1397    1.7962   -0.6478 C.ar    1  LIG1       -0.1058
     11 C           2.3029    4.7313    3.7038 C.ar    1  LIG1       -0.1106
     12 C           1.3436    2.4556    0.2886 C.ar    1  LIG1       -0.1102
     13 C           1.0823    5.3016    0.8369 C.2     1  LIG1        0.0784
     14 C           3.3868    4.6027    0.0725 C.2     1  LIG1        0.0769
     15 C           0.9373    5.7097   -0.6102 C.3     1  LIG1        0.0253
     16 C           3.4913    5.8831   -0.7381 C.3     1  LIG1        0.0253
     17 C           2.3591    4.5541    1.2046 C.3     1  LIG1        0.1033
     18 C           2.1372    6.5633   -1.0563 C.3     1  LIG1       -0.0486
     19 C           2.0791    7.9434   -0.3688 C.3     1  LIG1       -0.0642
     20 C           2.0249    6.7911   -2.5768 C.3     1  LIG1       -0.0663
     21 C           2.9867    5.1904    2.4477 C.3     1  LIG1       -0.0060
     22 C           1.9740    3.0968    1.4896 C.3     1  LIG1       -0.0040
     23 O           0.1876    5.5199    1.6535 O.2     1  LIG1       -0.4499
     24 O           4.1832    3.6820   -0.1236 O.2     1  LIG1       -0.4530
     25 H           0.5399    3.5457    6.9455 H       1  LIG1        0.1090
     26 H          -0.2837    0.7984   -2.8142 H       1  LIG1        0.1146
     27 H          -0.2712    5.5693    5.7613 H       1  LIG1        0.1077
     28 H           2.4803    2.2813    6.0545 H       1  LIG1        0.1078
     29 H          -1.6996    1.9717   -1.1488 H       1  LIG1        0.1158
     30 H           2.1743    0.6858   -2.4930 H       1  LIG1        0.1157
     31 H           0.8499    6.3296    3.6924 H       1  LIG1        0.1305
     32 H           3.6080    3.0334    3.9866 H       1  LIG1        0.1298
     33 H          -0.6663    3.0310    0.8322 H       1  LIG1        0.1179
     34 H           3.2170    1.7417   -0.5155 H       1  LIG1        0.1125
     35 H           0.8657    4.8090   -1.2207 H       1  LIG1        0.0852
     36 H           0.0030    6.2628   -0.7079 H       1  LIG1        0.0893
     37 H           4.1516    6.5720   -0.1782 H       1  LIG1        0.0868
     38 H           4.0239    5.6511   -1.6800 H       1  LIG1        0.0901
     39 H           2.9282    8.5371   -0.6894 H       1  LIG1        0.0423
     40 H           2.1120    7.8073    0.7065 H       1  LIG1        0.0424
     41 H           1.1571    8.4417   -0.6476 H       1  LIG1        0.0405
     42 H           2.8641    7.3919   -2.9090 H       1  LIG1        0.0332
     43 H           1.0959    7.3072   -2.7911 H       1  LIG1        0.0401
     44 H           2.0374    5.8317   -3.0817 H       1  LIG1        0.0400
     45 H           2.9282    6.2784    2.3623 H       1  LIG1        0.0781
     46 H           4.0494    4.9375    2.4826 H       1  LIG1        0.0831
     47 H           1.2886    3.0710    2.3386 H       1  LIG1        0.0817
     48 H           2.8676    2.5464    1.7897 H       1  LIG1        0.0848
@<TRIPOS>BOND
     1     1     3   ar
     2     1     4   ar
     3     2     5   ar
     4     2     6   ar
     5     3     7   ar
     6     4     8   ar
     7     5     9   ar
     8     6    10   ar
     9     7    11   ar
    10     8    11   ar
    11     9    12   ar
    12    10    12   ar
    13    11    21    1
    14    12    22    1
    15    13    15    1
    16    13    17    1
    17    13    23    2
    18    14    16    1
    19    14    17    1
    20    14    24    2
    21    15    18    1
    22    16    18    1
    23    17    21    1
    24    17    22    1
    25    18    19    1
    26    18    20    1
    27     1    25    1
    28     2    26    1
    29     3    27    1
    30     4    28    1
    31     5    29    1
    32     6    30    1
    33     7    31    1
    34     8    32    1
    35     9    33    1
    36    10    34    1
    37    15    35    1
    38    15    36    1
    39    16    37    1
    40    16    38    1
    41    19    39    1
    42    19    40    1
    43    19    41    1
    44    20    42    1
    45    20    43    1
    46    20    44    1
    47    21    45    1
    48    21    46    1
    49    22    47    1
    50    22    48    1
