@<TRIPOS>MOLECULE
AO-080/41808589
 45 47 0 0 0
SMALL
USER_CHARGES

@<TRIPOS>ATOM
      1 C           0.9762    0.4416   -1.9204 C.ar    1  LIG1       -0.1054
      2 C           2.8084    7.4088   -2.0686 C.ar    1  LIG1       -0.1076
      3 C           2.0592    1.3190   -1.9725 C.ar    1  LIG1       -0.1045
      4 C          -0.1842    0.8055   -1.2372 C.ar    1  LIG1       -0.1023
      5 C           1.4969    7.0858   -2.4166 C.ar    1  LIG1       -0.1057
      6 C           3.4485    6.7150   -1.0416 C.ar    1  LIG1       -0.1039
      7 C           1.9818    2.5606   -1.3414 C.ar    1  LIG1       -0.0956
      8 C          -0.2615    2.0470   -0.6060 C.ar    1  LIG1       -0.0917
      9 C           0.8253    6.0691   -1.7376 C.ar    1  LIG1       -0.0952
     10 C           2.7770    5.6984   -0.3625 C.ar    1  LIG1       -0.0924
     11 C           0.5424    4.9874    4.9058 C.ar    1  LIG1       -0.0301
     12 C           2.6097    4.2965    3.8637 C.ar    1  LIG1       -0.0216
     13 C           2.4322    4.3562    6.2724 C.ar    1  LIG1       -0.0376
     14 C           1.2907    4.7372    3.7555 C.ar    1  LIG1        0.0492
     15 C           0.8215    2.9246   -0.6582 C.ar    1  LIG1       -0.0741
     16 C           1.4654    5.3754   -0.7105 C.ar    1  LIG1       -0.0732
     17 C           1.1132    4.7969    6.1643 C.ar    1  LIG1        0.0481
     18 C           3.1804    4.1060    5.1221 C.ar    1  LIG1        0.0530
     19 C           0.6954    4.9374    2.4438 C.2     1  LIG1        0.1173
     20 C           0.7368    4.2718    0.0272 C.3     1  LIG1        0.0150
     21 C           0.3130    5.0645    7.3942 C.3     1  LIG1        0.3548
     22 C           4.5912    3.6359    5.2372 C.3     1  LIG1        0.3563
     23 N           1.2066    4.1706    1.3903 N.am    1  LIG1       -0.3250
     24 O          -0.2121    5.7726    2.2831 O.2     1  LIG1       -0.4668
     25 F          -0.9595    5.4896    7.1376 F       1  LIG1       -0.1855
     26 F           0.1675    3.9714    8.2002 F       1  LIG1       -0.1867
     27 F           0.8693    6.0296    8.1828 F       1  LIG1       -0.1858
     28 F           5.2008    3.4332    4.0317 F       1  LIG1       -0.1851
     29 F           5.4046    4.5062    5.9055 F       1  LIG1       -0.1856
     30 F           4.6967    2.4501    5.9047 F       1  LIG1       -0.1855
     31 H           1.0361   -0.5246   -2.4130 H       1  LIG1        0.1175
     32 H           3.3316    8.1995   -2.5984 H       1  LIG1        0.1150
     33 H           2.9624    1.0363   -2.5053 H       1  LIG1        0.1183
     34 H          -1.0279    0.1230   -1.1973 H       1  LIG1        0.1196
     35 H           0.9987    7.6251   -3.2170 H       1  LIG1        0.1145
     36 H           4.4700    6.9655   -0.7711 H       1  LIG1        0.1169
     37 H           2.8306    3.2378   -1.3870 H       1  LIG1        0.1137
     38 H          -1.1696    2.3220   -0.0761 H       1  LIG1        0.1230
     39 H          -0.1965    5.8245   -2.0154 H       1  LIG1        0.1139
     40 H           3.2836    5.1633    0.4363 H       1  LIG1        0.1214
     41 H          -0.4860    5.3320    4.8237 H       1  LIG1        0.1636
     42 H           3.1947    4.1008    2.9677 H       1  LIG1        0.1839
     43 H           2.8770    4.2071    7.2536 H       1  LIG1        0.1705
     44 H          -0.3174    4.5630    0.1213 H       1  LIG1        0.1586
     45 H           1.9901    3.5494    1.5635 H       1  LIG1        0.3030
@<TRIPOS>BOND
     1     1     3   ar
     2     1     4   ar
     3     2     5   ar
     4     2     6   ar
     5     3     7   ar
     6     4     8   ar
     7     5     9   ar
     8     6    10   ar
     9     7    15   ar
    10     8    15   ar
    11     9    16   ar
    12    10    16   ar
    13    11    14   ar
    14    11    17   ar
    15    12    14   ar
    16    12    18   ar
    17    13    17   ar
    18    13    18   ar
    19    14    19    1
    20    15    20    1
    21    16    20    1
    22    17    21    1
    23    18    22    1
    24    19    23   am
    25    19    24    2
    26    20    23    1
    27    21    25    1
    28    21    26    1
    29    21    27    1
    30    22    28    1
    31    22    29    1
    32    22    30    1
    33     1    31    1
    34     2    32    1
    35     3    33    1
    36     4    34    1
    37     5    35    1
    38     6    36    1
    39     7    37    1
    40     8    38    1
    41     9    39    1
    42    10    40    1
    43    11    41    1
    44    12    42    1
    45    13    43    1
    46    20    44    1
    47    23    45    1
