@<TRIPOS>MOLECULE
AN-329/36632007
 40 42 0 0 0
SMALL
USER_CHARGES

@<TRIPOS>ATOM
      1 C           2.1623    4.0806    6.2233 C.ar    1  LIG1       -0.1058
      2 C           1.9298    6.4232   -2.5364 C.ar    1  LIG1       -0.1000
      3 C           1.1676    5.0364    6.0175 C.ar    1  LIG1       -0.1031
      4 C           2.8375    3.5308    5.1335 C.ar    1  LIG1       -0.1035
      5 C           1.1553    7.0142   -1.5382 C.ar    1  LIG1       -0.1015
      6 C           2.8480    5.4258   -2.2081 C.ar    1  LIG1       -0.0787
      7 C           0.8480    5.4426    4.7219 C.ar    1  LIG1       -0.0953
      8 C           2.5179    3.9370    3.8379 C.ar    1  LIG1       -0.0959
      9 C           1.9626    2.1420   -2.2007 C.ar    1  LIG1       -0.0679
     10 C           1.3590    2.3021    0.1331 C.ar    1  LIG1       -0.0661
     11 C           1.2990    6.6080   -0.2115 C.ar    1  LIG1       -0.0658
     12 C           0.6440    1.8183   -2.5197 C.ar    1  LIG1       -0.0652
     13 C           0.0401    1.9785   -0.1859 C.ar    1  LIG1       -0.0650
     14 C           2.9918    5.0196   -0.8814 C.ar    1  LIG1       -0.0009
     15 C           1.5232    4.8928    3.6321 C.ar    1  LIG1       -0.0753
     16 C           2.3202    2.3838   -0.8743 C.ar    1  LIG1       -0.0475
     17 C          -0.3174    1.7366   -1.5123 C.ar    1  LIG1       -0.0423
     18 C           2.2173    5.6107    0.1169 C.ar    1  LIG1        0.0080
     19 C           3.9563    3.9768   -0.5603 C.2     1  LIG1       -0.0002
     20 C           1.1796    5.3291    2.2381 C.3     1  LIG1        0.0451
     21 N           3.6488    2.7097   -0.5529 N.2     1  LIG1       -0.3869
     22 O          -1.6042    1.4209   -1.8235 O.3     1  LIG1       -0.4419
     23 O           2.3418    5.2259    1.4185 O.3     1  LIG1       -0.3962
     24 H           2.4120    3.7654    7.2323 H       1  LIG1        0.1188
     25 H           1.8176    6.7398   -3.5695 H       1  LIG1        0.1116
     26 H           0.6426    5.4654    6.8660 H       1  LIG1        0.1175
     27 H           3.6128    2.7874    5.2935 H       1  LIG1        0.1172
     28 H           0.4410    7.7910   -1.7945 H       1  LIG1        0.1304
     29 H           3.4460    4.9721   -2.9943 H       1  LIG1        0.1415
     30 H           0.0714    6.1878    4.5710 H       1  LIG1        0.1234
     31 H           3.0492    3.5031    2.9949 H       1  LIG1        0.1220
     32 H           2.7049    2.2035   -2.9923 H       1  LIG1        0.1243
     33 H           1.6282    2.4888    1.1694 H       1  LIG1        0.1320
     34 H           0.6924    7.0723    0.5611 H       1  LIG1        0.1130
     35 H           0.3715    1.6311   -3.5548 H       1  LIG1        0.1293
     36 H          -0.7042    1.9162    0.6034 H       1  LIG1        0.1299
     37 H           4.9942    4.2966   -0.3123 H       1  LIG1        0.2456
     38 H           0.3875    4.7018    1.8153 H       1  LIG1        0.1207
     39 H           0.8269    6.3661    2.2323 H       1  LIG1        0.1217
     40 H          -2.1497    1.4032   -1.0210 H       1  LIG1        0.3532
@<TRIPOS>BOND
     1     1     3   ar
     2     1     4   ar
     3     2     5   ar
     4     2     6   ar
     5     3     7   ar
     6     4     8   ar
     7     5    11   ar
     8     6    14   ar
     9     7    15   ar
    10     8    15   ar
    11     9    12   ar
    12     9    16   ar
    13    10    13   ar
    14    10    16   ar
    15    11    18   ar
    16    12    17   ar
    17    13    17   ar
    18    14    18   ar
    19    14    19    1
    20    15    20    1
    21    16    21    1
    22    17    22    1
    23    18    23    1
    24    19    21    2
    25    20    23    1
    26     1    24    1
    27     2    25    1
    28     3    26    1
    29     4    27    1
    30     5    28    1
    31     6    29    1
    32     7    30    1
    33     8    31    1
    34     9    32    1
    35    10    33    1
    36    11    34    1
    37    12    35    1
    38    13    36    1
    39    19    37    1
    40    20    38    1
    41    20    39    1
    42    22    40    1
