@<TRIPOS>MOLECULE
AG-690/11739129
 38 40 0 0 0
SMALL
USER_CHARGES

@<TRIPOS>ATOM
      1 C           3.0483    4.1506    4.2292 C.ar    1  LIG1       -0.0648
      2 C           0.8672    5.1888    4.2774 C.ar    1  LIG1       -0.0643
      3 C           2.8958    3.7683    5.5619 C.ar    1  LIG1       -0.0714
      4 C           0.7147    4.8065    5.6102 C.ar    1  LIG1       -0.0678
      5 C           1.0491    6.1620   -1.1922 C.ar    1  LIG1       -0.0529
      6 C           3.4350    6.0910   -1.4875 C.ar    1  LIG1       -0.0563
      7 C           1.0453    7.3278   -1.9408 C.ar    1  LIG1       -0.0363
      8 C           3.3243    7.2599   -2.2232 C.ar    1  LIG1       -0.0375
      9 C           2.0341    4.8609    3.5870 C.ar    1  LIG1        0.0344
     10 C           2.2709    5.5380   -0.9657 C.ar    1  LIG1       -0.0384
     11 C           1.7291    4.0962    6.2524 C.ar    1  LIG1       -0.0969
     12 C           0.6757    2.7248    0.3901 C.2     1  LIG1        0.1444
     13 C           2.1954    5.2654    2.1767 C.2     1  LIG1        0.1606
     14 C           1.5044    3.1402   -0.7881 C.3     1  LIG1        0.0814
     15 C           2.3337    4.2564   -0.1502 C.3     1  LIG1        0.0858
     16 C          -0.2710    1.5756    0.2935 C.3     1  LIG1        0.4012
     17 N           2.1554    7.8949   -2.4641 N.ar    1  LIG1       -0.3993
     18 N           0.8160    3.4294    1.4671 N.2     1  LIG1       -0.2729
     19 N           1.7547    4.3851    1.1978 N.am    1  LIG1       -0.2182
     20 N           1.5749    3.7097    7.6000 N.pl3   1  LIG1       -0.4158
     21 O           2.7142    6.3585    1.9572 O.2     1  LIG1       -0.4492
     22 O           3.6751    3.7950    0.0065 O.3     1  LIG1       -0.4359
     23 F          -0.2472    1.0264   -0.9401 F       1  LIG1       -0.1605
     24 F           0.0443    0.6059    1.1791 F       1  LIG1       -0.1605
     25 F          -1.5406    1.9616    0.5450 F       1  LIG1       -0.1602
     26 H           3.9616    3.8899    3.7007 H       1  LIG1        0.1650
     27 H           0.0706    5.7420    3.7867 H       1  LIG1        0.1492
     28 H           3.6925    3.2151    6.0527 H       1  LIG1        0.1129
     29 H          -0.1985    5.0672    6.1389 H       1  LIG1        0.1145
     30 H           0.1233    5.7565   -0.7981 H       1  LIG1        0.1384
     31 H           4.4025    5.6276   -1.3283 H       1  LIG1        0.1251
     32 H           0.1182    7.8538   -2.1449 H       1  LIG1        0.2049
     33 H           4.2027    7.7312   -2.6517 H       1  LIG1        0.2032
     34 H           2.1045    2.2972   -1.1423 H       1  LIG1        0.1312
     35 H           0.8300    3.4827   -1.5797 H       1  LIG1        0.1361
     36 H           2.2886    3.1604    8.0347 H       1  LIG1        0.2567
     37 H           0.7148    3.9095    8.0693 H       1  LIG1        0.2571
     38 H           4.1633    4.4989    0.4644 H       1  LIG1        0.3568
@<TRIPOS>BOND
     1     1     3   ar
     2     1     9   ar
     3     2     4   ar
     4     2     9   ar
     5     3    11   ar
     6     4    11   ar
     7     5     7   ar
     8     5    10   ar
     9     6     8   ar
    10     6    10   ar
    11     7    17   ar
    12     8    17   ar
    13     9    13    1
    14    10    15    1
    15    11    20    1
    16    12    14    1
    17    12    16    1
    18    12    18    2
    19    13    19   am
    20    13    21    2
    21    14    15    1
    22    15    19    1
    23    15    22    1
    24    16    23    1
    25    16    24    1
    26    16    25    1
    27    18    19    1
    28     1    26    1
    29     2    27    1
    30     3    28    1
    31     4    29    1
    32     5    30    1
    33     6    31    1
    34     7    32    1
    35     8    33    1
    36    14    34    1
    37    14    35    1
    38    20    36    1
    39    20    37    1
    40    22    38    1
