@<TRIPOS>MOLECULE
AN-651/43278378
 45 48 0 0 0
SMALL
USER_CHARGES

@<TRIPOS>ATOM
      1 C          -1.2049    6.4532   -2.7207 C.ar    1  LIG1       -0.1062
      2 C          -0.1647    0.6617   -1.6319 C.ar    1  LIG1       -0.0993
      3 C           1.0565    4.4565    6.5058 C.ar    1  LIG1       -0.1055
      4 C          -0.3659    5.5537   -3.3784 C.ar    1  LIG1       -0.1018
      5 C          -0.8831    6.8969   -1.4380 C.ar    1  LIG1       -0.1020
      6 C          -0.5697    1.6790   -0.7677 C.ar    1  LIG1       -0.0930
      7 C           1.1329    0.6566   -2.1435 C.ar    1  LIG1       -0.0957
      8 C           2.4204    4.2408    6.3092 C.ar    1  LIG1       -0.1026
      9 C           0.2043    4.5785    5.4083 C.ar    1  LIG1       -0.1031
     10 C           0.7949    5.0980   -2.7534 C.ar    1  LIG1       -0.0903
     11 C           0.2776    6.4413   -0.8130 C.ar    1  LIG1       -0.0905
     12 C           0.3230    2.6912   -0.4151 C.ar    1  LIG1       -0.0732
     13 C           2.0256    1.6688   -1.7910 C.ar    1  LIG1       -0.0765
     14 C           2.9323    4.1472    5.0150 C.ar    1  LIG1       -0.0944
     15 C           0.7162    4.4847    4.1141 C.ar    1  LIG1       -0.0952
     16 C           1.1167    5.5417   -1.4708 C.ar    1  LIG1       -0.0656
     17 C           1.6206    2.6862   -0.9269 C.ar    1  LIG1       -0.0218
     18 C           2.0801    4.2691    3.9174 C.ar    1  LIG1       -0.0861
     19 C           2.3446    5.0599   -0.8091 C.2     1  LIG1        0.0746
     20 C           2.5630    3.7542   -0.5552 C.2     1  LIG1        0.0560
     21 C           3.4070    6.0377   -0.4723 C.2     1  LIG1        0.1995
     22 C           2.6200    4.1703    2.5510 C.2     1  LIG1       -0.0764
     23 C           3.9066    4.3448    2.2121 C.2     1  LIG1       -0.0365
     24 C           4.4094    4.2438    0.8062 C.3     1  LIG1        0.1386
     25 O           3.3407    7.2142   -0.8117 O.2     1  LIG1       -0.4079
     26 O           3.6746    3.2607    0.0845 O.2     1  LIG1       -0.3457
     27 O           4.4679    5.5516    0.2133 O.3     1  LIG1       -0.3043
     28 H          -2.1080    6.8089   -3.2077 H       1  LIG1        0.1155
     29 H          -0.8593   -0.1271   -1.9053 H       1  LIG1        0.1255
     30 H           0.6577    4.5281    7.5134 H       1  LIG1        0.1189
     31 H          -0.6156    5.2089   -4.3776 H       1  LIG1        0.1166
     32 H          -1.5357    7.5982   -0.9262 H       1  LIG1        0.1174
     33 H          -1.5798    1.6824   -0.3682 H       1  LIG1        0.1236
     34 H           1.4487   -0.1360   -2.8154 H       1  LIG1        0.1221
     35 H           3.0840    4.1447    7.1637 H       1  LIG1        0.1182
     36 H          -0.8579    4.7452    5.5611 H       1  LIG1        0.1182
     37 H           1.4390    4.3968   -3.2789 H       1  LIG1        0.1200
     38 H           0.5149    6.7965    0.1870 H       1  LIG1        0.1213
     39 H          -0.0074    3.4774    0.2595 H       1  LIG1        0.1369
     40 H           3.0337    1.6510   -2.1981 H       1  LIG1        0.1322
     41 H           3.9979    3.9789    4.8778 H       1  LIG1        0.1253
     42 H           0.0391    4.5819    3.2686 H       1  LIG1        0.1243
     43 H           1.8922    3.9561    1.7713 H       1  LIG1        0.1384
     44 H           4.6535    4.5835    2.9640 H       1  LIG1        0.1349
     45 H           5.4809    3.8791    0.8779 H       1  LIG1        0.1956
@<TRIPOS>BOND
     1     1     4   ar
     2     1     5   ar
     3     2     6   ar
     4     2     7   ar
     5     3     8   ar
     6     3     9   ar
     7     4    10   ar
     8     5    11   ar
     9     6    12   ar
    10     7    13   ar
    11     8    14   ar
    12     9    15   ar
    13    10    16   ar
    14    11    16   ar
    15    12    17   ar
    16    13    17   ar
    17    14    18   ar
    18    15    18   ar
    19    16    19    1
    20    17    20    1
    21    18    22    1
    22    19    20    2
    23    19    21    1
    24    20    26    1
    25    21    25    2
    26    21    27    1
    27    22    23    2
    28    23    24    1
    29    24    26    1
    30    24    27    1
    31     1    28    1
    32     2    29    1
    33     3    30    1
    34     4    31    1
    35     5    32    1
    36     6    33    1
    37     7    34    1
    38     8    35    1
    39     9    36    1
    40    10    37    1
    41    11    38    1
    42    12    39    1
    43    13    40    1
    44    14    41    1
    45    15    42    1
    46    22    43    1
    47    23    44    1
    48    24    45    1
