@<TRIPOS>MOLECULE
AO-548/43196433
 35 36 0 0 0
SMALL
USER_CHARGES

@<TRIPOS>ATOM
      1 C           1.2324    4.8179    6.4034 C.ar    1  LIG1       -0.1063
      2 C           2.3854    7.5039   -1.2809 C.ar    1  LIG1       -0.0935
      3 C           2.4963    4.2281    6.4225 C.ar    1  LIG1       -0.1036
      4 C           0.5770    5.0236    5.1893 C.ar    1  LIG1       -0.1037
      5 C           1.6590    7.0658   -2.3880 C.ar    1  LIG1       -0.0979
      6 C           2.8774    6.5797   -0.3591 C.ar    1  LIG1       -0.0569
      7 C           3.1048    3.8442    5.2276 C.ar    1  LIG1       -0.0953
      8 C           1.1857    4.6397    3.9944 C.ar    1  LIG1       -0.0953
      9 C           1.4243    5.7033   -2.5735 C.ar    1  LIG1       -0.0586
     10 C           2.6428    5.2172   -0.5446 C.ar    1  LIG1        0.0806
     11 C           2.4495    4.0499    4.0135 C.ar    1  LIG1       -0.0745
     12 C           1.9162    4.7790   -1.6518 C.ar    1  LIG1        0.0297
     13 C           3.1652    4.2692    0.4296 C.2     1  LIG1        0.1883
     14 C           0.2133    1.6117   -1.4060 C.3     1  LIG1       -0.0330
     15 C           3.1037    3.6373    2.7277 C.3     1  LIG1        0.0538
     16 C           0.3144    3.0390   -1.9005 C.3     1  LIG1        0.0220
     17 O           3.9644    3.3633    0.1633 O.2     1  LIG1       -0.4423
     18 O           1.6783    3.4519   -1.8515 O.3     1  LIG1       -0.3985
     19 O           2.6622    4.5061    1.6790 O.3     1  LIG1       -0.3398
     20 H           0.7581    5.1156    7.3340 H       1  LIG1        0.1182
     21 H           2.5679    8.5650   -1.1366 H       1  LIG1        0.1160
     22 H           3.0063    4.0669    7.3678 H       1  LIG1        0.1171
     23 H          -0.4074    5.4817    5.1742 H       1  LIG1        0.1170
     24 H           1.2758    7.7859   -3.1049 H       1  LIG1        0.1367
     25 H           3.4425    6.9326    0.4997 H       1  LIG1        0.1545
     26 H           4.0899    3.3855    5.2521 H       1  LIG1        0.1228
     27 H           0.6675    4.8040    3.0533 H       1  LIG1        0.1228
     28 H           0.8579    5.3687   -3.4383 H       1  LIG1        0.1168
     29 H           0.8043    0.9386   -2.0333 H       1  LIG1        0.0493
     30 H           0.5680    1.5350   -0.3729 H       1  LIG1        0.0493
     31 H          -0.8286    1.2748   -1.4105 H       1  LIG1        0.0576
     32 H           4.1946    3.6978    2.8061 H       1  LIG1        0.1264
     33 H           2.8414    2.6048    2.4732 H       1  LIG1        0.1264
     34 H          -0.2789    3.7068   -1.2689 H       1  LIG1        0.0971
     35 H          -0.0397    3.1136   -2.9330 H       1  LIG1        0.0971
@<TRIPOS>BOND
     1     1     3   ar
     2     1     4   ar
     3     2     5   ar
     4     2     6   ar
     5     3     7   ar
     6     4     8   ar
     7     5     9   ar
     8     6    10   ar
     9     7    11   ar
    10     8    11   ar
    11     9    12   ar
    12    10    12   ar
    13    10    13    1
    14    11    15    1
    15    12    18    1
    16    13    17    2
    17    13    19    1
    18    14    16    1
    19    15    19    1
    20    16    18    1
    21     1    20    1
    22     2    21    1
    23     3    22    1
    24     4    23    1
    25     5    24    1
    26     6    25    1
    27     7    26    1
    28     8    27    1
    29     9    28    1
    30    14    29    1
    31    14    30    1
    32    14    31    1
    33    15    32    1
    34    15    33    1
    35    16    34    1
    36    16    35    1
