@<TRIPOS>MOLECULE
AN-655/41148542
 46 50 0 0 0
SMALL
USER_CHARGES

@<TRIPOS>ATOM
      1 C           0.8705    4.7177    5.3617 C.ar    1  LIG1       -0.1034
      2 C           2.0813    0.9667   -1.4949 C.ar    1  LIG1       -0.1034
      3 C           2.0616    4.3373    5.9769 C.ar    1  LIG1       -0.1006
      4 C           0.9144    0.2509   -1.7555 C.ar    1  LIG1       -0.1006
      5 C           0.7990    4.8711    3.9724 C.ar    1  LIG1       -0.0911
      6 C           2.0322    2.2034   -0.8414 C.ar    1  LIG1       -0.0911
      7 C           3.2163    4.0985    5.2263 C.ar    1  LIG1       -0.0751
      8 C          -0.3355    0.7460   -1.3727 C.ar    1  LIG1       -0.0751
      9 C           2.8253    5.6214   -1.4039 C.ar    1  LIG1       -0.0735
     10 C           2.9183    6.7898   -2.1973 C.ar    1  LIG1       -0.0710
     11 C           3.5568    4.3543    1.6297 C.ar    1  LIG1       -0.0535
     12 C          -1.0014    3.8713    0.3318 C.ar    1  LIG1       -0.0535
     13 C           1.9504    4.6359    3.1949 C.ar    1  LIG1       -0.0620
     14 C           0.7834    2.7227   -0.4460 C.ar    1  LIG1       -0.0620
     15 C           2.2347    4.6938    1.8017 C.ar    1  LIG1       -0.0524
     16 C           0.3691    3.9111    0.2180 C.ar    1  LIG1       -0.0524
     17 C           3.1300    4.2558    3.8384 C.ar    1  LIG1       -0.0549
     18 C          -0.3694    1.9834   -0.7202 C.ar    1  LIG1       -0.0549
     19 C           1.8741    5.8850   -0.4459 C.ar    1  LIG1        0.0212
     20 C           2.0171    7.6839   -1.6679 C.ar    1  LIG1        0.0647
     21 C           5.4632    3.7021    3.0934 C.3     1  LIG1       -0.0119
     22 C          -2.8263    2.3043   -0.3137 C.3     1  LIG1       -0.0120
     23 C           1.2886    5.0532    0.7259 C.3     1  LIG1        0.0395
     24 N           4.0884    4.0917    2.8638 N.ar    1  LIG1       -0.3803
     25 N          -1.4377    2.7047   -0.2368 N.ar    1  LIG1       -0.3803
     26 O           1.3764    7.1401   -0.6000 O.2     1  LIG1       -0.3598
     27 BR          1.7019    9.4335   -2.3252 Br      1  LIG1       -0.0190
     28 H          -0.0141    4.8982    5.9668 H       1  LIG1        0.1106
     29 H           3.0416    0.5612   -1.8026 H       1  LIG1        0.1106
     30 H           2.0951    4.2243    7.0576 H       1  LIG1        0.1199
     31 H           0.9754   -0.7077   -2.2646 H       1  LIG1        0.1199
     32 H          -0.1365    5.1684    3.5075 H       1  LIG1        0.1261
     33 H           2.9504    2.7496   -0.6455 H       1  LIG1        0.1260
     34 H           4.1408    3.8025    5.7105 H       1  LIG1        0.1180
     35 H          -1.2405    0.1842   -1.5781 H       1  LIG1        0.1180
     36 H           3.3833    4.7031   -1.5185 H       1  LIG1        0.1262
     37 H           3.5654    6.9505   -3.0483 H       1  LIG1        0.1368
     38 H           4.1619    4.2802    0.7356 H       1  LIG1        0.1912
     39 H          -1.7000    4.5742    0.7663 H       1  LIG1        0.1912
     40 H           6.0506    4.6114    3.2449 H       1  LIG1        0.0972
     41 H           5.5170    3.0605    3.9775 H       1  LIG1        0.1066
     42 H           5.8315    3.1477    2.2257 H       1  LIG1        0.1059
     43 H          -3.2376    2.6913   -1.2496 H       1  LIG1        0.0972
     44 H          -2.8925    1.2131   -0.2892 H       1  LIG1        0.1059
     45 H          -3.3687    2.7152    0.5425 H       1  LIG1        0.1066
     46 H           0.5518    5.7647    1.1708 H       1  LIG1        0.1548
@<TRIPOS>BOND
     1     1     3   ar
     2     1     5   ar
     3     2     4   ar
     4     2     6   ar
     5     3     7   ar
     6     4     8   ar
     7     5    13   ar
     8     6    14   ar
     9     7    17   ar
    10     8    18   ar
    11     9    10   ar
    12     9    19   ar
    13    10    20   ar
    14    11    15   ar
    15    11    24   ar
    16    12    16   ar
    17    12    25   ar
    18    13    15   ar
    19    13    17   ar
    20    14    16   ar
    21    14    18   ar
    22    15    23    1
    23    16    23    1
    24    17    24   ar
    25    18    25   ar
    26    19    23    1
    27    19    26   ar
    28    20    26   ar
    29    20    27    1
    30    21    24    1
    31    22    25    1
    32     1    28    1
    33     2    29    1
    34     3    30    1
    35     4    31    1
    36     5    32    1
    37     6    33    1
    38     7    34    1
    39     8    35    1
    40     9    36    1
    41    10    37    1
    42    11    38    1
    43    12    39    1
    44    21    40    1
    45    21    41    1
    46    21    42    1
    47    22    43    1
    48    22    44    1
    49    22    45    1
    50    23    46    1
