@<TRIPOS>MOLECULE
AM-879/14856417
 36 39 0 0 0
SMALL
USER_CHARGES

@<TRIPOS>ATOM
      1 C           2.0159    3.9453    6.2438 C.ar    1  LIG1       -0.0848
      2 C           0.8531    4.6622    5.8994 C.ar    1  LIG1       -0.0850
      3 C           1.7394    6.7205   -2.1468 C.ar    1  LIG1       -0.0908
      4 C           2.9931    3.6572    5.2869 C.ar    1  LIG1       -0.0677
      5 C           0.6429    5.1068    4.5910 C.ar    1  LIG1       -0.0682
      6 C           0.0200    2.9654   -0.9060 C.ar    1  LIG1       -0.0506
      7 C           2.3041    2.3067   -1.3376 C.ar    1  LIG1       -0.0466
      8 C          -0.3384    1.6255   -0.7576 C.ar    1  LIG1       -0.0685
      9 C           1.9457    0.9668   -1.1892 C.ar    1  LIG1       -0.0660
     10 C           2.6650    6.6328   -1.0779 C.ar    1  LIG1       -0.0849
     11 C           1.1570    5.4805   -2.2895 C.ar    1  LIG1       -0.0532
     12 C           2.7716    4.1025    3.9982 C.ar    1  LIG1        0.0203
     13 C           1.6172    4.8148    3.6564 C.ar    1  LIG1        0.0200
     14 C           1.3412    3.3060   -1.1960 C.ar    1  LIG1       -0.0220
     15 C           0.6245    0.6262   -0.8991 C.ar    1  LIG1       -0.0339
     16 C           2.6203    5.3416   -0.6002 C.ar    1  LIG1       -0.0308
     17 C           3.6383    3.9277    2.8231 C.2     1  LIG1        0.1219
     18 C           1.6308    5.1673    2.2287 C.2     1  LIG1        0.1243
     19 C           2.9067    4.6023    1.7208 C.2     1  LIG1        0.1040
     20 C           3.3321    4.6879    0.4614 C.2     1  LIG1       -0.0101
     21 N           1.7003    4.6502   -1.3444 N.ar    1  LIG1       -0.3413
     22 O           4.7068    3.3587    2.7792 O.2     1  LIG1       -0.4367
     23 O           0.7836    5.7807    1.6176 O.2     1  LIG1       -0.4303
     24 BR          0.1390   -1.1891   -0.6968 Br      1  LIG1       -0.1037
     25 H           2.1526    3.6119    7.2692 H       1  LIG1        0.1360
     26 H           0.1095    4.8717    6.6641 H       1  LIG1        0.1359
     27 H           1.5203    7.5921   -2.7475 H       1  LIG1        0.1207
     28 H           3.8861    3.1048    5.5560 H       1  LIG1        0.1434
     29 H          -0.2529    5.6585    4.3302 H       1  LIG1        0.1414
     30 H          -0.7408    3.7339   -0.7933 H       1  LIG1        0.1411
     31 H           3.3373    2.5585   -1.5637 H       1  LIG1        0.1491
     32 H          -1.3720    1.3765   -0.5313 H       1  LIG1        0.1448
     33 H           2.7083    0.2003   -1.3025 H       1  LIG1        0.1452
     34 H           3.2937    7.4283   -0.7014 H       1  LIG1        0.1350
     35 H           0.4052    5.1301   -2.9850 H       1  LIG1        0.1883
     36 H           4.2774    4.2036    0.2114 H       1  LIG1        0.2039
@<TRIPOS>BOND
     1     1     2   ar
     2     1     4   ar
     3     2     5   ar
     4     3    10   ar
     5     3    11   ar
     6     4    12   ar
     7     5    13   ar
     8     6     8   ar
     9     6    14   ar
    10     7     9   ar
    11     7    14   ar
    12     8    15   ar
    13     9    15   ar
    14    10    16   ar
    15    11    21   ar
    16    12    13   ar
    17    12    17    1
    18    13    18    1
    19    14    21    1
    20    15    24    1
    21    16    20    1
    22    16    21   ar
    23    17    19    1
    24    17    22    2
    25    18    19    1
    26    18    23    2
    27    19    20    2
    28     1    25    1
    29     2    26    1
    30     3    27    1
    31     4    28    1
    32     5    29    1
    33     6    30    1
    34     7    31    1
    35     8    32    1
    36     9    33    1
    37    10    34    1
    38    11    35    1
    39    20    36    1
