@<TRIPOS>MOLECULE
AN-329/11534361
 42 44 0 0 0
SMALL
USER_CHARGES

@<TRIPOS>ATOM
      1 C           0.3474    0.5964   -2.0383 C.ar    1  LIG1       -0.1058
      2 C           2.1770    7.5754   -2.4581 C.ar    1  LIG1       -0.1075
      3 C           1.6767    0.9488   -2.2712 C.ar    1  LIG1       -0.1046
      4 C          -0.4293    1.3480   -1.1564 C.ar    1  LIG1       -0.1037
      5 C           3.1447    6.5852   -2.6275 C.ar    1  LIG1       -0.1024
      6 C           1.1665    7.4083   -1.5112 C.ar    1  LIG1       -0.1059
      7 C           2.2295    2.0528   -1.6221 C.ar    1  LIG1       -0.0993
      8 C           0.1236    2.4520   -0.5074 C.ar    1  LIG1       -0.0973
      9 C           3.1019    5.4278   -1.8501 C.ar    1  LIG1       -0.0923
     10 C           1.1237    6.2510   -0.7337 C.ar    1  LIG1       -0.0967
     11 C           2.9610    4.3113    6.0308 C.ar    1  LIG1       -0.0879
     12 C           3.1789    4.1413    4.6636 C.ar    1  LIG1       -0.0659
     13 C           0.8519    4.6274    4.2323 C.ar    1  LIG1       -0.0353
     14 C           1.4529    2.8045   -0.7402 C.ar    1  LIG1       -0.0740
     15 C           2.0914    5.2607   -0.9031 C.ar    1  LIG1       -0.0681
     16 C           1.6886    4.6393    6.4988 C.ar    1  LIG1       -0.0871
     17 C           2.1243    4.2994    3.7644 C.ar    1  LIG1       -0.0457
     18 C           0.6340    4.7974    5.5995 C.ar    1  LIG1       -0.0056
     19 C           1.4173    4.2546    1.3452 C.2     1  LIG1        0.1111
     20 C           1.4968    4.8131    7.9710 C.3     1  LIG1       -0.0380
     21 C           2.0434    3.9848   -0.0457 C.3     1  LIG1        0.0881
     22 N           2.3454    4.1258    2.3774 N.am    1  LIG1       -0.3088
     23 O           0.2280    4.5381    1.4584 O.2     1  LIG1       -0.4660
     24 CL         -0.9539    5.2025    6.1420 Cl      1  LIG1       -0.1367
     25 H          -0.0833   -0.2624   -2.5448 H       1  LIG1        0.1170
     26 H           2.2112    8.4770   -3.0626 H       1  LIG1        0.1149
     27 H           2.2811    0.3644   -2.9586 H       1  LIG1        0.1174
     28 H          -1.4646    1.0746   -0.9757 H       1  LIG1        0.1184
     29 H           3.9321    6.7155   -3.3640 H       1  LIG1        0.1151
     30 H           0.4135    8.1795   -1.3781 H       1  LIG1        0.1149
     31 H           3.2662    2.3199   -1.8095 H       1  LIG1        0.1153
     32 H          -0.4891    3.0316    0.1781 H       1  LIG1        0.1217
     33 H           3.8599    4.6615   -1.9891 H       1  LIG1        0.1213
     34 H           0.3327    6.1294    0.0016 H       1  LIG1        0.1181
     35 H           3.7896    4.1856    6.7228 H       1  LIG1        0.1336
     36 H           4.1744    3.8851    4.3103 H       1  LIG1        0.1303
     37 H           0.0321    4.7492    3.5271 H       1  LIG1        0.1537
     38 H           1.6733    5.8565    8.2552 H       1  LIG1        0.0596
     39 H           0.4801    4.5346    8.2726 H       1  LIG1        0.0579
     40 H           2.1852    4.1740    8.5371 H       1  LIG1        0.0563
     41 H           3.1077    3.7610    0.1833 H       1  LIG1        0.1452
     42 H           3.3004    3.8868    2.1189 H       1  LIG1        0.3251
@<TRIPOS>BOND
     1     1     3   ar
     2     1     4   ar
     3     2     5   ar
     4     2     6   ar
     5     3     7   ar
     6     4     8   ar
     7     5     9   ar
     8     6    10   ar
     9     7    14   ar
    10     8    14   ar
    11     9    15   ar
    12    10    15   ar
    13    11    12   ar
    14    11    16   ar
    15    12    17   ar
    16    13    17   ar
    17    13    18   ar
    18    14    21    1
    19    15    21    1
    20    16    18   ar
    21    16    20    1
    22    17    22    1
    23    18    24    1
    24    19    21    1
    25    19    22   am
    26    19    23    2
    27     1    25    1
    28     2    26    1
    29     3    27    1
    30     4    28    1
    31     5    29    1
    32     6    30    1
    33     7    31    1
    34     8    32    1
    35     9    33    1
    36    10    34    1
    37    11    35    1
    38    12    36    1
    39    13    37    1
    40    20    38    1
    41    20    39    1
    42    20    40    1
    43    21    41    1
    44    22    42    1
