@<TRIPOS>MOLECULE
AE-508/36401057
 46 50 0 0 0
SMALL
USER_CHARGES

@<TRIPOS>ATOM
      1 C           1.5339    4.4115    6.2623 C.ar    1  LIG1       -0.0988
      2 C           4.5128    6.5601   -3.8001 C.ar    1  LIG1       -0.0947
      3 C           4.8021    5.3408   -3.1921 C.ar    1  LIG1       -0.0958
      4 C           2.8786    4.1617    5.9883 C.ar    1  LIG1       -0.0937
      5 C           0.6403    4.6424    5.2165 C.ar    1  LIG1       -0.0925
      6 C           3.4103    7.3075   -3.3822 C.ar    1  LIG1       -0.0847
      7 C           3.9902    4.8632   -2.1636 C.ar    1  LIG1       -0.0821
      8 C           3.3297    4.1430    4.6685 C.ar    1  LIG1       -0.0653
      9 C           1.0913    4.6237    3.8968 C.ar    1  LIG1       -0.0645
     10 C           0.1564    2.7223   -0.7841 C.ar    1  LIG1       -0.0695
     11 C          -0.5191    1.6482   -1.3684 C.ar    1  LIG1       -0.0484
     12 C           1.4695    7.5676   -1.9066 C.ar    1  LIG1       -0.0597
     13 C           2.2944    1.5970   -1.0846 C.ar    1  LIG1       -0.0418
     14 C           0.7010    7.0402   -0.8801 C.ar    1  LIG1       -0.0357
     15 C           2.5820    6.8419   -2.3480 C.ar    1  LIG1       -0.0685
     16 C           2.8782    5.6068   -1.7351 C.ar    1  LIG1       -0.0315
     17 C           2.4360    4.3739    3.6226 C.ar    1  LIG1        0.0390
     18 C           1.5550    2.6969   -0.6430 C.ar    1  LIG1       -0.0352
     19 C           0.2344    0.5743   -1.7960 C.ar    1  LIG1        0.0312
     20 C           1.6034    0.5494   -1.6581 C.ar    1  LIG1        0.0327
     21 C           2.0325    5.1766   -0.7107 C.ar    1  LIG1        0.0223
     22 C           2.9161    4.3540    2.2179 C.2     1  LIG1        0.1884
     23 C           0.9734   -1.2925   -2.6027 C.3     1  LIG1        0.1117
     24 C           2.2688    3.8798   -0.0030 C.3     1  LIG1        0.1199
     25 N           0.9537    5.8626   -0.2703 N.ar    1  LIG1       -0.3769
     26 O           4.0503    4.6694    1.8932 O.2     1  LIG1       -0.4473
     27 O          -0.2463   -0.5541   -2.3856 O.3     1  LIG1       -0.3779
     28 O           2.1512   -0.5977   -2.1438 O.3     1  LIG1       -0.3789
     29 O           1.9245    3.9426    1.3918 O.3     1  LIG1       -0.3040
     30 H           1.1829    4.4261    7.2899 H       1  LIG1        0.1286
     31 H           5.1463    6.9308   -4.6007 H       1  LIG1        0.1272
     32 H           5.6612    4.7618   -3.5188 H       1  LIG1        0.1253
     33 H           3.5744    3.9821    6.8027 H       1  LIG1        0.1222
     34 H          -0.4068    4.8366    5.4299 H       1  LIG1        0.1235
     35 H           3.2024    8.2564   -3.8720 H       1  LIG1        0.1314
     36 H           4.2435    3.9078   -1.7107 H       1  LIG1        0.1294
     37 H           4.3796    3.9473    4.4662 H       1  LIG1        0.1446
     38 H           0.3860    4.8050    3.0898 H       1  LIG1        0.1439
     39 H          -0.4114    3.5825   -0.4376 H       1  LIG1        0.1500
     40 H          -1.5973    1.6639   -1.4792 H       1  LIG1        0.1423
     41 H           1.2035    8.5235   -2.3474 H       1  LIG1        0.1357
     42 H           3.3737    1.5650   -0.9817 H       1  LIG1        0.1451
     43 H          -0.1690    7.5732   -0.5102 H       1  LIG1        0.1956
     44 H           0.9027   -2.2501   -2.0741 H       1  LIG1        0.1690
     45 H           1.0781   -1.4896   -3.6758 H       1  LIG1        0.2033
     46 H           3.3496    3.6531    0.0076 H       1  LIG1        0.1854
@<TRIPOS>BOND
     1     1     4   ar
     2     1     5   ar
     3     2     3   ar
     4     2     6   ar
     5     3     7   ar
     6     4     8   ar
     7     5     9   ar
     8     6    15   ar
     9     7    16   ar
    10     8    17   ar
    11     9    17   ar
    12    10    11   ar
    13    10    18   ar
    14    11    19   ar
    15    12    14   ar
    16    12    15   ar
    17    13    18   ar
    18    13    20   ar
    19    14    25   ar
    20    15    16   ar
    21    16    21   ar
    22    17    22    1
    23    18    24    1
    24    19    20   ar
    25    19    27    1
    26    20    28    1
    27    21    24    1
    28    21    25   ar
    29    22    26    2
    30    22    29    1
    31    23    27    1
    32    23    28    1
    33    24    29    1
    34     1    30    1
    35     2    31    1
    36     3    32    1
    37     4    33    1
    38     5    34    1
    39     6    35    1
    40     7    36    1
    41     8    37    1
    42     9    38    1
    43    10    39    1
    44    11    40    1
    45    12    41    1
    46    13    42    1
    47    14    43    1
    48    23    44    1
    49    23    45    1
    50    24    46    1
