@<TRIPOS>MOLECULE
Building
 36 39 0 0 0
SMALL
USER_CHARGES

@<TRIPOS>ATOM
      1 C           0.7098    1.0851   -2.2549 C.ar    1  LIG1       -0.1027
      2 C           2.2383    6.9396   -2.6810 C.ar    1  LIG1       -0.1027
      3 C           2.0027    1.1849   -1.7410 C.ar    1  LIG1       -0.0977
      4 C          -0.3320    1.8015   -1.6658 C.ar    1  LIG1       -0.0970
      5 C           1.0019    6.9094   -2.0360 C.ar    1  LIG1       -0.0970
      6 C           3.3366    6.2926   -2.1144 C.ar    1  LIG1       -0.0977
      7 C           1.7001    3.8374    5.8115 C.ar    1  LIG1       -0.0809
      8 C           2.0509    5.1757    5.7139 C.ar    1  LIG1       -0.0809
      9 C           2.2538    2.0010   -0.6381 C.ar    1  LIG1       -0.0769
     10 C          -0.0810    2.6176   -0.5628 C.ar    1  LIG1       -0.0767
     11 C           0.8637    6.2323   -0.8243 C.ar    1  LIG1       -0.0767
     12 C           3.1984    5.6155   -0.9027 C.ar    1  LIG1       -0.0769
     13 C           1.4675    3.1014    4.6510 C.ar    1  LIG1       -0.0486
     14 C           2.1656    5.7666    4.4569 C.ar    1  LIG1       -0.0486
     15 C           1.2120    2.7174   -0.0489 C.ar    1  LIG1       -0.0250
     16 C           1.9619    5.5853   -0.2577 C.ar    1  LIG1       -0.0250
     17 C           1.5795    3.6822    3.3900 C.ar    1  LIG1        0.0075
     18 C           1.9351    5.0399    3.2911 C.ar    1  LIG1        0.0075
     19 C           1.4723    3.5625    1.0930 C.ar    1  LIG1        0.0453
     20 C           1.8184    4.8840    0.9967 C.ar    1  LIG1        0.0453
     21 N           1.3500    2.9513    2.2850 N.ar    1  LIG1       -0.3498
     22 N           2.0522    5.6324    2.0898 N.ar    1  LIG1       -0.3498
     23 H           0.5149    0.4509   -3.1147 H       1  LIG1        0.1207
     24 H           2.3453    7.4654   -3.6252 H       1  LIG1        0.1206
     25 H           2.8143    0.6284   -2.2006 H       1  LIG1        0.1191
     26 H          -1.3387    1.7254   -2.0663 H       1  LIG1        0.1201
     27 H           0.1464    7.4117   -2.4779 H       1  LIG1        0.1200
     28 H           4.2992    6.3145   -2.6167 H       1  LIG1        0.1191
     29 H           1.6068    3.3653    6.7847 H       1  LIG1        0.1351
     30 H           2.2345    5.7604    6.6102 H       1  LIG1        0.1351
     31 H           3.2672    2.0684   -0.2493 H       1  LIG1        0.1302
     32 H          -0.9030    3.1706   -0.1145 H       1  LIG1        0.1290
     33 H          -0.1068    6.2176   -0.3339 H       1  LIG1        0.1290
     34 H           4.0632    5.1152   -0.4734 H       1  LIG1        0.1302
     35 H           1.1928    2.0524    4.7422 H       1  LIG1        0.1484
     36 H           2.4411    6.8176    4.3950 H       1  LIG1        0.1484
@<TRIPOS>BOND
     1     1     3   ar
     2     1     4   ar
     3     2     5   ar
     4     2     6   ar
     5     3     9   ar
     6     4    10   ar
     7     5    11   ar
     8     6    12   ar
     9     7     8   ar
    10     7    13   ar
    11     8    14   ar
    12     9    15   ar
    13    10    15   ar
    14    11    16   ar
    15    12    16   ar
    16    13    17   ar
    17    14    18   ar
    18    15    19    1
    19    16    20    1
    20    17    18   ar
    21    17    21   ar
    22    18    22   ar
    23    19    20   ar
    24    19    21   ar
    25    20    22   ar
    26     1    23    1
    27     2    24    1
    28     3    25    1
    29     4    26    1
    30     5    27    1
    31     6    28    1
    32     7    29    1
    33     8    30    1
    34     9    31    1
    35    10    32    1
    36    11    33    1
    37    12    34    1
    38    13    35    1
    39    14    36    1
