@<TRIPOS>MOLECULE
AE-848/32610053
 51 54 0 0 0
SMALL
USER_CHARGES

@<TRIPOS>ATOM
      1 C           7.1341    5.8080    2.0583 C.ar    1  LIG1       -0.1037
      2 C           1.7953    7.7186   -2.3863 C.ar    1  LIG1       -0.0968
      3 C          -0.0574    0.6664   -1.8795 C.ar    1  LIG1       -0.0971
      4 C           2.1033    5.4559    6.4979 C.ar    1  LIG1       -0.0997
      5 C           7.4295    4.5370    1.5654 C.ar    1  LIG1       -0.0975
      6 C           5.8418    6.3192    1.9394 C.ar    1  LIG1       -0.1040
      7 C           0.9995    7.4291   -1.2781 C.ar    1  LIG1       -0.1021
      8 C           2.8172    6.8451   -2.7586 C.ar    1  LIG1       -0.0993
      9 C          -0.6505    1.8138   -1.3531 C.ar    1  LIG1       -0.1061
     10 C           1.3275    0.5090   -1.8244 C.ar    1  LIG1       -0.0962
     11 C           0.8785    5.0562    5.9635 C.ar    1  LIG1       -0.0936
     12 C           3.2910    5.1159    5.8501 C.ar    1  LIG1       -0.0939
     13 C           6.4325    3.7773    0.9534 C.ar    1  LIG1       -0.0767
     14 C           4.8448    5.5595    1.3275 C.ar    1  LIG1       -0.0895
     15 C           1.2257    6.2662   -0.5417 C.ar    1  LIG1       -0.0762
     16 C           3.0433    5.6822   -2.0224 C.ar    1  LIG1       -0.0750
     17 C           0.1413    2.8040   -0.7717 C.ar    1  LIG1       -0.0822
     18 C           2.1193    1.4993   -1.2429 C.ar    1  LIG1       -0.0690
     19 C           0.8412    4.3166    4.7814 C.ar    1  LIG1       -0.0050
     20 C           3.2538    4.3763    4.6680 C.ar    1  LIG1       -0.0053
     21 C           5.1401    4.2885    0.8345 C.ar    1  LIG1       -0.0582
     22 C           2.2476    5.3927   -0.9139 C.ar    1  LIG1        0.0939
     23 C           1.5262    2.6469   -0.7166 C.ar    1  LIG1        0.0933
     24 C           2.0289    3.9767    4.1337 C.ar    1  LIG1        0.2863
     25 N           1.8968    4.1847    1.4822 N.2     1  LIG1       -0.0810
     26 N           4.1319    3.5205    0.2159 N.pl3   1  LIG1       -0.2652
     27 O           0.7262    2.3055    2.6801 O.2     1  LIG1       -0.0914
     28 O           3.2308    2.2993    2.5561 O.2     1  LIG1       -0.0914
     29 P           2.5359    3.9096    0.0250 P.3     1  LIG1       -0.0024
     30 S           1.9813    3.0341    2.6340 S.O2    1  LIG1       -0.0577
     31 H           7.9106    6.3996    2.5348 H       1  LIG1        0.1139
     32 H           1.6191    8.6242   -2.9596 H       1  LIG1        0.1316
     33 H          -0.6740   -0.1046   -2.3323 H       1  LIG1        0.1315
     34 H           2.1331    6.0312    7.4185 H       1  LIG1        0.1292
     35 H           8.4356    4.1393    1.6581 H       1  LIG1        0.1290
     36 H           5.6119    7.3090    2.3234 H       1  LIG1        0.1286
     37 H           0.2042    8.1094   -0.9881 H       1  LIG1        0.1201
     38 H           3.4366    7.0705   -3.6219 H       1  LIG1        0.1229
     39 H          -1.7287    1.9364   -1.3963 H       1  LIG1        0.1187
     40 H           1.7892   -0.3847   -2.2340 H       1  LIG1        0.1236
     41 H          -0.0465    5.3198    6.4680 H       1  LIG1        0.1192
     42 H           4.2445    5.4266    6.2667 H       1  LIG1        0.1190
     43 H           6.6730    2.7881    0.5725 H       1  LIG1        0.1270
     44 H           3.8412    5.9681    1.2406 H       1  LIG1        0.0988
     45 H           0.6038    6.0452    0.3210 H       1  LIG1        0.1253
     46 H           3.8400    5.0048   -2.3163 H       1  LIG1        0.1201
     47 H          -0.3250    3.6962   -0.3636 H       1  LIG1        0.1166
     48 H           3.1973    1.3721   -1.2020 H       1  LIG1        0.1356
     49 H          -0.1185    4.0095    4.3743 H       1  LIG1        0.1452
     50 H           4.1851    4.1159    4.1726 H       1  LIG1        0.1447
     51 H           4.4829    2.6170   -0.0964 H       1  LIG1        0.3287
@<TRIPOS>BOND
     1     1     5   ar
     2     1     6   ar
     3     2     7   ar
     4     2     8   ar
     5     3     9   ar
     6     3    10   ar
     7     4    11   ar
     8     4    12   ar
     9     5    13   ar
    10     6    14   ar
    11     7    15   ar
    12     8    16   ar
    13     9    17   ar
    14    10    18   ar
    15    11    19   ar
    16    12    20   ar
    17    13    21   ar
    18    14    21   ar
    19    15    22   ar
    20    16    22   ar
    21    17    23   ar
    22    18    23   ar
    23    19    24   ar
    24    20    24   ar
    25    21    26    1
    26    22    29    1
    27    23    29    1
    28    24    30    1
    29    25    29    2
    30    25    30    1
    31    26    29    1
    32    27    30    2
    33    28    30    2
    34     1    31    1
    35     2    32    1
    36     3    33    1
    37     4    34    1
    38     5    35    1
    39     6    36    1
    40     7    37    1
    41     8    38    1
    42     9    39    1
    43    10    40    1
    44    11    41    1
    45    12    42    1
    46    13    43    1
    47    14    44    1
    48    15    45    1
    49    16    46    1
    50    17    47    1
    51    18    48    1
    52    19    49    1
    53    20    50    1
    54    26    51    1
