@<TRIPOS>MOLECULE
AA-504/32170004
 46 49 0 0 0
SMALL
USER_CHARGES

@<TRIPOS>ATOM
      1 C           1.9955    6.8482   -2.5306 C.ar    1  LIG1       -0.0817
      2 C           3.0597    4.3060    4.6627 C.ar    1  LIG1       -0.0961
      3 C           0.7295    3.7802    4.3009 C.ar    1  LIG1       -0.0985
      4 C           0.5444    3.2556   -0.9732 C.ar    1  LIG1       -0.0853
      5 C           1.5256    1.5443    0.4215 C.ar    1  LIG1       -0.0824
      6 C           2.7981    4.5365    6.0132 C.ar    1  LIG1       -0.0715
      7 C           0.4678    4.0107    5.6514 C.ar    1  LIG1       -0.0733
      8 C           0.4413    2.3418   -2.0220 C.ar    1  LIG1       -0.0728
      9 C           1.4226    0.6305   -0.6272 C.ar    1  LIG1       -0.0707
     10 C           1.7995    6.3394   -1.2246 C.ar    1  LIG1       -0.0665
     11 C           3.2125    6.3639   -2.9506 C.ar    1  LIG1        0.0093
     12 C           2.0254    3.9279    3.8064 C.ar    1  LIG1       -0.1100
     13 C           1.0866    2.8570    0.2485 C.ar    1  LIG1       -0.0920
     14 C           1.5021    4.3889    6.5076 C.ar    1  LIG1       -0.0759
     15 C           0.8804    1.0293   -1.8490 C.ar    1  LIG1       -0.0184
     16 C           2.9106    5.5803   -0.9395 C.ar    1  LIG1        0.0839
     17 C           3.2822    4.8092    0.2496 C.2     1  LIG1        0.1114
     18 C           2.3056    3.6814    2.3640 C.3     1  LIG1       -0.0228
     19 C           1.1960    3.8296    1.3648 C.3     1  LIG1       -0.0149
     20 C           2.3314    4.8106    1.3762 C.3     1  LIG1        0.0445
     21 C           2.3069    5.0144    8.7706 C.3     1  LIG1       -0.0373
     22 C          -0.1071    4.4847    8.3949 C.3     1  LIG1       -0.0373
     23 N           1.2385    4.6216    7.8732 N.pl3   1  LIG1       -0.4264
     24 O           4.3243    4.1733    0.3688 O.2     1  LIG1       -0.4373
     25 O           3.7768    5.5901   -1.9866 O.2     1  LIG1       -0.3682
     26 CL          0.7534   -0.0979   -3.1431 Cl      1  LIG1       -0.1489
     27 H           1.3330    7.4883   -3.0950 H       1  LIG1        0.1215
     28 H           4.0726    4.4237    4.2870 H       1  LIG1        0.1279
     29 H          -0.0831    3.4855    3.6418 H       1  LIG1        0.1248
     30 H           0.2004    4.2764   -1.1182 H       1  LIG1        0.1280
     31 H           1.9485    1.2237    1.3701 H       1  LIG1        0.1331
     32 H           3.6113    4.8304    6.6717 H       1  LIG1        0.1127
     33 H          -0.5459    3.8929    6.0257 H       1  LIG1        0.1119
     34 H           0.0180    2.6670   -2.9690 H       1  LIG1        0.1299
     35 H           1.7677   -0.3893   -0.4778 H       1  LIG1        0.1313
     36 H           0.9522    6.5077   -0.5751 H       1  LIG1        0.1465
     37 H           3.7874    6.4727   -3.8587 H       1  LIG1        0.2337
     38 H           3.0278    2.8889    2.1793 H       1  LIG1        0.0964
     39 H           0.2426    4.1907    1.7434 H       1  LIG1        0.1136
     40 H           2.1359    5.8009    1.7771 H       1  LIG1        0.1037
     41 H           1.9168    5.1492    9.7828 H       1  LIG1        0.0781
     42 H           2.7537    5.9550    8.4374 H       1  LIG1        0.0911
     43 H           3.0839    4.2456    8.7925 H       1  LIG1        0.0928
     44 H          -0.1187    4.7026    9.4660 H       1  LIG1        0.0783
     45 H          -0.4709    3.4654    8.2391 H       1  LIG1        0.0911
     46 H          -0.7818    5.1791    7.8870 H       1  LIG1        0.0926
@<TRIPOS>BOND
     1     1    10   ar
     2     1    11   ar
     3     2     6   ar
     4     2    12   ar
     5     3     7   ar
     6     3    12   ar
     7     4     8   ar
     8     4    13   ar
     9     5     9   ar
    10     5    13   ar
    11     6    14   ar
    12     7    14   ar
    13     8    15   ar
    14     9    15   ar
    15    10    16   ar
    16    11    25   ar
    17    12    18    1
    18    13    19    1
    19    14    23    1
    20    15    26    1
    21    16    17    1
    22    16    25   ar
    23    17    20    1
    24    17    24    2
    25    18    19    1
    26    18    20    1
    27    19    20    1
    28    21    23    1
    29    22    23    1
    30     1    27    1
    31     2    28    1
    32     3    29    1
    33     4    30    1
    34     5    31    1
    35     6    32    1
    36     7    33    1
    37     8    34    1
    38     9    35    1
    39    10    36    1
    40    11    37    1
    41    18    38    1
    42    19    39    1
    43    20    40    1
    44    21    41    1
    45    21    42    1
    46    21    43    1
    47    22    44    1
    48    22    45    1
    49    22    46    1
