@<TRIPOS>MOLECULE
AN-056/25013058
 50 54 0 0 0
SMALL
USER_CHARGES

@<TRIPOS>ATOM
      1 C           1.6932    7.0853   -2.6233 C.ar    1  LIG1       -0.1080
      2 C           0.3770    0.9558   -2.2767 C.ar    1  LIG1       -0.1070
      3 C          -1.4742    0.5194    4.3188 C.ar    1  LIG1       -0.0955
      4 C           1.6912    5.2188    6.1164 C.ar    1  LIG1       -0.0952
      5 C           2.2925    5.8579   -2.9062 C.ar    1  LIG1       -0.1079
      6 C           1.4451    7.4519   -1.3006 C.ar    1  LIG1       -0.1048
      7 C          -0.2602    2.1707   -2.0245 C.ar    1  LIG1       -0.1086
      8 C           1.4347    0.5417   -1.4671 C.ar    1  LIG1       -0.1063
      9 C          -0.9874   -0.0220    3.1206 C.ar    1  LIG1       -0.0963
     10 C           2.7444    5.5164    5.2400 C.ar    1  LIG1       -0.0969
     11 C          -0.8621    1.6330    4.9049 C.ar    1  LIG1       -0.0981
     12 C           0.8295    4.1451    5.8655 C.ar    1  LIG1       -0.0977
     13 C           2.6437    4.9971   -1.8663 C.ar    1  LIG1       -0.1023
     14 C           1.7962    6.5911   -0.2607 C.ar    1  LIG1       -0.0989
     15 C           0.1604    2.9717   -0.9628 C.ar    1  LIG1       -0.1112
     16 C           1.8553    1.3427   -0.4053 C.ar    1  LIG1       -0.1120
     17 C           0.1195    0.5402    2.4878 C.ar    1  LIG1       -0.0686
     18 C           2.9543    4.7464    4.0977 C.ar    1  LIG1       -0.0704
     19 C           0.2433    2.2048    4.2846 C.ar    1  LIG1       -0.0763
     20 C           1.0267    3.3678    4.7294 C.ar    1  LIG1       -0.0769
     21 C           2.3956    5.3637   -0.5434 C.ar    1  LIG1       -0.0902
     22 C           1.2182    2.5577   -0.1532 C.ar    1  LIG1       -0.0858
     23 C           0.7190    1.6418    3.0734 C.ar    1  LIG1        0.1019
     24 C           2.0972    3.6869    3.8562 C.ar    1  LIG1        0.1000
     25 C           2.7761    4.4301    0.5854 C.3     1  LIG1        0.0420
     26 C           1.6758    3.4274    1.0003 C.3     1  LIG1        0.1434
     27 O           3.3952    1.7648    2.3162 O.2     1  LIG1       -0.3751
     28 O           3.9513    3.6996    0.2248 O.3     1  LIG1       -0.4747
     29 P           2.1249    2.5513    2.4981 P.3     1  LIG1        0.0790
     30 H           1.4211    7.7560   -3.4331 H       1  LIG1        0.1143
     31 H           0.0485    0.3316   -3.1026 H       1  LIG1        0.1165
     32 H          -2.3393    0.0681    4.7977 H       1  LIG1        0.1284
     33 H           1.5427    5.8305    7.0024 H       1  LIG1        0.1290
     34 H           2.4868    5.5727   -3.9360 H       1  LIG1        0.1146
     35 H           0.9795    8.4078   -1.0799 H       1  LIG1        0.1168
     36 H          -1.0845    2.4927   -2.6542 H       1  LIG1        0.1230
     37 H           1.9304   -0.4045   -1.6624 H       1  LIG1        0.1147
     38 H          -1.4785   -0.8867    2.6827 H       1  LIG1        0.1270
     39 H           3.4004    6.3555    5.4545 H       1  LIG1        0.1283
     40 H          -1.2605    2.0306    5.8332 H       1  LIG1        0.1227
     41 H           0.0228    3.9388    6.5618 H       1  LIG1        0.1233
     42 H           3.1101    4.0427   -2.0961 H       1  LIG1        0.1147
     43 H           1.5990    6.8852    0.7668 H       1  LIG1        0.1181
     44 H          -0.3419    3.9168   -0.7740 H       1  LIG1        0.1425
     45 H           2.6804    1.0121    0.2200 H       1  LIG1        0.1140
     46 H           0.4992    0.1247    1.5610 H       1  LIG1        0.1363
     47 H           3.7672    4.9733    3.4171 H       1  LIG1        0.1367
     48 H           3.0652    5.0390    1.4519 H       1  LIG1        0.1420
     49 H           0.8020    4.0091    1.3268 H       1  LIG1        0.1052
     50 H           4.6438    4.3586    0.0703 H       1  LIG1        0.3334
@<TRIPOS>BOND
     1     1     5   ar
     2     1     6   ar
     3     2     7   ar
     4     2     8   ar
     5     3     9   ar
     6     3    11   ar
     7     4    10   ar
     8     4    12   ar
     9     5    13   ar
    10     6    14   ar
    11     7    15   ar
    12     8    16   ar
    13     9    17   ar
    14    10    18   ar
    15    11    19   ar
    16    12    20   ar
    17    13    21   ar
    18    14    21   ar
    19    15    22   ar
    20    16    22   ar
    21    17    23   ar
    22    18    24   ar
    23    19    20    1
    24    19    23   ar
    25    20    24   ar
    26    21    25    1
    27    22    26    1
    28    23    29    1
    29    24    29    1
    30    25    26    1
    31    25    28    1
    32    26    29    1
    33    27    29    2
    34     1    30    1
    35     2    31    1
    36     3    32    1
    37     4    33    1
    38     5    34    1
    39     6    35    1
    40     7    36    1
    41     8    37    1
    42     9    38    1
    43    10    39    1
    44    11    40    1
    45    12    41    1
    46    13    42    1
    47    14    43    1
    48    15    44    1
    49    16    45    1
    50    17    46    1
    51    18    47    1
    52    25    48    1
    53    26    49    1
    54    28    50    1
