@<TRIPOS>MOLECULE
AJ-091/33279015
 40 43 0 0 0
SMALL
USER_CHARGES

@<TRIPOS>ATOM
      1 C           0.5127    1.0463   -2.1913 C.ar    1  LIG1       -0.1053
      2 C           1.7886    0.8384   -1.6677 C.ar    1  LIG1       -0.0983
      3 C          -0.3533    1.9524   -1.5791 C.ar    1  LIG1       -0.1018
      4 C           0.8443    6.5093   -2.0687 C.ar    1  LIG1       -0.0941
      5 C           1.9718    3.5148    5.9396 C.ar    1  LIG1       -0.0856
      6 C           2.0993    4.8968    6.0315 C.ar    1  LIG1       -0.0944
      7 C           1.8952    6.9038   -2.8965 C.ar    1  LIG1       -0.0927
      8 C           2.1988    1.5364   -0.5318 C.ar    1  LIG1       -0.0746
      9 C           0.0568    2.6506   -0.4432 C.ar    1  LIG1       -0.0806
     10 C           1.1037    6.0904   -0.7637 C.ar    1  LIG1       -0.0855
     11 C           1.6423    2.9259    4.7189 C.ar    1  LIG1       -0.0522
     12 C           1.8988    5.6912    4.9033 C.ar    1  LIG1       -0.0829
     13 C           3.2058    6.8792   -2.4194 C.ar    1  LIG1       -0.0708
     14 C           1.3328    2.4425    0.0805 C.ar    1  LIG1       -0.0281
     15 C           2.4142    6.0659   -0.2866 C.ar    1  LIG1       -0.0651
     16 C           1.4488    3.7072    3.5702 C.ar    1  LIG1       -0.0327
     17 C           1.5793    5.1057    3.6701 C.ar    1  LIG1       -0.0292
     18 C           3.4652    6.4602   -1.1145 C.ar    1  LIG1       -0.0078
     19 C           1.7709    3.1881    1.2938 C.2     1  LIG1       -0.0219
     20 C           2.9941    4.0974    1.1989 C.3     1  LIG1        0.0279
     21 C           2.6543    5.6002    1.1424 C.3     1  LIG1        0.0220
     22 N           1.0772    3.0427    2.3850 N.2     1  LIG1       -0.4016
     23 S           1.3124    6.1802    2.2685 S.3     1  LIG1       -0.1823
     24 CL          5.0994    6.4433   -0.5592 Cl      1  LIG1       -0.1366
     25 H           0.1934    0.5029   -3.0757 H       1  LIG1        0.1187
     26 H           2.4627    0.1327   -2.1444 H       1  LIG1        0.1162
     27 H          -1.3467    2.1146   -1.9869 H       1  LIG1        0.1169
     28 H          -0.1764    6.5294   -2.4401 H       1  LIG1        0.1283
     29 H           2.1343    2.8939    6.8157 H       1  LIG1        0.1266
     30 H           2.3599    5.3569    6.9802 H       1  LIG1        0.1284
     31 H           1.6927    7.2310   -3.9121 H       1  LIG1        0.1305
     32 H           3.1953    1.3667   -0.1323 H       1  LIG1        0.1378
     33 H          -0.6265    3.3541    0.0257 H       1  LIG1        0.1271
     34 H           0.2772    5.7856   -0.1268 H       1  LIG1        0.1357
     35 H           1.5364    1.8446    4.6670 H       1  LIG1        0.1431
     36 H           1.9923    6.7700    5.0026 H       1  LIG1        0.1285
     37 H           4.0134    7.1908   -3.0769 H       1  LIG1        0.1355
     38 H           3.6384    3.9104    2.0802 H       1  LIG1        0.0982
     39 H           3.6200    3.7828    0.3413 H       1  LIG1        0.0961
     40 H           3.5725    6.1582    1.4857 H       1  LIG1        0.1063
@<TRIPOS>BOND
     1     1     2   ar
     2     1     3   ar
     3     2     8   ar
     4     3     9   ar
     5     4     7   ar
     6     4    10   ar
     7     5     6   ar
     8     5    11   ar
     9     6    12   ar
    10     7    13   ar
    11     8    14   ar
    12     9    14   ar
    13    10    15   ar
    14    11    16   ar
    15    12    17   ar
    16    13    18   ar
    17    14    19    1
    18    15    18   ar
    19    15    21    1
    20    16    17   ar
    21    16    22    1
    22    17    23    1
    23    18    24    1
    24    19    20    1
    25    19    22    2
    26    20    21    1
    27    21    23    1
    28     1    25    1
    29     2    26    1
    30     3    27    1
    31     4    28    1
    32     5    29    1
    33     6    30    1
    34     7    31    1
    35     8    32    1
    36     9    33    1
    37    10    34    1
    38    11    35    1
    39    12    36    1
    40    13    37    1
    41    20    38    1
    42    20    39    1
    43    21    40    1
