@<TRIPOS>MOLECULE
AH-487/41794259
 40 42 0 0 0
SMALL
USER_CHARGES

@<TRIPOS>ATOM
      1 C           0.5781    1.0563   -2.3744 C.ar    1  LIG1       -0.1089
      2 C           2.6368    7.2147   -2.7166 C.ar    1  LIG1       -0.1072
      3 C          -0.3543    1.8672   -1.7271 C.ar    1  LIG1       -0.1076
      4 C           1.8223    0.8204   -1.7896 C.ar    1  LIG1       -0.1059
      5 C           1.8003    7.8767   -1.8179 C.ar    1  LIG1       -0.1070
      6 C           3.0098    5.8920   -2.4777 C.ar    1  LIG1       -0.1051
      7 C          -0.0423    2.4421   -0.4951 C.ar    1  LIG1       -0.1013
      8 C           2.1342    1.3952   -0.5577 C.ar    1  LIG1       -0.0974
      9 C           1.3368    7.2159   -0.6803 C.ar    1  LIG1       -0.1024
     10 C           2.5464    5.2313   -1.3400 C.ar    1  LIG1       -0.0994
     11 C           1.3813    5.3980    4.4342 C.ar    1  LIG1        0.0057
     12 C           0.9399    4.9653    5.7181 C.ar    1  LIG1       -0.0675
     13 C           1.2019    2.2061    0.0896 C.ar    1  LIG1       -0.0867
     14 C           1.7099    5.8931   -0.4413 C.ar    1  LIG1       -0.0885
     15 C           2.3974    4.6082    3.9431 C.ar    1  LIG1        0.3552
     16 C           1.6354    3.8610    6.1591 C.ar    1  LIG1        0.0456
     17 C           1.5383    2.8248    1.4157 C.3     1  LIG1        0.0591
     18 C           1.2116    5.1814    0.7832 C.3     1  LIG1        0.0608
     19 N           2.1751    4.1575    1.2615 N.3     1  LIG1       -0.1503
     20 O           3.7285    6.0132    2.2045 O.2     1  LIG1       -0.0725
     21 O           4.3603    3.6129    2.5561 O.2     1  LIG1       -0.0725
     22 S           2.8152    3.3508    5.0278 S.2     1  LIG1        0.0016
     23 S           3.3372    4.6360    2.4423 S.O2    1  LIG1       -0.0299
     24 BR          1.3343    2.9949    7.8224 Br      1  LIG1       -0.0360
     25 H           0.3346    0.6077   -3.3331 H       1  LIG1        0.1147
     26 H           2.9965    7.7289   -3.6031 H       1  LIG1        0.1152
     27 H          -1.3235    2.0502   -2.1818 H       1  LIG1        0.1131
     28 H           2.5480    0.1882   -2.2928 H       1  LIG1        0.1151
     29 H           1.5088    8.9062   -2.0043 H       1  LIG1        0.1151
     30 H           3.6602    5.3761   -3.1778 H       1  LIG1        0.1156
     31 H          -0.7749    3.0727    0.0018 H       1  LIG1        0.1172
     32 H           3.1061    1.2058   -0.1096 H       1  LIG1        0.1313
     33 H           0.6856    7.7396    0.0146 H       1  LIG1        0.1154
     34 H           2.8424    4.2009   -1.1620 H       1  LIG1        0.1198
     35 H           0.9730    6.2462    3.8997 H       1  LIG1        0.1589
     36 H           0.1509    5.4471    6.2817 H       1  LIG1        0.1360
     37 H           0.6356    2.9506    2.0232 H       1  LIG1        0.1307
     38 H           2.2260    2.1888    1.9828 H       1  LIG1        0.1290
     39 H           1.0410    5.8914    1.5998 H       1  LIG1        0.1329
     40 H           0.2593    4.6785    0.5851 H       1  LIG1        0.1370
@<TRIPOS>BOND
     1     1     3   ar
     2     1     4   ar
     3     2     5   ar
     4     2     6   ar
     5     3     7   ar
     6     4     8   ar
     7     5     9   ar
     8     6    10   ar
     9     7    13   ar
    10     8    13   ar
    11     9    14   ar
    12    10    14   ar
    13    11    12   ar
    14    11    15   ar
    15    12    16   ar
    16    13    17    1
    17    14    18    1
    18    15    22   ar
    19    15    23    1
    20    16    22   ar
    21    16    24    1
    22    17    19    1
    23    18    19    1
    24    19    23    1
    25    20    23    2
    26    21    23    2
    27     1    25    1
    28     2    26    1
    29     3    27    1
    30     4    28    1
    31     5    29    1
    32     6    30    1
    33     7    31    1
    34     8    32    1
    35     9    33    1
    36    10    34    1
    37    11    35    1
    38    12    36    1
    39    17    37    1
    40    17    38    1
    41    18    39    1
    42    18    40    1
