@<TRIPOS>MOLECULE
AE-473/30079025
 32 33 0 0 0
SMALL
USER_CHARGES

@<TRIPOS>ATOM
      1 C           0.2250    0.7044   -1.7823 C.ar    1  LIG1       -0.0997
      2 C           2.0000    7.5995   -2.2908 C.ar    1  LIG1       -0.0980
      3 C           1.5517    0.9317   -2.1482 C.ar    1  LIG1       -0.0989
      4 C          -0.3890    1.5279   -0.8387 C.ar    1  LIG1       -0.1016
      5 C           0.8704    6.9819   -1.7540 C.ar    1  LIG1       -0.1024
      6 C           3.2616    7.0379   -2.0945 C.ar    1  LIG1       -0.0986
      7 C           2.2643    1.9823   -1.5706 C.ar    1  LIG1       -0.0960
      8 C           0.3237    2.5787   -0.2609 C.ar    1  LIG1       -0.1000
      9 C           1.0025    5.8026   -1.0207 C.ar    1  LIG1       -0.1061
     10 C           3.3936    5.8587   -1.3613 C.ar    1  LIG1       -0.1008
     11 C           1.6503    2.8059   -0.6268 C.ar    1  LIG1       -0.0826
     12 C           2.2641    5.2410   -0.8243 C.ar    1  LIG1       -0.0911
     13 C           2.0727    4.2174    1.4954 C.3     1  LIG1       -0.0709
     14 C           2.4118    3.9294   -0.0086 C.3     1  LIG1       -0.0116
     15 N           2.2814    3.0223    2.3609 N.4     1  LIG1        0.4520
     16 O           3.8180    3.5574    0.0299 O.3     1  LIG1       -0.4685
     17 H          -0.3302   -0.1129   -2.2332 H       1  LIG1        0.1264
     18 H           1.8968    8.5171   -2.8628 H       1  LIG1        0.1292
     19 H           2.0296    0.2912   -2.8839 H       1  LIG1        0.1254
     20 H          -1.4223    1.3519   -0.5543 H       1  LIG1        0.1236
     21 H          -0.1122    7.4185   -1.9075 H       1  LIG1        0.1263
     22 H           4.1411    7.5179   -2.5132 H       1  LIG1        0.1278
     23 H           3.2976    2.1518   -1.8616 H       1  LIG1        0.1236
     24 H          -0.1629    3.2150    0.4736 H       1  LIG1        0.1154
     25 H           0.1168    5.3285   -0.6059 H       1  LIG1        0.1155
     26 H           4.3806    5.4284   -1.2133 H       1  LIG1        0.1241
     27 H           1.0135    4.4741    1.6095 H       1  LIG1        0.1203
     28 H           2.6838    5.0145    1.9294 H       1  LIG1        0.1151
     29 H           2.5533    2.2125    1.7975 H       1  LIG1        0.1506
     30 H           1.4221    2.7891    2.8654 H       1  LIG1        0.1532
     31 H           3.0195    3.1990    3.0472 H       1  LIG1        0.1469
     32 H           4.0604    3.4149   -0.8898 H       1  LIG1        0.3509
@<TRIPOS>BOND
     1     1     3   ar
     2     1     4   ar
     3     2     5   ar
     4     2     6   ar
     5     3     7   ar
     6     4     8   ar
     7     5     9   ar
     8     6    10   ar
     9     7    11   ar
    10     8    11   ar
    11     9    12   ar
    12    10    12   ar
    13    11    14    1
    14    12    14    1
    15    13    14    1
    16    13    15    1
    17    14    16    1
    18     1    17    1
    19     2    18    1
    20     3    19    1
    21     4    20    1
    22     5    21    1
    23     6    22    1
    24     7    23    1
    25     8    24    1
    26     9    25    1
    27    10    26    1
    28    13    27    1
    29    13    28    1
    30    15    29    1
    31    15    30    1
    32    15    31    1
    33    16    32    1
