@<TRIPOS>MOLECULE
AG-205/07778023
 41 44 0 0 0
SMALL
USER_CHARGES

@<TRIPOS>ATOM
      1 C           1.5269    4.3256    6.5659 C.ar    1  LIG1       -0.1050
      2 C           2.7404    4.8242    6.0925 C.ar    1  LIG1       -0.0987
      3 C           0.5902    3.8060    5.6724 C.ar    1  LIG1       -0.0998
      4 C           1.2008    7.5179   -1.7991 C.ar    1  LIG1       -0.0866
      5 C           1.9712    7.3286   -2.9463 C.ar    1  LIG1       -0.0904
      6 C           3.0173    4.8035    4.7256 C.ar    1  LIG1       -0.0767
      7 C           0.8671    3.7853    4.3055 C.ar    1  LIG1       -0.0788
      8 C           2.2728    1.3994   -0.9778 C.ar    1  LIG1       -0.0837
      9 C           0.5749    3.0284   -0.4300 C.ar    1  LIG1       -0.0831
     10 C           1.3791    6.6856   -0.6940 C.ar    1  LIG1       -0.0438
     11 C           2.9199    6.3070   -2.9885 C.ar    1  LIG1       -0.0371
     12 C           1.3130    0.6132   -1.6151 C.ar    1  LIG1       -0.0486
     13 C          -0.3850    2.2423   -1.0674 C.ar    1  LIG1       -0.0480
     14 C           2.0806    4.2840    3.8320 C.ar    1  LIG1       -0.0387
     15 C           1.9038    2.6070   -0.3851 C.ar    1  LIG1       -0.0746
     16 C           2.3278    5.6638   -0.7364 C.ar    1  LIG1        0.0283
     17 C          -0.0158    1.0347   -1.6600 C.ar    1  LIG1        0.0607
     18 C           3.0982    5.4745   -1.8836 C.ar    1  LIG1        0.1115
     19 C           2.3693    4.2624    2.4069 C.2     1  LIG1        0.0080
     20 C           3.0526    3.0794    1.7777 C.3     1  LIG1        0.0281
     21 C           2.9316    3.4500    0.2971 C.3     1  LIG1        0.0174
     22 N           2.0972    5.2339    1.5936 N.2     1  LIG1       -0.3273
     23 N           2.5009    4.8478    0.3502 N.pl3   1  LIG1       -0.3250
     24 F          -0.9372    0.2811   -2.2744 F       1  LIG1       -0.2696
     25 F           4.0127    4.4956   -1.9350 F       1  LIG1       -0.2520
     26 H           1.3113    4.3418    7.6302 H       1  LIG1        0.1178
     27 H           3.4696    5.2290    6.7883 H       1  LIG1        0.1183
     28 H          -0.3547    3.4174    6.0411 H       1  LIG1        0.1188
     29 H           0.4621    8.3133   -1.7665 H       1  LIG1        0.1257
     30 H           1.8321    7.9771   -3.8064 H       1  LIG1        0.1340
     31 H           3.9662    5.1947    4.3675 H       1  LIG1        0.1321
     32 H           0.1297    3.3782    3.6184 H       1  LIG1        0.1276
     33 H           3.3057    1.0623   -0.9473 H       1  LIG1        0.1329
     34 H           0.2780    3.9680    0.0287 H       1  LIG1        0.1351
     35 H           0.7737    6.8425    0.1953 H       1  LIG1        0.1457
     36 H           3.5198    6.1595   -3.8816 H       1  LIG1        0.1338
     37 H           1.6003   -0.3265   -2.0771 H       1  LIG1        0.1301
     38 H          -1.4198    2.5698   -1.1022 H       1  LIG1        0.1319
     39 H           4.0996    3.0753    2.0994 H       1  LIG1        0.0983
     40 H           2.5741    2.1365    2.0566 H       1  LIG1        0.0976
     41 H           3.8909    3.3397   -0.2195 H       1  LIG1        0.1340
@<TRIPOS>BOND
     1     1     2   ar
     2     1     3   ar
     3     2     6   ar
     4     3     7   ar
     5     4     5   ar
     6     4    10   ar
     7     5    11   ar
     8     6    14   ar
     9     7    14   ar
    10     8    12   ar
    11     8    15   ar
    12     9    13   ar
    13     9    15   ar
    14    10    16   ar
    15    11    18   ar
    16    12    17   ar
    17    13    17   ar
    18    14    19    1
    19    15    21    1
    20    16    18   ar
    21    16    23    1
    22    17    24    1
    23    18    25    1
    24    19    20    1
    25    19    22    2
    26    20    21    1
    27    21    23    1
    28    22    23    1
    29     1    26    1
    30     2    27    1
    31     3    28    1
    32     4    29    1
    33     5    30    1
    34     6    31    1
    35     7    32    1
    36     8    33    1
    37     9    34    1
    38    10    35    1
    39    11    36    1
    40    12    37    1
    41    13    38    1
    42    20    39    1
    43    20    40    1
    44    21    41    1
