@<TRIPOS>MOLECULE
AJ-292/42319985
 46 48 0 0 0
SMALL
USER_CHARGES

@<TRIPOS>ATOM
      1 C           0.4404    0.6377   -1.9160 C.ar    1  LIG1       -0.1088
      2 C           1.7920    0.9682   -2.0139 C.ar    1  LIG1       -0.1067
      3 C          -0.4262    1.4534   -1.1883 C.ar    1  LIG1       -0.1072
      4 C           2.2771    2.1143   -1.3839 C.ar    1  LIG1       -0.1010
      5 C           0.0590    2.5993   -0.5582 C.ar    1  LIG1       -0.1021
      6 C           3.2706    6.5919   -2.6157 C.ar    1  LIG1       -0.0551
      7 C           2.2126    7.4949   -2.7184 C.ar    1  LIG1       -0.0695
      8 C           0.9903    6.2535   -1.0445 C.ar    1  LIG1       -0.0611
      9 C           1.4106    2.9299   -0.6561 C.ar    1  LIG1       -0.0973
     10 C           2.0484    5.3503   -0.9418 C.ar    1  LIG1       -0.0457
     11 C           3.1885    5.5194   -1.7273 C.ar    1  LIG1       -0.0176
     12 C           1.0724    7.3258   -1.9329 C.ar    1  LIG1       -0.0172
     13 C           1.9601    5.5029    2.1578 C.2     1  LIG1        0.0858
     14 C           1.8079    4.2574    6.1761 C.3     1  LIG1       -0.0632
     15 C           3.0943    4.6414    5.4468 C.3     1  LIG1       -0.0500
     16 C           0.6903    3.9420    5.1829 C.3     1  LIG1       -0.0495
     17 C           2.8483    5.7721    4.4515 C.3     1  LIG1       -0.0269
     18 C           0.4897    5.0858    4.1911 C.3     1  LIG1       -0.0258
     19 C           1.1596    4.5481    1.3087 C.3     1  LIG1        0.0648
     20 C           1.9403    4.1827    0.0330 C.3     1  LIG1        0.0145
     21 N           1.7564    5.4351    3.5356 N.am    1  LIG1       -0.3676
     22 O           2.7439    6.2834    1.6115 O.2     1  LIG1       -0.4819
     23 O           4.2307    4.6463   -1.6394 O.3     1  LIG1       -0.4259
     24 CL         -0.2331    8.4395   -2.0591 Cl      1  LIG1       -0.1488
     25 H           0.0625   -0.2540   -2.4077 H       1  LIG1        0.1135
     26 H           2.4665    0.3338   -2.5814 H       1  LIG1        0.1155
     27 H          -1.4787    1.1969   -1.1127 H       1  LIG1        0.1153
     28 H           3.3318    2.3637   -1.4654 H       1  LIG1        0.1178
     29 H          -0.6234    3.2288    0.0067 H       1  LIG1        0.1148
     30 H           4.1563    6.7289   -3.2300 H       1  LIG1        0.1346
     31 H           2.2897    8.3252   -3.4156 H       1  LIG1        0.1342
     32 H           0.1033    6.1171   -0.4298 H       1  LIG1        0.1341
     33 H           1.9896    3.3898    6.8199 H       1  LIG1        0.0433
     34 H           1.4962    5.0826    6.8280 H       1  LIG1        0.0421
     35 H           3.8582    4.9423    6.1721 H       1  LIG1        0.0497
     36 H           3.4797    3.7639    4.9128 H       1  LIG1        0.0558
     37 H           0.9454    3.0264    4.6347 H       1  LIG1        0.0493
     38 H          -0.2430    3.7489    5.7228 H       1  LIG1        0.0556
     39 H           2.5616    6.6903    4.9776 H       1  LIG1        0.0958
     40 H           3.7694    5.9855    3.9001 H       1  LIG1        0.1060
     41 H          -0.2814    4.8077    3.4707 H       1  LIG1        0.1132
     42 H           0.1378    5.9843    4.7122 H       1  LIG1        0.0936
     43 H           0.2301    5.0652    1.0573 H       1  LIG1        0.1066
     44 H           0.9179    3.6856    1.9312 H       1  LIG1        0.1020
     45 H           2.9602    3.9417    0.3711 H       1  LIG1        0.1134
     46 H           4.9384    4.9070   -2.2493 H       1  LIG1        0.3572
@<TRIPOS>BOND
     1     1     2   ar
     2     1     3   ar
     3     2     4   ar
     4     3     5   ar
     5     4     9   ar
     6     5     9   ar
     7     6     7   ar
     8     6    11   ar
     9     7    12   ar
    10     8    10   ar
    11     8    12   ar
    12     9    20    1
    13    10    11   ar
    14    10    20    1
    15    11    23    1
    16    12    24    1
    17    13    19    1
    18    13    21   am
    19    13    22    2
    20    14    15    1
    21    14    16    1
    22    15    17    1
    23    16    18    1
    24    17    21    1
    25    18    21    1
    26    19    20    1
    27     1    25    1
    28     2    26    1
    29     3    27    1
    30     4    28    1
    31     5    29    1
    32     6    30    1
    33     7    31    1
    34     8    32    1
    35    14    33    1
    36    14    34    1
    37    15    35    1
    38    15    36    1
    39    16    37    1
    40    16    38    1
    41    17    39    1
    42    17    40    1
    43    18    41    1
    44    18    42    1
    45    19    43    1
    46    19    44    1
    47    20    45    1
    48    23    46    1
