@<TRIPOS>MOLECULE
AF-399/15284015
 47 50 0 0 0
SMALL
USER_CHARGES

@<TRIPOS>ATOM
      1 C           0.0854    0.6174   -1.5676 C.ar    1  LIG1       -0.1077
      2 C           1.4404    0.3851   -1.3315 C.ar    1  LIG1       -0.1024
      3 C          -0.4593    1.8776   -1.3212 C.ar    1  LIG1       -0.1057
      4 C           2.2506    1.4130   -0.8490 C.ar    1  LIG1       -0.0879
      5 C           0.3507    2.9055   -0.8387 C.ar    1  LIG1       -0.0932
      6 C           0.7072    5.0536    4.2688 C.ar    1  LIG1       -0.0808
      7 C           1.5194    7.4369   -0.3500 C.ar    1  LIG1       -0.0635
      8 C           0.8620    5.0400    5.6549 C.ar    1  LIG1       -0.0693
      9 C           1.8715    7.7356   -1.6671 C.ar    1  LIG1       -0.0715
     10 C           2.6790    5.4830   -1.9632 C.ar    1  LIG1       -0.0607
     11 C           2.9577    3.8633    5.4092 C.ar    1  LIG1       -0.0245
     12 C           1.7058    2.6732   -0.6026 C.ar    1  LIG1       -0.0620
     13 C           1.6775    4.4720    3.4529 C.ar    1  LIG1       -0.0097
     14 C           2.3278    5.1763   -0.6399 C.ar    1  LIG1       -0.0292
     15 C           1.7284    6.1544    0.1737 C.ar    1  LIG1       -0.0632
     16 C           1.9872    4.4449    6.2252 C.ar    1  LIG1       -0.0140
     17 C           2.8028    3.8769    4.0230 C.ar    1  LIG1        0.0101
     18 C           2.4482    6.7587   -2.4739 C.ar    1  LIG1       -0.0190
     19 C           2.5873    3.7928   -0.0770 C.3     1  LIG1        0.0621
     20 C           1.4932    4.4971    1.9521 C.3     1  LIG1        0.0618
     21 C           3.3117    3.8060    8.0943 C.3     1  LIG1        0.0257
     22 C           4.8768    2.7189    3.9065 C.3     1  LIG1        0.0288
     23 N           1.4015    5.8714    1.4928 N.pl3   1  LIG1       -0.3761
     24 O           2.5921    3.7892    1.3605 O.3     1  LIG1       -0.4004
     25 O           2.1376    4.4310    7.5777 O.3     1  LIG1       -0.4150
     26 O           3.7599    3.3045    3.2404 O.3     1  LIG1       -0.4066
     27 CL          2.8824    7.1283   -4.0974 Cl      1  LIG1       -0.1584
     28 H          -0.5449   -0.1827   -1.9446 H       1  LIG1        0.1149
     29 H           1.8650   -0.5958   -1.5243 H       1  LIG1        0.1154
     30 H          -1.5141    2.0591   -1.5059 H       1  LIG1        0.1158
     31 H           3.3052    1.2227   -0.6678 H       1  LIG1        0.1261
     32 H          -0.0825    3.8841   -0.6495 H       1  LIG1        0.1177
     33 H          -0.1728    5.5204    3.8335 H       1  LIG1        0.1443
     34 H           1.0748    8.2149    0.2666 H       1  LIG1        0.1247
     35 H           0.1030    5.4950    6.2855 H       1  LIG1        0.1059
     36 H           1.6912    8.7375   -2.0485 H       1  LIG1        0.1388
     37 H           3.1374    4.7193   -2.5879 H       1  LIG1        0.1422
     38 H           3.8342    3.3987    5.8542 H       1  LIG1        0.1227
     39 H           3.6393    3.5081   -0.3505 H       1  LIG1        0.1408
     40 H           0.5539    3.9627    1.7242 H       1  LIG1        0.2167
     41 H           3.3067    3.8651    9.1854 H       1  LIG1        0.1231
     42 H           4.1975    4.3068    7.6958 H       1  LIG1        0.0909
     43 H           3.3199    2.7572    7.7884 H       1  LIG1        0.0907
     44 H           5.5635    2.2990    3.1675 H       1  LIG1        0.1244
     45 H           4.5284    1.9345    4.5831 H       1  LIG1        0.0913
     46 H           5.3923    3.4914    4.4821 H       1  LIG1        0.0911
     47 H           0.8560    6.5449    2.0182 H       1  LIG1        0.2950
@<TRIPOS>BOND
     1     1     2   ar
     2     1     3   ar
     3     2     4   ar
     4     3     5   ar
     5     4    12   ar
     6     5    12   ar
     7     6     8   ar
     8     6    13   ar
     9     7     9   ar
    10     7    15   ar
    11     8    16   ar
    12     9    18   ar
    13    10    14   ar
    14    10    18   ar
    15    11    16   ar
    16    11    17   ar
    17    12    19    1
    18    13    17   ar
    19    13    20    1
    20    14    15   ar
    21    14    19    1
    22    15    23    1
    23    16    25    1
    24    17    26    1
    25    18    27    1
    26    19    24    1
    27    20    23    1
    28    20    24    1
    29    21    25    1
    30    22    26    1
    31     1    28    1
    32     2    29    1
    33     3    30    1
    34     4    31    1
    35     5    32    1
    36     6    33    1
    37     7    34    1
    38     8    35    1
    39     9    36    1
    40    10    37    1
    41    11    38    1
    42    19    39    1
    43    20    40    1
    44    21    41    1
    45    21    42    1
    46    21    43    1
    47    22    44    1
    48    22    45    1
    49    22    46    1
    50    23    47    1
