@<TRIPOS>MOLECULE
AG-205/37204007
 39 41 0 0 0
SMALL
USER_CHARGES

@<TRIPOS>ATOM
      1 C           2.4010    4.3096    5.9343 C.ar    1  LIG1       -0.0950
      2 C           2.9187    4.4090    4.6430 C.ar    1  LIG1       -0.0696
      3 C           1.3077    6.0575   -0.5044 C.ar    1  LIG1       -0.0731
      4 C           3.1247    5.5230   -2.0043 C.ar    1  LIG1       -0.0768
      5 C           1.0368    4.4993    6.1554 C.ar    1  LIG1       -0.0751
      6 C           1.0922    7.2522   -1.1912 C.ar    1  LIG1       -0.0424
      7 C           2.9091    6.7177   -2.6913 C.ar    1  LIG1       -0.0436
      8 C           0.7081    4.8883    3.7937 C.ar    1  LIG1       -0.0415
      9 C           2.0723    4.6985    3.5727 C.ar    1  LIG1        0.0405
     10 C           2.3241    5.1929   -0.9109 C.ar    1  LIG1       -0.0426
     11 C           0.1904    4.7887    5.0851 C.ar    1  LIG1       -0.0926
     12 C           1.8928    7.5823   -2.2846 C.ar    1  LIG1        0.0663
     13 C           1.0723    2.2316    0.4894 C.2     1  LIG1        0.1446
     14 C           2.6199    4.8035    2.2061 C.2     1  LIG1        0.1736
     15 C           1.7354    2.7440   -0.7537 C.3     1  LIG1        0.0805
     16 C           2.5591    3.8901   -0.1632 C.3     1  LIG1        0.0833
     17 C           0.1953    1.0253    0.4479 C.3     1  LIG1        0.4012
     18 N           1.2881    2.9051    1.5739 N.2     1  LIG1       -0.2720
     19 N           2.1283    3.9310    1.2444 N.am    1  LIG1       -0.2160
     20 N          -1.1886    4.9806    5.3088 N.pl3   1  LIG1       -0.4244
     21 O           3.4815    5.6578    2.0057 O.2     1  LIG1       -0.4386
     22 O           3.9360    3.5151   -0.1750 O.3     1  LIG1       -0.4378
     23 F           1.6841    8.7283   -2.9460 F       1  LIG1       -0.2648
     24 F           0.1148    0.5235   -0.8033 F       1  LIG1       -0.1604
     25 F           0.6688    0.0480    1.2509 F       1  LIG1       -0.1607
     26 F          -1.0598    1.3153    0.8538 F       1  LIG1       -0.1603
     27 H           3.0599    4.0834    6.7674 H       1  LIG1        0.1272
     28 H           3.9832    4.2588    4.4825 H       1  LIG1        0.1447
     29 H           0.6793    5.8093    0.3469 H       1  LIG1        0.1461
     30 H           3.9187    4.8553   -2.3285 H       1  LIG1        0.1316
     31 H           0.6442    4.4192    7.1658 H       1  LIG1        0.1200
     32 H           0.3006    7.9250   -0.8753 H       1  LIG1        0.1362
     33 H           3.5325    6.9752   -3.5423 H       1  LIG1        0.1344
     34 H           0.0477    5.1140    2.9587 H       1  LIG1        0.1339
     35 H           2.3440    1.9567   -1.2077 H       1  LIG1        0.1352
     36 H           0.9560    3.0682   -1.4509 H       1  LIG1        0.1319
     37 H          -1.5548    4.8600    6.2316 H       1  LIG1        0.2503
     38 H          -1.7919    5.1407    4.5274 H       1  LIG1        0.2507
     39 H           4.4272    4.2335    0.2565 H       1  LIG1        0.3547
@<TRIPOS>BOND
     1     1     2   ar
     2     1     5   ar
     3     2     9   ar
     4     3     6   ar
     5     3    10   ar
     6     4     7   ar
     7     4    10   ar
     8     5    11   ar
     9     6    12   ar
    10     7    12   ar
    11     8     9   ar
    12     8    11   ar
    13     9    14    1
    14    10    16    1
    15    11    20    1
    16    12    23    1
    17    13    15    1
    18    13    17    1
    19    13    18    2
    20    14    19   am
    21    14    21    2
    22    15    16    1
    23    16    19    1
    24    16    22    1
    25    17    24    1
    26    17    25    1
    27    17    26    1
    28    18    19    1
    29     1    27    1
    30     2    28    1
    31     3    29    1
    32     4    30    1
    33     5    31    1
    34     6    32    1
    35     7    33    1
    36     8    34    1
    37    15    35    1
    38    15    36    1
    39    20    37    1
    40    20    38    1
    41    22    39    1
