@<TRIPOS>MOLECULE
AG-690/37071291
 40 42 0 0 0
SMALL
USER_CHARGES

@<TRIPOS>ATOM
      1 C           0.9765    4.8634    3.9086 C.ar    1  LIG1       -0.0663
      2 C           3.2261    4.3607    4.6323 C.ar    1  LIG1       -0.0660
      3 C           1.3533    6.0543   -0.4101 C.ar    1  LIG1       -0.0779
      4 C           3.0819    5.5139   -2.0090 C.ar    1  LIG1       -0.0733
      5 C           0.5297    4.7606    5.2259 C.ar    1  LIG1       -0.0966
      6 C           2.7793    4.2580    5.9496 C.ar    1  LIG1       -0.0932
      7 C           1.1115    7.2550   -1.0774 C.ar    1  LIG1       -0.0438
      8 C           2.8400    6.7146   -2.6764 C.ar    1  LIG1       -0.0419
      9 C           2.3247    4.6634    3.6118 C.ar    1  LIG1        0.0374
     10 C           2.3386    5.1837   -0.8760 C.ar    1  LIG1       -0.0438
     11 C           1.4311    4.4579    6.2464 C.ar    1  LIG1       -0.1132
     12 C           1.8548    7.5852   -2.2105 C.ar    1  LIG1        0.0668
     13 C           1.1383    2.2244    0.5727 C.2     1  LIG1        0.1443
     14 C           2.7987    4.7724    2.2182 C.2     1  LIG1        0.1681
     15 C           1.7379    2.7390   -0.7014 C.3     1  LIG1        0.0807
     16 C           2.6022    3.8743   -0.1496 C.3     1  LIG1        0.0824
     17 C           0.9529    4.3492    7.6551 C.3     1  LIG1       -0.0392
     18 C           0.2498    1.0258    0.5717 C.3     1  LIG1        0.4016
     19 N           1.4182    2.8892    1.6478 N.2     1  LIG1       -0.2738
     20 N           2.2484    3.9101    1.2795 N.am    1  LIG1       -0.2186
     21 O           3.6557    5.6206    1.9765 O.2     1  LIG1       -0.4419
     22 O           3.9731    3.4878   -0.2378 O.3     1  LIG1       -0.4379
     23 F           1.6208    8.7370   -2.8530 F       1  LIG1       -0.2643
     24 F           0.0975    0.5326   -0.6763 F       1  LIG1       -0.1604
     25 F           0.7573    0.0395    1.3423 F       1  LIG1       -0.1601
     26 F          -0.9790    1.3239    1.0464 F       1  LIG1       -0.1599
     27 H           0.2660    5.0997    3.1207 H       1  LIG1        0.1585
     28 H           4.2787    4.2027    4.4128 H       1  LIG1        0.1422
     29 H           0.7695    5.8061    0.4724 H       1  LIG1        0.1310
     30 H           3.8514    4.8416   -2.3795 H       1  LIG1        0.1464
     31 H          -0.5223    4.9183    5.4481 H       1  LIG1        0.1203
     32 H           3.4886    4.0222    6.7387 H       1  LIG1        0.1217
     33 H           0.3440    7.9325   -0.7153 H       1  LIG1        0.1348
     34 H           3.4189    6.9723   -3.5584 H       1  LIG1        0.1371
     35 H           2.3141    1.9494   -1.1921 H       1  LIG1        0.1326
     36 H           0.9249    3.0741   -1.3536 H       1  LIG1        0.1356
     37 H           0.6506    3.3185    7.8772 H       1  LIG1        0.0612
     38 H           1.7366    4.6427    8.3655 H       1  LIG1        0.0565
     39 H           0.0956    5.0103    7.8369 H       1  LIG1        0.0569
     40 H           4.4931    4.1993    0.1706 H       1  LIG1        0.3561
@<TRIPOS>BOND
     1     1     5   ar
     2     1     9   ar
     3     2     6   ar
     4     2     9   ar
     5     3     7   ar
     6     3    10   ar
     7     4     8   ar
     8     4    10   ar
     9     5    11   ar
    10     6    11   ar
    11     7    12   ar
    12     8    12   ar
    13     9    14    1
    14    10    16    1
    15    11    17    1
    16    12    23    1
    17    13    15    1
    18    13    18    1
    19    13    19    2
    20    14    20   am
    21    14    21    2
    22    15    16    1
    23    16    20    1
    24    16    22    1
    25    18    24    1
    26    18    25    1
    27    18    26    1
    28    19    20    1
    29     1    27    1
    30     2    28    1
    31     3    29    1
    32     4    30    1
    33     5    31    1
    34     6    32    1
    35     7    33    1
    36     8    34    1
    37    15    35    1
    38    15    36    1
    39    17    37    1
    40    17    38    1
    41    17    39    1
    42    22    40    1
