@<TRIPOS>MOLECULE
AG-205/36264039
 40 43 0 0 0
SMALL
USER_CHARGES

@<TRIPOS>ATOM
      1 C           1.6951    4.4327    6.1928 C.ar    1  LIG1       -0.1073
      2 C           0.0042    0.9386   -1.7474 C.ar    1  LIG1       -0.1120
      3 C           0.5822    4.5015    5.3549 C.ar    1  LIG1       -0.1040
      4 C           2.9793    4.5213    5.6556 C.ar    1  LIG1       -0.1038
      5 C           1.3290    0.5453   -1.5580 C.ar    1  LIG1       -0.1096
      6 C          -0.3797    2.2512   -1.4733 C.ar    1  LIG1       -0.1092
      7 C           0.7534    4.6587    3.9795 C.ar    1  LIG1       -0.0933
      8 C           3.1506    4.6786    4.2802 C.ar    1  LIG1       -0.0933
      9 C           2.2699    1.4648   -1.0944 C.ar    1  LIG1       -0.1005
     10 C           0.5613    3.1707   -1.0098 C.ar    1  LIG1       -0.1012
     11 C           2.0376    4.7473    3.4422 C.ar    1  LIG1       -0.0815
     12 C           1.8861    2.7775   -0.8204 C.ar    1  LIG1       -0.0977
     13 C           2.4678    5.0922   -0.8588 C.ar    1  LIG1       -0.0532
     14 C           1.9206    6.0516   -0.0440 C.ar    1  LIG1       -0.0420
     15 C           2.4751    5.6891   -2.1332 C.ar    1  LIG1       -0.0367
     16 C           1.7039    5.9906    1.3423 C.2     1  LIG1       -0.0544
     17 C           2.2204    4.9145    1.9794 C.2     1  LIG1       -0.0777
     18 C           3.0519    3.8441    1.2441 C.3     1  LIG1       -0.0140
     19 C           2.9101    3.7791   -0.3153 C.3     1  LIG1       -0.0118
     20 C           2.9707    5.1171   -3.3967 C.3     1  LIG1       -0.0068
     21 N           1.9507    6.9220   -2.1247 N.ar    1  LIG1       -0.3598
     22 N           1.6142    7.1141   -0.8319 N.ar    1  LIG1       -0.3160
     23 H           1.5618    4.3115    7.2638 H       1  LIG1        0.1152
     24 H          -0.7281    0.2229   -2.1096 H       1  LIG1        0.1097
     25 H          -0.4179    4.4337    5.7731 H       1  LIG1        0.1167
     26 H           3.8459    4.4690    6.3080 H       1  LIG1        0.1166
     27 H           1.6283   -0.4765   -1.7723 H       1  LIG1        0.1096
     28 H          -1.4108    2.5581   -1.6217 H       1  LIG1        0.1124
     29 H          -0.1238    4.7106    3.3390 H       1  LIG1        0.1221
     30 H           4.1580    4.7461    3.8764 H       1  LIG1        0.1214
     31 H           3.2999    1.1495   -0.9496 H       1  LIG1        0.1185
     32 H           0.2531    4.1914   -0.7988 H       1  LIG1        0.1159
     33 H           1.1477    6.7663    1.8576 H       1  LIG1        0.1392
     34 H           4.1047    4.0649    1.4717 H       1  LIG1        0.0834
     35 H           2.8440    2.8547    1.6732 H       1  LIG1        0.0813
     36 H           3.9057    3.4944   -0.7637 H       1  LIG1        0.1045
     37 H           2.1735    4.5704   -3.9288 H       1  LIG1        0.0788
     38 H           3.3569    5.8924   -4.0823 H       1  LIG1        0.0784
     39 H           3.8066    4.4128   -3.2360 H       1  LIG1        0.0756
     40 H           1.1922    7.9971   -0.5706 H       1  LIG1        0.3863
@<TRIPOS>BOND
     1     1     3   ar
     2     1     4   ar
     3     2     5   ar
     4     2     6   ar
     5     3     7   ar
     6     4     8   ar
     7     5     9   ar
     8     6    10   ar
     9     7    11   ar
    10     8    11   ar
    11     9    12   ar
    12    10    12   ar
    13    11    17    1
    14    12    19    1
    15    13    14   ar
    16    13    15   ar
    17    13    19    1
    18    14    16    1
    19    14    22   ar
    20    15    20    1
    21    15    21   ar
    22    16    17    2
    23    17    18    1
    24    18    19    1
    25    21    22   ar
    26     1    23    1
    27     2    24    1
    28     3    25    1
    29     4    26    1
    30     5    27    1
    31     6    28    1
    32     7    29    1
    33     8    30    1
    34     9    31    1
    35    10    32    1
    36    16    33    1
    37    18    34    1
    38    18    35    1
    39    19    36    1
    40    20    37    1
    41    20    38    1
    42    20    39    1
    43    22    40    1
