@<TRIPOS>MOLECULE
AO-476/40456541
 32 33 0 0 0
SMALL
USER_CHARGES

@<TRIPOS>ATOM
      1 C           1.3134    4.4387    6.6434 C.ar    1  LIG1       -0.1052
      2 C           0.4626    4.4513    5.5381 C.ar    1  LIG1       -0.1029
      3 C           2.6944    4.3685    6.4599 C.ar    1  LIG1       -0.1018
      4 C           0.8802    6.8867   -1.8167 C.ar    1  LIG1       -0.0978
      5 C           0.9929    4.3934    4.2492 C.ar    1  LIG1       -0.0947
      6 C           3.2246    4.3108    5.1710 C.ar    1  LIG1       -0.0933
      7 C           1.2550    5.9900   -0.8162 C.ar    1  LIG1       -0.0802
      8 C           1.7999    7.2641   -2.7952 C.ar    1  LIG1       -0.0684
      9 C           3.4692    5.8483   -1.7725 C.ar    1  LIG1       -0.0332
     10 C           2.3738    4.3232    4.0657 C.ar    1  LIG1       -0.0828
     11 C           2.5494    5.4708   -0.7940 C.ar    1  LIG1        0.0034
     12 C           3.0944    6.7449   -2.7731 C.ar    1  LIG1       -0.0076
     13 C           2.9273    4.2628    2.7218 C.2     1  LIG1       -0.0706
     14 C           2.2828    4.6434    1.5959 C.2     1  LIG1       -0.0107
     15 C           2.9483    4.5174    0.2693 C.2     1  LIG1        0.0906
     16 C           5.2977    6.5440   -3.6452 C.3     1  LIG1        0.0232
     17 O           3.7804    3.6502    0.0272 O.2     1  LIG1       -0.4579
     18 O           3.9919    7.1129   -3.7277 O.3     1  LIG1       -0.4185
     19 H           0.9007    4.4850    7.6469 H       1  LIG1        0.1197
     20 H          -0.6127    4.5071    5.6808 H       1  LIG1        0.1180
     21 H           3.3570    4.3599    7.3203 H       1  LIG1        0.1186
     22 H          -0.1276    7.2908   -1.8338 H       1  LIG1        0.1277
     23 H           0.3169    4.4040    3.3975 H       1  LIG1        0.1251
     24 H           4.3033    4.2563    5.0443 H       1  LIG1        0.1274
     25 H           0.5304    5.7018   -0.0592 H       1  LIG1        0.1271
     26 H           1.5020    7.9629   -3.5721 H       1  LIG1        0.1194
     27 H           4.4796    5.4458   -1.7602 H       1  LIG1        0.1479
     28 H           3.9426    3.8596    2.6371 H       1  LIG1        0.1509
     29 H           1.2678    5.0213    1.6314 H       1  LIG1        0.1259
     30 H           5.9129    6.9211   -4.4659 H       1  LIG1        0.0893
     31 H           5.2258    5.4548   -3.7004 H       1  LIG1        0.0893
     32 H           5.7504    6.8295   -2.6927 H       1  LIG1        0.1227
@<TRIPOS>BOND
     1     1     2   ar
     2     1     3   ar
     3     2     5   ar
     4     3     6   ar
     5     4     7   ar
     6     4     8   ar
     7     5    10   ar
     8     6    10   ar
     9     7    11   ar
    10     8    12   ar
    11     9    11   ar
    12     9    12   ar
    13    10    13    1
    14    11    15    1
    15    12    18    1
    16    13    14    2
    17    14    15    1
    18    15    17    2
    19    16    18    1
    20     1    19    1
    21     2    20    1
    22     3    21    1
    23     4    22    1
    24     5    23    1
    25     6    24    1
    26     7    25    1
    27     8    26    1
    28     9    27    1
    29    13    28    1
    30    14    29    1
    31    16    30    1
    32    16    31    1
    33    16    32    1
