@<TRIPOS>MOLECULE
AJ-091/33281009
 40 43 0 0 0
SMALL
USER_CHARGES

@<TRIPOS>ATOM
      1 C           0.4413    1.2236   -2.4906 C.ar    1  LIG1       -0.1048
      2 C          -0.2207    2.2582   -1.8299 C.ar    1  LIG1       -0.1023
      3 C           1.5553    0.6222   -1.9051 C.ar    1  LIG1       -0.1024
      4 C           2.4552    5.3380    5.8075 C.ar    1  LIG1       -0.0853
      5 C           1.8905    4.0988    6.0903 C.ar    1  LIG1       -0.0939
      6 C           3.3804    6.0565   -0.8613 C.ar    1  LIG1       -0.0628
      7 C           0.9727    6.1659   -0.6936 C.ar    1  LIG1       -0.0687
      8 C           0.2314    2.6917   -0.5836 C.ar    1  LIG1       -0.0970
      9 C           2.0076    1.0556   -0.6588 C.ar    1  LIG1       -0.0968
     10 C           2.4119    5.8423    4.5078 C.ar    1  LIG1       -0.0523
     11 C           1.2830    3.3622    5.0742 C.ar    1  LIG1       -0.0823
     12 C           3.3241    6.7064   -2.0942 C.ar    1  LIG1       -0.0656
     13 C           0.9164    6.8158   -1.9265 C.ar    1  LIG1       -0.0693
     14 C           2.2048    5.7863   -0.1610 C.ar    1  LIG1       -0.0221
     15 C           1.3456    2.0903    0.0020 C.ar    1  LIG1       -0.0937
     16 C           1.8162    5.1108    3.4698 C.ar    1  LIG1       -0.0324
     17 C           1.2460    3.8569    3.7629 C.ar    1  LIG1       -0.0293
     18 C           2.0920    7.0861   -2.6268 C.ar    1  LIG1       -0.0149
     19 C           2.2646    5.0923    1.1560 C.2     1  LIG1       -0.0210
     20 C           2.8772    3.6953    1.2256 C.3     1  LIG1        0.0270
     21 C           1.8396    2.5631    1.3619 C.3     1  LIG1        0.0156
     22 N           1.7747    5.7057    2.1936 N.2     1  LIG1       -0.4013
     23 S           0.4313    2.8758    2.5126 S.3     1  LIG1       -0.1831
     24 CL          2.0227    7.8891   -4.1470 Cl      1  LIG1       -0.1415
     25 H           0.0883    0.8853   -3.4605 H       1  LIG1        0.1185
     26 H          -1.0888    2.7260   -2.2851 H       1  LIG1        0.1191
     27 H           2.0704   -0.1843   -2.4188 H       1  LIG1        0.1191
     28 H           2.9346    5.9104    6.5961 H       1  LIG1        0.1267
     29 H           1.9269    3.7026    7.1008 H       1  LIG1        0.1293
     30 H           4.3457    5.7646   -0.4558 H       1  LIG1        0.1496
     31 H           0.0503    5.9605   -0.1564 H       1  LIG1        0.1399
     32 H          -0.2904    3.4988   -0.0761 H       1  LIG1        0.1214
     33 H           2.8764    0.5813   -0.2103 H       1  LIG1        0.1229
     34 H           2.8493    6.8176    4.3060 H       1  LIG1        0.1435
     35 H           0.8381    2.4013    5.3219 H       1  LIG1        0.1286
     36 H           4.2480    6.9112   -2.6289 H       1  LIG1        0.1332
     37 H          -0.0509    7.1055   -2.3292 H       1  LIG1        0.1337
     38 H           3.5432    3.5426    0.3543 H       1  LIG1        0.0981
     39 H           3.5632    3.6567    2.0941 H       1  LIG1        0.0961
     40 H           2.3767    1.6766    1.8067 H       1  LIG1        0.1000
@<TRIPOS>BOND
     1     1     2   ar
     2     1     3   ar
     3     2     8   ar
     4     3     9   ar
     5     4     5   ar
     6     4    10   ar
     7     5    11   ar
     8     6    12   ar
     9     6    14   ar
    10     7    13   ar
    11     7    14   ar
    12     8    15   ar
    13     9    15   ar
    14    10    16   ar
    15    11    17   ar
    16    12    18   ar
    17    13    18   ar
    18    14    19    1
    19    15    21    1
    20    16    17   ar
    21    16    22    1
    22    17    23    1
    23    18    24    1
    24    19    20    1
    25    19    22    2
    26    20    21    1
    27    21    23    1
    28     1    25    1
    29     2    26    1
    30     3    27    1
    31     4    28    1
    32     5    29    1
    33     6    30    1
    34     7    31    1
    35     8    32    1
    36     9    33    1
    37    10    34    1
    38    11    35    1
    39    12    36    1
    40    13    37    1
    41    20    38    1
    42    20    39    1
    43    21    40    1
