@<TRIPOS>MOLECULE
AN-329/14724227
 39 41 0 0 0
SMALL
USER_CHARGES

@<TRIPOS>ATOM
      1 C           0.3475    0.5964   -2.0383 C.ar    1  LIG1       -0.1076
      2 C           2.1771    7.5753   -2.4585 C.ar    1  LIG1       -0.1055
      3 C           1.6769    0.9488   -2.2710 C.ar    1  LIG1       -0.1061
      4 C          -0.4293    1.3481   -1.1566 C.ar    1  LIG1       -0.1021
      5 C           3.1448    6.5852   -2.6276 C.ar    1  LIG1       -0.1042
      6 C           1.1664    7.4083   -1.5117 C.ar    1  LIG1       -0.1041
      7 C           2.2295    2.0529   -1.6219 C.ar    1  LIG1       -0.0974
      8 C           0.1234    2.4521   -0.5076 C.ar    1  LIG1       -0.0920
      9 C           3.1019    5.4279   -1.8501 C.ar    1  LIG1       -0.0992
     10 C           1.1236    6.2511   -0.7341 C.ar    1  LIG1       -0.0985
     11 C           3.1785    4.1418    4.6629 C.ar    1  LIG1       -0.0478
     12 C           2.9614    4.3112    6.0303 C.ar    1  LIG1       -0.0620
     13 C           0.8512    4.6276    4.2332 C.ar    1  LIG1       -0.0311
     14 C           1.4528    2.8046   -0.7402 C.ar    1  LIG1       -0.0686
     15 C           2.0913    5.2608   -0.9032 C.ar    1  LIG1       -0.0750
     16 C           2.1234    4.3001    3.7643 C.ar    1  LIG1       -0.0372
     17 C           0.6341    4.7970    5.6006 C.ar    1  LIG1        0.0152
     18 C           1.6892    4.6388    6.4992 C.ar    1  LIG1       -0.0092
     19 C           1.4168    4.2549    1.3451 C.2     1  LIG1        0.1141
     20 C           2.0432    3.9850   -0.0457 C.3     1  LIG1        0.0881
     21 N           2.3447    4.1263    2.3774 N.am    1  LIG1       -0.3032
     22 O           0.2274    4.5384    1.4580 O.2     1  LIG1       -0.4631
     23 CL         -0.9676    5.2019    6.1110 Cl      1  LIG1       -0.1164
     24 BR          1.4759    4.8527    8.3754 Br      1  LIG1       -0.0970
     25 H          -0.0831   -0.2625   -2.5447 H       1  LIG1        0.1151
     26 H           2.2114    8.4769   -3.0631 H       1  LIG1        0.1177
     27 H           2.2815    0.3643   -2.9582 H       1  LIG1        0.1147
     28 H          -1.4647    1.0746   -0.9761 H       1  LIG1        0.1151
     29 H           3.9324    6.7154   -3.3640 H       1  LIG1        0.1179
     30 H           0.4135    8.1795   -1.3789 H       1  LIG1        0.1186
     31 H           3.2663    2.3199   -1.8091 H       1  LIG1        0.1184
     32 H          -0.4894    3.0319    0.1777 H       1  LIG1        0.1240
     33 H           3.8600    4.6616   -1.9888 H       1  LIG1        0.1179
     34 H           0.3324    6.1296    0.0010 H       1  LIG1        0.1213
     35 H           4.1738    3.8859    4.3080 H       1  LIG1        0.1560
     36 H           3.7974    4.1833    6.7132 H       1  LIG1        0.1512
     37 H           0.0330    4.7498    3.5262 H       1  LIG1        0.1460
     38 H           3.1074    3.7613    0.1835 H       1  LIG1        0.1466
     39 H           3.2997    3.8873    2.1191 H       1  LIG1        0.3290
@<TRIPOS>BOND
     1     1     3   ar
     2     1     4   ar
     3     2     5   ar
     4     2     6   ar
     5     3     7   ar
     6     4     8   ar
     7     5     9   ar
     8     6    10   ar
     9     7    14   ar
    10     8    14   ar
    11     9    15   ar
    12    10    15   ar
    13    11    12   ar
    14    11    16   ar
    15    12    18   ar
    16    13    16   ar
    17    13    17   ar
    18    14    20    1
    19    15    20    1
    20    16    21    1
    21    17    18   ar
    22    17    23    1
    23    18    24    1
    24    19    20    1
    25    19    21   am
    26    19    22    2
    27     1    25    1
    28     2    26    1
    29     3    27    1
    30     4    28    1
    31     5    29    1
    32     6    30    1
    33     7    31    1
    34     8    32    1
    35     9    33    1
    36    10    34    1
    37    11    35    1
    38    12    36    1
    39    13    37    1
    40    20    38    1
    41    21    39    1
