@<TRIPOS>MOLECULE
AG-690/36660046
 42 44 0 0 0
SMALL
USER_CHARGES

@<TRIPOS>ATOM
      1 C           2.0242    7.5319   -2.6081 C.ar    1  LIG1       -0.1039
      2 C           0.9309    4.7280    5.5849 C.ar    1  LIG1       -0.0721
      3 C           0.9001    6.9435   -2.0287 C.ar    1  LIG1       -0.1003
      4 C           3.2874    6.9788   -2.3979 C.ar    1  LIG1       -0.1029
      5 C           1.9778    4.0930    6.2528 C.ar    1  LIG1       -0.0712
      6 C           1.0597    5.0516    4.2342 C.ar    1  LIG1       -0.0372
      7 C           1.0390    5.8022   -1.2389 C.ar    1  LIG1       -0.0870
      8 C           3.4264    5.8375   -1.6082 C.ar    1  LIG1       -0.0921
      9 C           3.1537    3.7815    5.5701 C.ar    1  LIG1       -0.0357
     10 C           2.2355    4.7402    3.5514 C.ar    1  LIG1        0.0980
     11 C           2.3023    5.2491   -1.0287 C.ar    1  LIG1       -0.0510
     12 C           3.2825    4.1051    4.2194 C.ar    1  LIG1        0.1041
     13 C           0.8934    2.4154    0.4818 C.2     1  LIG1       -0.0098
     14 C           2.3342    5.0966    2.1226 C.2     1  LIG1        0.1926
     15 C           1.6646    2.8250   -0.7368 C.3     1  LIG1        0.0548
     16 C           2.4546    4.0052   -0.1679 C.3     1  LIG1        0.0764
     17 C          -1.1015    1.3971   -0.5613 C.3     1  LIG1       -0.0497
     18 C           0.0041    1.2176    0.4585 C.3     1  LIG1       -0.0038
     19 N           1.0296    3.1678    1.5266 N.2     1  LIG1       -0.3174
     20 N           1.9100    4.1577    1.1919 N.am    1  LIG1       -0.2292
     21 N           4.4922    3.7765    3.5460 N.pl3   1  LIG1       -0.0385
     22 O           4.5884    2.6596    2.9855 O.2     1  LIG1       -0.1419
     23 O           2.7899    6.2047    1.8458 O.2     1  LIG1       -0.4228
     24 O           5.4245    4.6141    3.5335 O.2     1  LIG1       -0.2470
     25 O           3.8217    3.6177   -0.0365 O.3     1  LIG1       -0.4405
     26 H           1.9157    8.4198   -3.2241 H       1  LIG1        0.1202
     27 H           0.0151    4.9700    6.1162 H       1  LIG1        0.1521
     28 H          -0.0837    7.3734   -2.1932 H       1  LIG1        0.1210
     29 H           4.1627    7.4359   -2.8497 H       1  LIG1        0.1172
     30 H           1.8771    3.8403    7.3043 H       1  LIG1        0.1490
     31 H           0.2360    5.5458    3.7249 H       1  LIG1        0.1523
     32 H           0.1576    5.3507   -0.7913 H       1  LIG1        0.1296
     33 H           4.4146    5.4136   -1.4497 H       1  LIG1        0.1126
     34 H           3.9611    3.2870    6.1049 H       1  LIG1        0.1672
     35 H           2.2961    1.9997   -1.0777 H       1  LIG1        0.1218
     36 H           0.9505    3.1022   -1.5190 H       1  LIG1        0.1193
     37 H          -1.7064    2.2762   -0.3188 H       1  LIG1        0.0389
     38 H          -1.7597    0.5220   -0.5849 H       1  LIG1        0.0394
     39 H          -0.6910    1.5303   -1.5678 H       1  LIG1        0.0422
     40 H           0.6107    0.3395    0.2188 H       1  LIG1        0.0958
     41 H          -0.4161    1.0860    1.4598 H       1  LIG1        0.0958
     42 H           4.2868    4.3624    0.3790 H       1  LIG1        0.3538
@<TRIPOS>BOND
     1     1     3   ar
     2     1     4   ar
     3     2     5   ar
     4     2     6   ar
     5     3     7   ar
     6     4     8   ar
     7     5     9   ar
     8     6    10   ar
     9     7    11   ar
    10     8    11   ar
    11     9    12   ar
    12    10    12   ar
    13    10    14    1
    14    11    16    1
    15    12    21    1
    16    13    15    1
    17    13    18    1
    18    13    19    2
    19    14    20   am
    20    14    23    2
    21    15    16    1
    22    16    20    1
    23    16    25    1
    24    17    18    1
    25    19    20    1
    26    21    22    1
    27    21    24    2
    28     1    26    1
    29     2    27    1
    30     3    28    1
    31     4    29    1
    32     5    30    1
    33     6    31    1
    34     7    32    1
    35     8    33    1
    36     9    34    1
    37    15    35    1
    38    15    36    1
    39    17    37    1
    40    17    38    1
    41    17    39    1
    42    18    40    1
    43    18    41    1
    44    25    42    1
