@<TRIPOS>MOLECULE
AK-778/15642255
 42 44 0 0 0
SMALL
USER_CHARGES

@<TRIPOS>ATOM
      1 C           1.0801    4.4506    6.4560 C.ar    1  LIG1       -0.1009
      2 C           0.5436    4.8182    5.2221 C.ar    1  LIG1       -0.0992
      3 C           2.3994    4.0052    6.5381 C.ar    1  LIG1       -0.0963
      4 C           2.8650    7.1801   -2.2492 C.ar    1  LIG1       -0.0934
      5 C           1.5463    7.0041   -2.7007 C.ar    1  LIG1       -0.0911
      6 C           1.3264    4.7404    4.0702 C.ar    1  LIG1       -0.0846
      7 C           3.1822    3.9274    5.3862 C.ar    1  LIG1       -0.0803
      8 C           3.3702    6.4065   -1.2012 C.ar    1  LIG1       -0.0776
      9 C           0.7113    6.0517   -2.1124 C.ar    1  LIG1       -0.0629
     10 C           2.6457    4.2950    4.1523 C.ar    1  LIG1       -0.0137
     11 C           2.5369    5.4651   -0.6210 C.ar    1  LIG1       -0.0154
     12 C           1.2281    5.2945   -1.0753 C.ar    1  LIG1       -0.0301
     13 C           1.4718    3.7537    0.6363 C.2     1  LIG1        0.1523
     14 C           3.4724    4.2129    2.9356 C.2     1  LIG1        0.0865
     15 C           2.8097    4.5091    0.5044 C.3     1  LIG1        0.1298
     16 C          -0.0788    1.6004   -1.4872 C.3     1  LIG1       -0.0659
     17 C           3.1843    5.1995    1.8078 C.3     1  LIG1        0.0877
     18 C          -0.8887    2.8727   -1.6922 C.3     1  LIG1       -0.0498
     19 C          -0.7569    3.8485   -0.5290 C.3     1  LIG1       -0.0095
     20 N           0.6046    4.2852   -0.3292 N.am    1  LIG1       -0.3129
     21 O           1.2504    2.8524    1.4322 O.2     1  LIG1       -0.4348
     22 O           4.3736    3.3815    2.8086 O.2     1  LIG1       -0.4492
     23 O           3.8075    3.5836    0.1191 O.3     1  LIG1       -0.4421
     24 H           0.4706    4.5111    7.3529 H       1  LIG1        0.1265
     25 H          -0.4837    5.1647    5.1583 H       1  LIG1        0.1201
     26 H           2.8173    3.7193    7.4989 H       1  LIG1        0.1210
     27 H           3.4980    7.9265   -2.7217 H       1  LIG1        0.1208
     28 H           1.1737    7.6164   -3.5176 H       1  LIG1        0.1335
     29 H           0.8983    5.0294    3.1138 H       1  LIG1        0.1309
     30 H           4.2091    3.5789    5.4620 H       1  LIG1        0.1386
     31 H           4.3893    6.5448   -0.8569 H       1  LIG1        0.1400
     32 H          -0.3045    5.9221   -2.4684 H       1  LIG1        0.1265
     33 H           0.9851    1.8279   -1.3664 H       1  LIG1        0.0335
     34 H          -0.4178    1.0792   -0.5861 H       1  LIG1        0.0331
     35 H          -0.1911    0.9152   -2.3332 H       1  LIG1        0.0360
     36 H           2.3556    5.8484    2.1098 H       1  LIG1        0.1027
     37 H           4.0774    5.8092    1.6358 H       1  LIG1        0.1190
     38 H          -1.9443    2.6011   -1.8085 H       1  LIG1        0.0481
     39 H          -0.5729    3.3543   -2.6252 H       1  LIG1        0.0483
     40 H          -1.3551    4.7444   -0.7223 H       1  LIG1        0.1145
     41 H          -1.1062    3.4009    0.4067 H       1  LIG1        0.1123
     42 H           3.9519    2.9867    0.8736 H       1  LIG1        0.3480
@<TRIPOS>BOND
     1     1     2   ar
     2     1     3   ar
     3     2     6   ar
     4     3     7   ar
     5     4     5   ar
     6     4     8   ar
     7     5     9   ar
     8     6    10   ar
     9     7    10   ar
    10     8    11   ar
    11     9    12   ar
    12    10    14    1
    13    11    12   ar
    14    11    15    1
    15    12    20    1
    16    13    15    1
    17    13    20   am
    18    13    21    2
    19    14    17    1
    20    14    22    2
    21    15    17    1
    22    15    23    1
    23    16    18    1
    24    18    19    1
    25    19    20    1
    26     1    24    1
    27     2    25    1
    28     3    26    1
    29     4    27    1
    30     5    28    1
    31     6    29    1
    32     7    30    1
    33     8    31    1
    34     9    32    1
    35    16    33    1
    36    16    34    1
    37    16    35    1
    38    17    36    1
    39    17    37    1
    40    18    38    1
    41    18    39    1
    42    19    40    1
    43    19    41    1
    44    23    42    1
