@<TRIPOS>MOLECULE
AQ-405/42300336
 38 41 0 0 0
SMALL
USER_CHARGES

@<TRIPOS>ATOM
      1 C           1.9683    4.8540    5.7950 C.3     1  LIG1       -0.0516
      2 C           0.9781    6.8250   -2.0831 C.ar    1  LIG1       -0.0824
      3 C          -0.3247    1.8572   -1.8769 C.ar    1  LIG1       -0.0827
      4 C           1.6155    3.5163    5.7993 C.3     1  LIG1       -0.0359
      5 C           0.8395    6.1466   -0.8722 C.ar    1  LIG1       -0.0805
      6 C          -0.0884    2.6084   -0.7256 C.ar    1  LIG1       -0.0814
      7 C           2.1039    5.5192    4.5846 C.3     1  LIG1       -0.0239
      8 C           2.2149    6.8563   -2.7274 C.ar    1  LIG1       -0.0629
      9 C           0.7246    1.1736   -2.4912 C.ar    1  LIG1       -0.0625
     10 C           2.0149    5.4891    2.1348 C.3     1  LIG1       -0.0048
     11 C           3.1745    5.5311   -0.9498 C.ar    1  LIG1       -0.0552
     12 C           2.2465    1.9925   -0.8030 C.ar    1  LIG1       -0.0548
     13 C           1.4044    2.8674    4.5916 C.3     1  LIG1        0.0080
     14 C           1.3196    2.8385    2.2435 C.3     1  LIG1        0.0272
     15 C           1.9377    5.4997   -0.3056 C.ar    1  LIG1       -0.0532
     16 C           1.1972    2.6760   -0.1887 C.ar    1  LIG1       -0.0523
     17 C           1.7928    4.7944    0.9540 C.3     1  LIG1       -0.0191
     18 C           1.4422    3.4572    1.0082 C.3     1  LIG1       -0.0037
     19 C           1.8848    4.8406    3.3742 C.3     1  LIG1        0.0221
     20 C           3.3131    6.2094   -2.1608 C.ar    1  LIG1       -0.0012
     21 C           2.0102    1.2412   -1.9544 C.ar    1  LIG1       -0.0004
     22 N           1.5344    3.5086    3.4032 N.3     1  LIG1       -0.3335
     23 CL          4.8387    6.2487   -2.9564 Cl      1  LIG1       -0.1284
     24 CL          3.3041    0.3975   -2.7131 Cl      1  LIG1       -0.1273
     25 H           2.1370    5.3804    6.7293 H       1  LIG1        0.1781
     26 H           0.1231    7.3288   -2.5244 H       1  LIG1        0.1404
     27 H          -1.3256    1.8044   -2.2950 H       1  LIG1        0.1405
     28 H           1.5051    2.9789    6.7354 H       1  LIG1        0.1825
     29 H          -0.1311    6.1314   -0.3823 H       1  LIG1        0.1364
     30 H          -0.9168    3.1355   -0.2584 H       1  LIG1        0.1346
     31 H           2.3818    6.5705    4.5878 H       1  LIG1        0.1820
     32 H           2.3081    7.3888   -3.6704 H       1  LIG1        0.1472
     33 H           0.5256    0.5922   -3.3879 H       1  LIG1        0.1475
     34 H           2.2931    6.5415    2.1047 H       1  LIG1        0.1905
     35 H           4.0320    5.0267   -0.5085 H       1  LIG1        0.1439
     36 H           3.2501    2.0447   -0.3849 H       1  LIG1        0.1448
     37 H           1.1268    1.8182    4.5632 H       1  LIG1        0.2315
     38 H           1.0468    1.7905    2.3337 H       1  LIG1        0.2405
@<TRIPOS>BOND
     1     1     4    1
     2     1     7    1
     3     2     5   ar
     4     2     8   ar
     5     3     6   ar
     6     3     9   ar
     7     4    13    1
     8     5    15   ar
     9     6    16   ar
    10     7    19    1
    11     8    20   ar
    12     9    21   ar
    13    10    17    1
    14    10    19    1
    15    11    15   ar
    16    11    20   ar
    17    12    16   ar
    18    12    21   ar
    19    13    22    1
    20    14    18    1
    21    14    22    1
    22    15    17    1
    23    16    18    1
    24    17    18    1
    25    19    22    1
    26    20    23    1
    27    21    24    1
    28     1    25    1
    29     2    26    1
    30     3    27    1
    31     4    28    1
    32     5    29    1
    33     6    30    1
    34     7    31    1
    35     8    32    1
    36     9    33    1
    37    10    34    1
    38    11    35    1
    39    12    36    1
    40    13    37    1
    41    14    38    1
