@<TRIPOS>MOLECULE
AE-848/37316016
 43 46 0 0 0
SMALL
USER_CHARGES

@<TRIPOS>ATOM
      1 C           0.4413    1.2236   -2.4907 C.ar    1  LIG1       -0.1050
      2 C          -0.2205    2.2584   -1.8300 C.ar    1  LIG1       -0.1025
      3 C           1.5552    0.6220   -1.9051 C.ar    1  LIG1       -0.1025
      4 C           2.4552    5.3380    5.8075 C.ar    1  LIG1       -0.0861
      5 C           1.8903    4.0989    6.0902 C.ar    1  LIG1       -0.0948
      6 C           3.3807    6.0565   -0.8619 C.ar    1  LIG1       -0.0798
      7 C           0.9730    6.1657   -0.6930 C.ar    1  LIG1       -0.0738
      8 C           0.2316    2.6918   -0.5837 C.ar    1  LIG1       -0.0967
      9 C           2.0074    1.0554   -0.6587 C.ar    1  LIG1       -0.0970
     10 C           3.3237    6.7065   -2.0947 C.ar    1  LIG1       -0.1006
     11 C           0.9161    6.8158   -1.9258 C.ar    1  LIG1       -0.0969
     12 C           2.4122    5.8422    4.5078 C.ar    1  LIG1       -0.0527
     13 C           1.2828    3.3623    5.0741 C.ar    1  LIG1       -0.0832
     14 C           2.2054    5.7861   -0.1611 C.ar    1  LIG1       -0.0287
     15 C           1.3456    2.0903    0.0020 C.ar    1  LIG1       -0.0936
     16 C           2.0915    7.0862   -2.6266 C.ar    1  LIG1       -0.1168
     17 C           1.8164    5.1108    3.4697 C.ar    1  LIG1       -0.0334
     18 C           1.2460    3.8570    3.7629 C.ar    1  LIG1       -0.0300
     19 C           2.2650    5.0922    1.1560 C.2     1  LIG1       -0.0237
     20 C           2.8773    3.6950    1.2256 C.3     1  LIG1        0.0267
     21 C           1.8396    2.5630    1.3619 C.3     1  LIG1        0.0153
     22 C           2.0311    7.7823   -3.9444 C.3     1  LIG1       -0.0426
     23 N           1.7751    5.7057    2.1935 N.2     1  LIG1       -0.4029
     24 S           0.4312    2.8760    2.5125 S.3     1  LIG1       -0.1844
     25 H           0.0883    0.8854   -3.4606 H       1  LIG1        0.1182
     26 H          -1.0885    2.7263   -2.2853 H       1  LIG1        0.1189
     27 H           2.0701   -0.1845   -2.4186 H       1  LIG1        0.1188
     28 H           2.9347    5.9103    6.5961 H       1  LIG1        0.1260
     29 H           1.9266    3.7027    7.1008 H       1  LIG1        0.1279
     30 H           4.3459    5.7649   -0.4562 H       1  LIG1        0.1289
     31 H           0.0508    5.9601   -0.1559 H       1  LIG1        0.1389
     32 H          -0.2902    3.4990   -0.0763 H       1  LIG1        0.1229
     33 H           2.8762    0.5810   -0.2102 H       1  LIG1        0.1212
     34 H           4.2443    6.9136   -2.6337 H       1  LIG1        0.1175
     35 H          -0.0484    7.1085   -2.3327 H       1  LIG1        0.1169
     36 H           2.8497    6.8174    4.3059 H       1  LIG1        0.1425
     37 H           0.8378    2.4015    5.3219 H       1  LIG1        0.1281
     38 H           3.5433    3.5422    0.3544 H       1  LIG1        0.0980
     39 H           3.5633    3.6564    2.0942 H       1  LIG1        0.0951
     40 H           2.3765    1.6764    1.8068 H       1  LIG1        0.0995
     41 H           1.9415    7.0522   -4.7581 H       1  LIG1        0.0579
     42 H           1.1742    8.4663   -3.9947 H       1  LIG1        0.0541
     43 H           2.9309    8.3870   -4.1169 H       1  LIG1        0.0542
@<TRIPOS>BOND
     1     1     2   ar
     2     1     3   ar
     3     2     8   ar
     4     3     9   ar
     5     4     5   ar
     6     4    12   ar
     7     5    13   ar
     8     6    10   ar
     9     6    14   ar
    10     7    11   ar
    11     7    14   ar
    12     8    15   ar
    13     9    15   ar
    14    10    16   ar
    15    11    16   ar
    16    12    17   ar
    17    13    18   ar
    18    14    19    1
    19    15    21    1
    20    16    22    1
    21    17    18   ar
    22    17    23    1
    23    18    24    1
    24    19    20    1
    25    19    23    2
    26    20    21    1
    27    21    24    1
    28     1    25    1
    29     2    26    1
    30     3    27    1
    31     4    28    1
    32     5    29    1
    33     6    30    1
    34     7    31    1
    35     8    32    1
    36     9    33    1
    37    10    34    1
    38    11    35    1
    39    12    36    1
    40    13    37    1
    41    20    38    1
    42    20    39    1
    43    21    40    1
    44    22    41    1
    45    22    42    1
    46    22    43    1
