@<TRIPOS>MOLECULE
AE-477/13519326
 46 50 0 0 0
SMALL
USER_CHARGES

@<TRIPOS>ATOM
      1 C           2.0467    3.9705    6.2807 C.ar    1  LIG1       -0.1061
      2 C          -0.1296    1.3768   -2.3066 C.ar    1  LIG1       -0.1050
      3 C           0.9281    4.7792    6.0795 C.ar    1  LIG1       -0.1026
      4 C           3.0133    3.8559    5.2816 C.ar    1  LIG1       -0.1042
      5 C           1.1871    1.2357   -2.7445 C.ar    1  LIG1       -0.0998
      6 C          -0.3931    1.9445   -1.0600 C.ar    1  LIG1       -0.1034
      7 C           1.4112    7.1298   -1.9872 C.ar    1  LIG1       -0.1026
      8 C           2.5506    6.5171   -2.5087 C.ar    1  LIG1       -0.1033
      9 C           0.7761    5.4734    4.8793 C.ar    1  LIG1       -0.0937
     10 C           2.8614    4.5502    4.0813 C.ar    1  LIG1       -0.0965
     11 C           2.2405    1.6624   -1.9358 C.ar    1  LIG1       -0.0903
     12 C           0.6603    2.3712   -0.2514 C.ar    1  LIG1       -0.0945
     13 C           0.9393    6.7664   -0.7258 C.ar    1  LIG1       -0.0942
     14 C           3.2182    5.5411   -1.7689 C.ar    1  LIG1       -0.0944
     15 C           1.7427    5.3589    3.8801 C.ar    1  LIG1       -0.0888
     16 C           1.9771    2.2301   -0.6892 C.ar    1  LIG1       -0.0856
     17 C           1.6069    5.7903    0.0139 C.ar    1  LIG1       -0.0954
     18 C           2.7464    5.1776   -0.5076 C.ar    1  LIG1       -0.0956
     19 C           0.1999    6.3875    2.0850 C.3     1  LIG1       -0.0254
     20 C           4.3637    3.1665   -0.4695 C.3     1  LIG1       -0.0257
     21 C           1.0849    5.4207    1.3540 C.3     1  LIG1       -0.0172
     22 C           3.4789    4.1306    0.2648 C.3     1  LIG1       -0.0175
     23 C           1.5804    6.0992    2.5974 C.3     1  LIG1        0.0158
     24 C           3.0960    2.6826    0.1710 C.3     1  LIG1        0.0150
     25 CL          2.7980    7.3740    2.3878 Cl      1  LIG1       -0.1983
     26 CL          3.2617    1.7092    1.6462 Cl      1  LIG1       -0.2048
     27 H           2.1650    3.4302    7.2154 H       1  LIG1        0.1167
     28 H          -0.9498    1.0447   -2.9364 H       1  LIG1        0.1174
     29 H           0.1753    4.8687    6.8574 H       1  LIG1        0.1186
     30 H           3.8841    3.2260    5.4384 H       1  LIG1        0.1185
     31 H           1.3926    0.7938   -3.7153 H       1  LIG1        0.1179
     32 H          -1.4186    2.0542   -0.7191 H       1  LIG1        0.1173
     33 H           0.8913    7.8897   -2.5634 H       1  LIG1        0.1158
     34 H           2.9179    6.7999   -3.4910 H       1  LIG1        0.1149
     35 H          -0.0991    6.1004    4.7317 H       1  LIG1        0.1253
     36 H           3.6201    4.4535    3.3089 H       1  LIG1        0.1190
     37 H           3.2630    1.5476   -2.2855 H       1  LIG1        0.1244
     38 H           0.4441    2.8116    0.7186 H       1  LIG1        0.1218
     39 H           0.0503    7.2493   -0.3284 H       1  LIG1        0.1216
     40 H           4.1055    5.0700   -2.1842 H       1  LIG1        0.1240
     41 H           0.0022    7.3551    1.6361 H       1  LIG1        0.0835
     42 H          -0.6535    5.9817    2.6172 H       1  LIG1        0.0834
     43 H           4.4118    3.2236   -1.5519 H       1  LIG1        0.0817
     44 H           5.3139    2.9109   -0.0133 H       1  LIG1        0.0836
     45 H           0.8058    4.3737    1.4490 H       1  LIG1        0.1046
     46 H           3.8607    4.4720    1.2243 H       1  LIG1        0.1039
@<TRIPOS>BOND
     1     1     3   ar
     2     1     4   ar
     3     2     5   ar
     4     2     6   ar
     5     3     9   ar
     6     4    10   ar
     7     5    11   ar
     8     6    12   ar
     9     7     8   ar
    10     7    13   ar
    11     8    14   ar
    12     9    15   ar
    13    10    15   ar
    14    11    16   ar
    15    12    16   ar
    16    13    17   ar
    17    14    18   ar
    18    15    23    1
    19    16    24    1
    20    17    18   ar
    21    17    21    1
    22    18    22    1
    23    19    21    1
    24    19    23    1
    25    20    22    1
    26    20    24    1
    27    21    23    1
    28    22    24    1
    29    23    25    1
    30    24    26    1
    31     1    27    1
    32     2    28    1
    33     3    29    1
    34     4    30    1
    35     5    31    1
    36     6    32    1
    37     7    33    1
    38     8    34    1
    39     9    35    1
    40    10    36    1
    41    11    37    1
    42    12    38    1
    43    13    39    1
    44    14    40    1
    45    19    41    1
    46    19    42    1
    47    20    43    1
    48    20    44    1
    49    21    45    1
    50    22    46    1
