@<TRIPOS>MOLECULE
AE-641/00191036
 50 53 0 0 0
SMALL
USER_CHARGES

@<TRIPOS>ATOM
      1 C           1.9379    7.4152   -2.4334 C.ar    1  LIG1       -0.1018
      2 C           2.8468    6.4184   -2.7377 C.ar    1  LIG1       -0.0964
      3 C          -0.4667    1.9850   -1.3967 C.ar    1  LIG1       -0.0895
      4 C           2.4768    2.2096    3.6023 C.ar    1  LIG1       -0.0913
      5 C           0.1649    0.8449   -1.8937 C.ar    1  LIG1       -0.1007
      6 C           2.2184    3.2280    4.4978 C.ar    1  LIG1       -0.0928
      7 C           1.1968    7.3240   -1.2609 C.ar    1  LIG1       -0.1019
      8 C           3.0031    5.3378   -1.8680 C.ar    1  LIG1       -0.0828
      9 C           0.2778    2.9642   -0.7390 C.ar    1  LIG1       -0.0716
     10 C           2.5167    2.4918    2.2364 C.ar    1  LIG1       -0.0798
     11 C           1.5411    0.6840   -1.7326 C.ar    1  LIG1       -0.1099
     12 C           1.9985    4.5145    4.0175 C.ar    1  LIG1       -0.0873
     13 C           1.3493    6.2371   -0.3697 C.ar    1  LIG1       -0.0890
     14 C           2.2726    5.2139   -0.6542 C.ar    1  LIG1       -0.0549
     15 C           1.6539    2.8032   -0.5780 C.ar    1  LIG1       -0.0527
     16 C           2.2862    3.7936    1.6960 C.ar    1  LIG1       -0.0483
     17 C           2.2856    1.6631   -1.0748 C.ar    1  LIG1       -0.1137
     18 C           2.0224    4.8112    2.6337 C.ar    1  LIG1       -0.0599
     19 C           0.5495    6.2772    0.8924 C.3     1  LIG1        0.0082
     20 C           2.4626    3.9083    0.1573 C.3     1  LIG1        0.0448
     21 C           6.0495    2.1133   -1.6443 C.3     1  LIG1       -0.0887
     22 C           4.1669    2.1493   -3.2738 C.3     1  LIG1       -0.0899
     23 C           3.7577    1.4684   -0.9138 C.3     1  LIG1       -0.0784
     24 N           4.5675    2.3163   -1.8302 N.4     1  LIG1        0.4106
     25 O           3.8772    3.5843    0.0575 O.3     1  LIG1       -0.4555
     26 S           1.6709    6.5216    2.2809 S.3     1  LIG1       -0.2051
     27 H           1.8111    8.2649   -3.0956 H       1  LIG1        0.1261
     28 H           3.4379    6.4745   -3.6451 H       1  LIG1        0.1272
     29 H          -1.5382    2.1096   -1.5217 H       1  LIG1        0.1328
     30 H           2.6453    1.1977    3.9550 H       1  LIG1        0.1313
     31 H          -0.4154    0.0828   -2.4054 H       1  LIG1        0.1297
     32 H           2.1795    3.0266    5.5633 H       1  LIG1        0.1339
     33 H           0.4915    8.1231   -1.0282 H       1  LIG1        0.1157
     34 H           3.7251    4.5707   -2.1587 H       1  LIG1        0.1333
     35 H          -0.2242    3.8480   -0.3542 H       1  LIG1        0.1501
     36 H           2.7330    1.6487    1.5805 H       1  LIG1        0.1354
     37 H           2.0242   -0.2077   -2.1236 H       1  LIG1        0.1059
     38 H           1.8002    5.2893    4.7544 H       1  LIG1        0.1302
     39 H          -0.1109    7.1357    0.8832 H       1  LIG1        0.1023
     40 H          -0.0825    5.4229    1.0398 H       1  LIG1        0.1218
     41 H           6.2779    1.0751   -1.8918 H       1  LIG1        0.0828
     42 H           6.5678    2.8002   -2.3160 H       1  LIG1        0.0802
     43 H           6.2881    2.3296   -0.6012 H       1  LIG1        0.0810
     44 H           4.3564    1.1118   -3.5550 H       1  LIG1        0.0801
     45 H           3.1055    2.3908   -3.3561 H       1  LIG1        0.0765
     46 H           4.7727    2.8343   -3.8700 H       1  LIG1        0.0805
     47 H           4.0871    1.7115    0.1047 H       1  LIG1        0.1109
     48 H           4.0503    0.4294   -1.1140 H       1  LIG1        0.1104
     49 H           4.3787    3.3032   -1.5904 H       1  LIG1        0.1619
     50 H           4.3430    4.3376    0.4405 H       1  LIG1        0.3385
@<TRIPOS>BOND
     1     1     2   ar
     2     1     7   ar
     3     2     8   ar
     4     3     5   ar
     5     3     9   ar
     6     4     6   ar
     7     4    10   ar
     8     5    11   ar
     9     6    12   ar
    10     7    13   ar
    11     8    14   ar
    12     9    15   ar
    13    10    16   ar
    14    11    17   ar
    15    12    18   ar
    16    13    14   ar
    17    13    19    1
    18    14    20    1
    19    15    17   ar
    20    15    20    1
    21    16    18   ar
    22    16    20    1
    23    17    23    1
    24    18    26    1
    25    19    26    1
    26    20    25    1
    27    21    24    1
    28    22    24    1
    29    23    24    1
    30     1    27    1
    31     2    28    1
    32     3    29    1
    33     4    30    1
    34     5    31    1
    35     6    32    1
    36     7    33    1
    37     8    34    1
    38     9    35    1
    39    10    36    1
    40    11    37    1
    41    12    38    1
    42    19    39    1
    43    19    40    1
    44    21    41    1
    45    21    42    1
    46    21    43    1
    47    22    44    1
    48    22    45    1
    49    22    46    1
    50    23    47    1
    51    23    48    1
    52    24    49    1
    53    25    50    1
