@<TRIPOS>MOLECULE
AB-131/42301026
 36 39 0 0 0
SMALL
USER_CHARGES

@<TRIPOS>ATOM
      1 C           1.0786    7.1579   -2.3365 C.ar    1  LIG1       -0.1037
      2 C          -0.1339    1.4816   -1.9444 C.ar    1  LIG1       -0.1026
      3 C           2.3509    7.5857   -1.9775 C.ar    1  LIG1       -0.1051
      4 C           0.6505    0.6999   -1.1058 C.ar    1  LIG1       -0.1040
      5 C           0.7224    5.8131   -2.1960 C.ar    1  LIG1       -0.0915
      6 C           0.1807    2.8283   -2.1495 C.ar    1  LIG1       -0.0895
      7 C           3.2673    6.6706   -1.4704 C.ar    1  LIG1       -0.0990
      8 C           1.7577    1.2609   -0.4786 C.ar    1  LIG1       -0.0952
      9 C           4.0833    3.3227    2.4170 C.ar    1  LIG1       -0.0905
     10 C           1.8731    4.1267    1.8639 C.ar    1  LIG1       -0.0887
     11 C           3.8719    3.6612    3.7536 C.ar    1  LIG1       -0.0759
     12 C           1.6616    4.4649    3.2005 C.ar    1  LIG1       -0.0758
     13 C           1.6304    4.8624   -1.6944 C.ar    1  LIG1       -0.0758
     14 C           1.2870    3.4289   -1.5201 C.ar    1  LIG1       -0.0724
     15 C           3.0839    3.5555    1.4721 C.ar    1  LIG1       -0.0928
     16 C           2.9115    5.3219   -1.3135 C.ar    1  LIG1       -0.0939
     17 C           2.0889    2.6119   -0.6860 C.ar    1  LIG1       -0.0829
     18 C           2.6610    4.2322    4.1453 C.ar    1  LIG1       -0.0209
     19 C           3.9353    4.3427   -0.7934 C.3     1  LIG1       -0.0200
     20 C           3.3138    3.1844    0.0117 C.3     1  LIG1       -0.0099
     21 CL          2.4004    4.6493    5.7942 Cl      1  LIG1       -0.1490
     22 H           0.3572    7.8697   -2.7276 H       1  LIG1        0.1166
     23 H          -0.9954    1.0464   -2.4426 H       1  LIG1        0.1174
     24 H           2.6284    8.6292   -2.0920 H       1  LIG1        0.1173
     25 H           0.4038   -0.3452   -0.9450 H       1  LIG1        0.1171
     26 H          -0.2892    5.5343   -2.4797 H       1  LIG1        0.1231
     27 H          -0.4609    3.3917   -2.8221 H       1  LIG1        0.1235
     28 H           4.2620    7.0126   -1.1957 H       1  LIG1        0.1195
     29 H           2.3693    0.6396    0.1712 H       1  LIG1        0.1206
     30 H           5.0295    2.8784    2.1196 H       1  LIG1        0.1282
     31 H           1.0892    4.3110    1.1340 H       1  LIG1        0.1356
     32 H           4.6596    3.4736    4.4787 H       1  LIG1        0.1298
     33 H           0.7132    4.9094    3.4912 H       1  LIG1        0.1281
     34 H           4.4570    3.9316   -1.6686 H       1  LIG1        0.0791
     35 H           4.6883    4.8599   -0.1850 H       1  LIG1        0.0804
     36 H           4.1051    2.3728    0.0360 H       1  LIG1        0.1026
@<TRIPOS>BOND
     1     1     3   ar
     2     1     5   ar
     3     2     4   ar
     4     2     6   ar
     5     3     7   ar
     6     4     8   ar
     7     5    13   ar
     8     6    14   ar
     9     7    16   ar
    10     8    17   ar
    11     9    11   ar
    12     9    15   ar
    13    10    12   ar
    14    10    15   ar
    15    11    18   ar
    16    12    18   ar
    17    13    14    1
    18    13    16   ar
    19    14    17   ar
    20    15    20    1
    21    16    19    1
    22    17    20    1
    23    18    21    1
    24    19    20    1
    25     1    22    1
    26     2    23    1
    27     3    24    1
    28     4    25    1
    29     5    26    1
    30     6    27    1
    31     7    28    1
    32     8    29    1
    33     9    30    1
    34    10    31    1
    35    11    32    1
    36    12    33    1
    37    19    34    1
    38    19    35    1
    39    20    36    1
