@<TRIPOS>MOLECULE
AK-778/07165027
 39 41 0 0 0
SMALL
USER_CHARGES

@<TRIPOS>ATOM
      1 C           1.0203    0.6000   -1.4683 C.ar    1  LIG1       -0.0934
      2 C           0.0172    1.3272   -2.1310 C.ar    1  LIG1       -0.0911
      3 C           0.9909    4.5528    4.2520 C.ar    1  LIG1       -0.0844
      4 C           3.1938    4.4689    5.2407 C.ar    1  LIG1       -0.0800
      5 C           1.9220    1.2415   -0.6157 C.ar    1  LIG1       -0.0777
      6 C           0.4232    4.6326    5.5237 C.ar    1  LIG1       -0.0986
      7 C           2.6261    4.5489    6.5123 C.ar    1  LIG1       -0.0957
      8 C          -0.1004    2.7074   -1.9531 C.ar    1  LIG1       -0.0632
      9 C           2.3762    4.4708    4.1106 C.ar    1  LIG1       -0.0153
     10 C           1.7985    2.6095   -0.4424 C.ar    1  LIG1       -0.0160
     11 C           1.2408    4.6308    6.6538 C.ar    1  LIG1       -0.1138
     12 C           0.8014    3.3266   -1.1049 C.ar    1  LIG1       -0.0321
     13 C           1.9565    4.9112    0.1284 C.2     1  LIG1        0.1528
     14 C           2.9768    4.3869    2.7680 C.2     1  LIG1        0.0865
     15 C           2.6186    3.5451    0.4014 C.3     1  LIG1        0.1294
     16 C           0.6333    4.7173    8.0132 C.3     1  LIG1       -0.0398
     17 C           0.0130    5.6961   -1.2858 C.3     1  LIG1       -0.0034
     18 C           2.5894    3.2047    1.8844 C.3     1  LIG1        0.0861
     19 N           0.8980    4.6823   -0.7631 N.am    1  LIG1       -0.3149
     20 O           2.3240    5.9763    0.6029 O.2     1  LIG1       -0.4301
     21 O           3.7705    5.2320    2.3494 O.2     1  LIG1       -0.4438
     22 O           3.9476    3.5893   -0.0805 O.3     1  LIG1       -0.4414
     23 H           1.0944   -0.4732   -1.6222 H       1  LIG1        0.1209
     24 H          -0.6738    0.8081   -2.7900 H       1  LIG1        0.1337
     25 H           0.3450    4.5550    3.3779 H       1  LIG1        0.1315
     26 H           4.2744    4.4054    5.1426 H       1  LIG1        0.1391
     27 H           2.6958    0.6768   -0.1072 H       1  LIG1        0.1400
     28 H          -0.6570    4.6965    5.6246 H       1  LIG1        0.1201
     29 H           3.2706    4.5473    7.3875 H       1  LIG1        0.1209
     30 H          -0.8769    3.2601   -2.4697 H       1  LIG1        0.1269
     31 H           0.4205    3.7136    8.4010 H       1  LIG1        0.0604
     32 H           1.3034    5.2276    8.7172 H       1  LIG1        0.0564
     33 H          -0.3035    5.2894    7.9951 H       1  LIG1        0.0564
     34 H          -0.8576    5.8071   -0.6341 H       1  LIG1        0.1109
     35 H          -0.3296    5.4194   -2.2865 H       1  LIG1        0.0976
     36 H           0.5321    6.6564   -1.3461 H       1  LIG1        0.0976
     37 H           3.2895    2.3828    2.0677 H       1  LIG1        0.1088
     38 H           1.5767    2.8833    2.1492 H       1  LIG1        0.1109
     39 H           4.4401    4.2030    0.4915 H       1  LIG1        0.3476
@<TRIPOS>BOND
     1     1     2   ar
     2     1     5   ar
     3     2     8   ar
     4     3     6   ar
     5     3     9   ar
     6     4     7   ar
     7     4     9   ar
     8     5    10   ar
     9     6    11   ar
    10     7    11   ar
    11     8    12   ar
    12     9    14    1
    13    10    12   ar
    14    10    15    1
    15    11    16    1
    16    12    19    1
    17    13    15    1
    18    13    19   am
    19    13    20    2
    20    14    18    1
    21    14    21    2
    22    15    18    1
    23    15    22    1
    24    17    19    1
    25     1    23    1
    26     2    24    1
    27     3    25    1
    28     4    26    1
    29     5    27    1
    30     6    28    1
    31     7    29    1
    32     8    30    1
    33    16    31    1
    34    16    32    1
    35    16    33    1
    36    17    34    1
    37    17    35    1
    38    17    36    1
    39    18    37    1
    40    18    38    1
    41    22    39    1
