@<TRIPOS>MOLECULE
AF-399/15284014
 47 50 0 0 0
SMALL
USER_CHARGES

@<TRIPOS>ATOM
      1 C           0.0854    0.6174   -1.5676 C.ar    1  LIG1       -0.1075
      2 C           1.4404    0.3851   -1.3315 C.ar    1  LIG1       -0.1023
      3 C          -0.4593    1.8776   -1.3212 C.ar    1  LIG1       -0.1056
      4 C           2.2506    1.4130   -0.8490 C.ar    1  LIG1       -0.0880
      5 C           0.3507    2.9055   -0.8387 C.ar    1  LIG1       -0.0932
      6 C           0.7066    5.0527    4.2688 C.ar    1  LIG1       -0.0809
      7 C           1.5194    7.4369   -0.3500 C.ar    1  LIG1       -0.0627
      8 C           0.8614    5.0391    5.6550 C.ar    1  LIG1       -0.0693
      9 C           1.8715    7.7356   -1.6671 C.ar    1  LIG1       -0.0793
     10 C           2.6790    5.4830   -1.9632 C.ar    1  LIG1       -0.0683
     11 C           2.9582    3.8642    5.4093 C.ar    1  LIG1       -0.0244
     12 C           1.7058    2.6732   -0.6026 C.ar    1  LIG1       -0.0622
     13 C           1.6775    4.4721    3.4529 C.ar    1  LIG1       -0.0097
     14 C           2.3278    5.1763   -0.6399 C.ar    1  LIG1       -0.0284
     15 C           1.7284    6.1544    0.1736 C.ar    1  LIG1       -0.0615
     16 C           1.9872    4.4448    6.2252 C.ar    1  LIG1       -0.0139
     17 C           2.8033    3.8779    4.0230 C.ar    1  LIG1        0.0101
     18 C           2.4482    6.7587   -2.4739 C.ar    1  LIG1       -0.0440
     19 C           2.5873    3.7928   -0.0770 C.3     1  LIG1        0.0621
     20 C           1.4932    4.4971    1.9521 C.3     1  LIG1        0.0622
     21 C           3.3122    3.8070    8.0943 C.3     1  LIG1        0.0257
     22 C           4.8784    2.7217    3.9064 C.3     1  LIG1        0.0288
     23 N           1.4015    5.8715    1.4928 N.pl3   1  LIG1       -0.3747
     24 O           2.5921    3.7892    1.3605 O.3     1  LIG1       -0.4005
     25 O           2.1376    4.4311    7.5777 O.3     1  LIG1       -0.4149
     26 O           3.7610    3.3063    3.2403 O.3     1  LIG1       -0.4066
     27 BR          2.9231    7.1636   -4.2575 Br      1  LIG1       -0.1275
     28 H          -0.5449   -0.1827   -1.9446 H       1  LIG1        0.1151
     29 H           1.8650   -0.5958   -1.5243 H       1  LIG1        0.1154
     30 H          -1.5141    2.0591   -1.5059 H       1  LIG1        0.1159
     31 H           3.3052    1.2227   -0.6678 H       1  LIG1        0.1259
     32 H          -0.0825    3.8841   -0.6496 H       1  LIG1        0.1177
     33 H          -0.1737    5.5187    3.8336 H       1  LIG1        0.1441
     34 H           1.0755    8.2150    0.2670 H       1  LIG1        0.1240
     35 H           0.1020    5.4933    6.2856 H       1  LIG1        0.1060
     36 H           1.6896    8.7381   -2.0462 H       1  LIG1        0.1404
     37 H           3.1374    4.7181   -2.5862 H       1  LIG1        0.1439
     38 H           3.8352    3.4004    5.8540 H       1  LIG1        0.1229
     39 H           3.6392    3.5080   -0.3507 H       1  LIG1        0.1406
     40 H           0.5545    3.9620    1.7242 H       1  LIG1        0.2169
     41 H           3.3071    3.8659    9.1854 H       1  LIG1        0.1232
     42 H           4.1976    4.3086    7.6958 H       1  LIG1        0.0909
     43 H           3.3214    2.7582    7.7883 H       1  LIG1        0.0907
     44 H           5.5655    2.3025    3.1674 H       1  LIG1        0.1244
     45 H           4.5306    1.9370    4.5828 H       1  LIG1        0.0914
     46 H           5.3932    3.4946    4.4820 H       1  LIG1        0.0910
     47 H           0.8533    6.5433    2.0174 H       1  LIG1        0.2958
@<TRIPOS>BOND
     1     1     2   ar
     2     1     3   ar
     3     2     4   ar
     4     3     5   ar
     5     4    12   ar
     6     5    12   ar
     7     6     8   ar
     8     6    13   ar
     9     7     9   ar
    10     7    15   ar
    11     8    16   ar
    12     9    18   ar
    13    10    14   ar
    14    10    18   ar
    15    11    16   ar
    16    11    17   ar
    17    12    19    1
    18    13    17   ar
    19    13    20    1
    20    14    15   ar
    21    14    19    1
    22    15    23    1
    23    16    25    1
    24    17    26    1
    25    18    27    1
    26    19    24    1
    27    20    23    1
    28    20    24    1
    29    21    25    1
    30    22    26    1
    31     1    28    1
    32     2    29    1
    33     3    30    1
    34     4    31    1
    35     5    32    1
    36     6    33    1
    37     7    34    1
    38     8    35    1
    39     9    36    1
    40    10    37    1
    41    11    38    1
    42    19    39    1
    43    20    40    1
    44    21    41    1
    45    21    42    1
    46    21    43    1
    47    22    44    1
    48    22    45    1
    49    22    46    1
    50    23    47    1
