@<TRIPOS>MOLECULE
AP-518/42324228
 42 44 0 0 0
SMALL
USER_CHARGES

@<TRIPOS>ATOM
      1 C           0.2001    0.6954   -1.5305 C.ar    1  LIG1       -0.1078
      2 C           0.4823    4.7461    5.1844 C.ar    1  LIG1       -0.1000
      3 C           1.4685    0.9638   -2.0450 C.ar    1  LIG1       -0.1057
      4 C          -0.3360    1.5124   -0.5350 C.ar    1  LIG1       -0.1042
      5 C           1.3436    4.7204    6.2813 C.ar    1  LIG1       -0.1006
      6 C           0.9555    4.4030    3.9179 C.ar    1  LIG1       -0.0757
      7 C           2.2009    2.0491   -1.5639 C.ar    1  LIG1       -0.0948
      8 C           0.3965    2.5976   -0.0540 C.ar    1  LIG1       -0.0925
      9 C           2.6781    4.3519    6.1117 C.ar    1  LIG1       -0.0934
     10 C           3.0971    5.5088   -1.9947 C.ar    1  LIG1       -0.0822
     11 C           1.3480    6.2584   -0.5061 C.ar    1  LIG1       -0.0787
     12 C           2.9477    6.6690   -2.7544 C.ar    1  LIG1       -0.0797
     13 C           1.1987    7.4186   -1.2658 C.ar    1  LIG1       -0.0777
     14 C           2.2901    4.0344    3.7483 C.ar    1  LIG1        0.0206
     15 C           1.6649    2.8660   -0.5684 C.ar    1  LIG1       -0.0727
     16 C           2.2972    5.3034   -0.8705 C.ar    1  LIG1       -0.0651
     17 C           3.1514    4.0089    4.8453 C.ar    1  LIG1       -0.0812
     18 C           1.9986    7.6239   -2.3900 C.ar    1  LIG1       -0.0406
     19 C           2.7583    3.6817    2.4149 C.2     1  LIG1        0.1068
     20 C           4.5852    3.6187    4.6920 C.3     1  LIG1       -0.0318
     21 C           2.4594    4.0439   -0.0457 C.3     1  LIG1        0.0169
     22 N           2.1244    4.3059    1.3356 N.am    1  LIG1       -0.3275
     23 O           3.6664    2.8463    2.2676 O.2     1  LIG1       -0.4730
     24 BR          1.7964    9.1953   -3.4202 Br      1  LIG1       -0.1111
     25 H          -0.3706   -0.1489   -1.9062 H       1  LIG1        0.1147
     26 H          -0.5572    5.0328    5.3160 H       1  LIG1        0.1178
     27 H           1.8856    0.3285   -2.8209 H       1  LIG1        0.1142
     28 H          -1.3240    1.3044   -0.1351 H       1  LIG1        0.1165
     29 H           0.9745    4.9879    7.2672 H       1  LIG1        0.1260
     30 H           0.2747    4.4279    3.0709 H       1  LIG1        0.1246
     31 H           3.1885    2.2505   -1.9706 H       1  LIG1        0.1147
     32 H          -0.0292    3.2286    0.7218 H       1  LIG1        0.1212
     33 H           3.3406    4.3348    6.9731 H       1  LIG1        0.1221
     34 H           3.8393    4.7703   -2.2860 H       1  LIG1        0.1257
     35 H           0.7198    6.1065    0.3677 H       1  LIG1        0.1343
     36 H           3.5784    6.8131   -3.6281 H       1  LIG1        0.1359
     37 H           0.4547    8.1529   -0.9683 H       1  LIG1        0.1373
     38 H           4.7006    2.5370    4.8262 H       1  LIG1        0.0619
     39 H           4.9659    3.8908    3.7000 H       1  LIG1        0.0493
     40 H           5.2161    4.1320    5.4282 H       1  LIG1        0.0755
     41 H           3.5250    3.7807   -0.0278 H       1  LIG1        0.1588
     42 H           1.3461    4.9329    1.5109 H       1  LIG1        0.3009
@<TRIPOS>BOND
     1     1     3   ar
     2     1     4   ar
     3     2     5   ar
     4     2     6   ar
     5     3     7   ar
     6     4     8   ar
     7     5     9   ar
     8     6    14   ar
     9     7    15   ar
    10     8    15   ar
    11     9    17   ar
    12    10    12   ar
    13    10    16   ar
    14    11    13   ar
    15    11    16   ar
    16    12    18   ar
    17    13    18   ar
    18    14    17   ar
    19    14    19    1
    20    15    21    1
    21    16    21    1
    22    17    20    1
    23    18    24    1
    24    19    22   am
    25    19    23    2
    26    21    22    1
    27     1    25    1
    28     2    26    1
    29     3    27    1
    30     4    28    1
    31     5    29    1
    32     6    30    1
    33     7    31    1
    34     8    32    1
    35     9    33    1
    36    10    34    1
    37    11    35    1
    38    12    36    1
    39    13    37    1
    40    20    38    1
    41    20    39    1
    42    20    40    1
    43    21    41    1
    44    22    42    1
