@<TRIPOS>MOLECULE
AI-942/13332183
 46 48 0 0 0
SMALL
USER_CHARGES

@<TRIPOS>ATOM
      1 C           0.2161    0.5500   -1.7321 C.ar    1  LIG1       -0.1008
      2 C           2.0867    7.7122   -2.2537 C.ar    1  LIG1       -0.0991
      3 C           1.5815    0.4684   -1.5140 C.ar    1  LIG1       -0.1031
      4 C           3.3262    7.1489   -1.9987 C.ar    1  LIG1       -0.1011
      5 C          -0.4581    1.7252   -1.4159 C.ar    1  LIG1       -0.0918
      6 C           0.9376    7.0684   -1.8060 C.ar    1  LIG1       -0.0908
      7 C           2.2687    1.5615   -0.9812 C.ar    1  LIG1       -0.0931
      8 C           3.4130    5.9436   -1.2984 C.ar    1  LIG1       -0.0919
      9 C           0.2238    2.8420   -0.8905 C.ar    1  LIG1       -0.0815
     10 C           1.0079    5.8442   -1.1098 C.ar    1  LIG1       -0.0798
     11 C           1.6163    2.7743   -0.6601 C.ar    1  LIG1       -0.0654
     12 C           2.2647    5.2570   -0.8407 C.ar    1  LIG1       -0.0651
     13 C          -0.6129    4.0027   -0.5633 C.2     1  LIG1       -0.0891
     14 C          -0.2755    5.2941   -0.6579 C.2     1  LIG1       -0.0877
     15 C           2.4107    3.9438   -0.0487 C.3     1  LIG1        0.0146
     16 C           2.4824    4.5617    5.6574 C.3     1  LIG1       -0.0919
     17 C           4.2716    4.0452    4.0044 C.3     1  LIG1       -0.0920
     18 C           2.0459    4.1470    1.4350 C.3     1  LIG1       -0.0208
     19 C           2.3215    2.8835    2.2319 C.3     1  LIG1       -0.0627
     20 C           1.9859    3.1055    3.6992 C.3     1  LIG1       -0.1050
     21 N           2.7896    4.2396    4.2151 N.4     1  LIG1        0.4076
     22 O           3.8070    3.5835    0.0179 O.3     1  LIG1       -0.4662
     23 H          -0.3251   -0.2961   -2.1424 H       1  LIG1        0.1213
     24 H           2.0115    8.6502   -2.7938 H       1  LIG1        0.1232
     25 H           2.1195   -0.4418   -1.7594 H       1  LIG1        0.1205
     26 H           4.2300    7.6402   -2.3449 H       1  LIG1        0.1226
     27 H          -1.5367    1.7617   -1.5718 H       1  LIG1        0.1254
     28 H          -0.0273    7.5401   -1.9950 H       1  LIG1        0.1268
     29 H           3.3388    1.4396   -0.8264 H       1  LIG1        0.1217
     30 H           4.4120    5.5498   -1.1230 H       1  LIG1        0.1230
     31 H          -1.6066    3.7673   -0.1686 H       1  LIG1        0.1197
     32 H          -1.0156    6.0338   -0.3350 H       1  LIG1        0.1258
     33 H           2.7435    3.6883    6.2576 H       1  LIG1        0.0799
     34 H           3.0834    5.4275    5.9418 H       1  LIG1        0.0789
     35 H           1.4158    4.7834    5.7304 H       1  LIG1        0.0782
     36 H           4.5752    3.1594    4.5654 H       1  LIG1        0.0785
     37 H           4.4422    3.9102    2.9347 H       1  LIG1        0.0776
     38 H           4.7814    4.9373    4.3737 H       1  LIG1        0.0798
     39 H           2.6339    4.9813    1.8126 H       1  LIG1        0.0743
     40 H           0.9932    4.4182    1.4865 H       1  LIG1        0.0869
     41 H           1.7256    2.0518    1.8357 H       1  LIG1        0.0581
     42 H           3.3762    2.5984    2.1307 H       1  LIG1        0.0637
     43 H           0.9343    3.3698    3.8438 H       1  LIG1        0.0868
     44 H           2.2350    2.2349    4.3131 H       1  LIG1        0.0863
     45 H           2.5327    5.0831    3.6734 H       1  LIG1        0.1612
     46 H           4.0718    3.4124   -0.8935 H       1  LIG1        0.3363
@<TRIPOS>BOND
     1     1     3   ar
     2     1     5   ar
     3     2     4   ar
     4     2     6   ar
     5     3     7   ar
     6     4     8   ar
     7     5     9   ar
     8     6    10   ar
     9     7    11   ar
    10     8    12   ar
    11     9    11   ar
    12     9    13    1
    13    10    12   ar
    14    10    14    1
    15    11    15    1
    16    12    15    1
    17    13    14    2
    18    15    18    1
    19    15    22    1
    20    16    21    1
    21    17    21    1
    22    18    19    1
    23    19    20    1
    24    20    21    1
    25     1    23    1
    26     2    24    1
    27     3    25    1
    28     4    26    1
    29     5    27    1
    30     6    28    1
    31     7    29    1
    32     8    30    1
    33    13    31    1
    34    14    32    1
    35    16    33    1
    36    16    34    1
    37    16    35    1
    38    17    36    1
    39    17    37    1
    40    17    38    1
    41    18    39    1
    42    18    40    1
    43    19    41    1
    44    19    42    1
    45    20    43    1
    46    20    44    1
    47    21    45    1
    48    22    46    1
