@<TRIPOS>MOLECULE
AK-968/11493264
 46 49 0 0 0
SMALL
USER_CHARGES

@<TRIPOS>ATOM
      1 C          -0.4331    2.0856   -1.3264 C.ar    1  LIG1       -0.0982
      2 C           2.2767    6.7018   -2.7329 C.ar    1  LIG1       -0.1054
      3 C           0.4156    2.8806   -0.5561 C.ar    1  LIG1       -0.0887
      4 C           2.9684    3.8458    4.5940 C.ar    1  LIG1       -0.0311
      5 C           0.0782    0.9905   -2.0227 C.ar    1  LIG1       -0.0617
      6 C           2.9417    3.9964    5.9804 C.ar    1  LIG1       -0.0303
      7 C           2.4888    5.5502   -1.9211 C.ar    1  LIG1       -0.0848
      8 C           0.7126    4.9173    5.8375 C.ar    1  LIG1        0.0186
      9 C           1.7008    7.7343   -2.0260 C.ar    1  LIG1       -0.0457
     10 C           1.7759    2.5806   -0.4824 C.ar    1  LIG1       -0.0369
     11 C           1.8672    4.2311    3.8292 C.ar    1  LIG1        0.0353
     12 C           1.4385    0.6905   -1.9490 C.ar    1  LIG1        0.0303
     13 C           2.2873    1.4855   -1.1789 C.ar    1  LIG1        0.0388
     14 C           1.8139    4.5321    6.6022 C.ar    1  LIG1        0.0775
     15 C           0.7394    4.7667    4.4510 C.ar    1  LIG1        0.1264
     16 C           2.0672    5.7466   -0.6243 C.ar    1  LIG1        0.0123
     17 C           2.1102    4.8447    0.4730 C.2     1  LIG1        0.0322
     18 C           2.6597    3.0251    1.8204 C.3     1  LIG1        0.0158
     19 C           2.6686    3.4434    0.3471 C.3     1  LIG1        0.0514
     20 C           0.9892   -1.1417   -3.3972 C.3     1  LIG1        0.0254
     21 C           4.4652    1.7903   -2.0843 C.3     1  LIG1        0.0190
     22 N           1.6739    5.1518    1.6569 N.2     1  LIG1       -0.3119
     23 N           1.8960    4.0817    2.4635 N.pl3   1  LIG1       -0.3228
     24 O           1.9246   -0.3820   -2.6343 O.3     1  LIG1       -0.4087
     25 O           3.6164    1.1885   -1.1097 O.3     1  LIG1       -0.4147
     26 F           1.7882    4.6767    7.9336 F       1  LIG1       -0.2604
     27 F          -0.3245    5.1402    3.7258 F       1  LIG1       -0.2420
     28 S           1.4184    7.3139   -0.3901 S.2     1  LIG1       -0.1147
     29 H          -1.4923    2.3192   -1.3839 H       1  LIG1        0.1284
     30 H           2.5323    6.7688   -3.7824 H       1  LIG1        0.1155
     31 H           0.0075    3.7316   -0.0173 H       1  LIG1        0.1179
     32 H           3.8525    3.4272    4.1199 H       1  LIG1        0.1562
     33 H          -0.5885    0.3753   -2.6209 H       1  LIG1        0.1187
     34 H           3.7988    3.6967    6.5762 H       1  LIG1        0.1438
     35 H           2.9295    4.6269   -2.2756 H       1  LIG1        0.1295
     36 H          -0.1653    5.3343    6.3216 H       1  LIG1        0.1493
     37 H           1.4316    8.7150   -2.3924 H       1  LIG1        0.1655
     38 H           2.2150    2.0396    1.9980 H       1  LIG1        0.1170
     39 H           3.6869    3.0173    2.2061 H       1  LIG1        0.1178
     40 H           3.6757    3.4514   -0.0767 H       1  LIG1        0.1286
     41 H           1.5069   -1.9665   -3.8930 H       1  LIG1        0.1226
     42 H           0.5143   -0.4962   -4.1404 H       1  LIG1        0.0894
     43 H           0.2266   -1.5440   -2.7262 H       1  LIG1        0.0891
     44 H           5.4969    1.4714   -1.9168 H       1  LIG1        0.1171
     45 H           4.3922    2.8782   -2.0102 H       1  LIG1        0.0844
     46 H           4.1449    1.4725   -3.0793 H       1  LIG1        0.0838
@<TRIPOS>BOND
     1     1     3   ar
     2     1     5   ar
     3     2     7   ar
     4     2     9   ar
     5     3    10   ar
     6     4     6   ar
     7     4    11   ar
     8     5    12   ar
     9     6    14   ar
    10     7    16   ar
    11     8    14   ar
    12     8    15   ar
    13     9    28   ar
    14    10    13   ar
    15    10    19    1
    16    11    15   ar
    17    11    23    1
    18    12    13   ar
    19    12    24    1
    20    13    25    1
    21    14    26    1
    22    15    27    1
    23    16    17    1
    24    16    28   ar
    25    17    19    1
    26    17    22    2
    27    18    19    1
    28    18    23    1
    29    20    24    1
    30    21    25    1
    31    22    23    1
    32     1    29    1
    33     2    30    1
    34     3    31    1
    35     4    32    1
    36     5    33    1
    37     6    34    1
    38     7    35    1
    39     8    36    1
    40     9    37    1
    41    18    38    1
    42    18    39    1
    43    19    40    1
    44    20    41    1
    45    20    42    1
    46    20    43    1
    47    21    44    1
    48    21    45    1
    49    21    46    1
