@<TRIPOS>MOLECULE
AO-080/07056026
 36 38 0 0 0
SMALL
USER_CHARGES

@<TRIPOS>ATOM
      1 C           1.0203    0.6001   -1.4681 C.ar    1  LIG1       -0.0932
      2 C           0.0170    1.3273   -2.1307 C.ar    1  LIG1       -0.0908
      3 C           0.9914    4.5527    4.2515 C.ar    1  LIG1       -0.0687
      4 C           3.1938    4.4688    5.2412 C.ar    1  LIG1       -0.0730
      5 C           1.9220    1.2416   -0.6156 C.ar    1  LIG1       -0.0776
      6 C          -0.1005    2.7075   -1.9528 C.ar    1  LIG1       -0.0630
      7 C           0.4231    4.6325    5.5228 C.ar    1  LIG1       -0.0640
      8 C           2.6254    4.5487    6.5126 C.ar    1  LIG1       -0.0669
      9 C           2.3767    4.4708    4.1107 C.ar    1  LIG1       -0.0079
     10 C           1.7986    2.6096   -0.4423 C.ar    1  LIG1       -0.0160
     11 C           0.8014    3.3266   -1.1046 C.ar    1  LIG1       -0.0321
     12 C           1.2401    4.6305    6.6533 C.ar    1  LIG1       -0.0101
     13 C           1.9566    4.9112    0.1285 C.2     1  LIG1        0.1526
     14 C           2.9772    4.3869    2.7681 C.2     1  LIG1        0.0907
     15 C           2.6188    3.5451    0.4015 C.3     1  LIG1        0.1294
     16 C           0.0130    5.6962   -1.2855 C.3     1  LIG1       -0.0033
     17 C           2.5897    3.2047    1.8845 C.3     1  LIG1        0.0872
     18 N           0.8980    4.6824   -0.7629 N.am    1  LIG1       -0.3148
     19 O           2.3242    5.9763    0.6030 O.2     1  LIG1       -0.4305
     20 O           3.7708    5.2320    2.3494 O.2     1  LIG1       -0.4396
     21 O           3.9477    3.5893   -0.0805 O.3     1  LIG1       -0.4411
     22 CL          0.5390    4.7305    8.2215 Cl      1  LIG1       -0.1333
     23 H           1.0943   -0.4732   -1.6220 H       1  LIG1        0.1212
     24 H          -0.6740    0.8082   -2.7897 H       1  LIG1        0.1340
     25 H           0.3454    4.5546    3.3774 H       1  LIG1        0.1504
     26 H           4.2745    4.4058    5.1434 H       1  LIG1        0.1429
     27 H           2.6959    0.6769   -0.1072 H       1  LIG1        0.1402
     28 H          -0.8771    3.2602   -2.4693 H       1  LIG1        0.1272
     29 H          -0.6579    4.6964    5.6178 H       1  LIG1        0.1373
     30 H           3.2746    4.5459    7.3844 H       1  LIG1        0.1364
     31 H          -0.8575    5.8072   -0.6336 H       1  LIG1        0.1111
     32 H          -0.3297    5.4195   -2.2861 H       1  LIG1        0.0977
     33 H           0.5321    6.6565   -1.3458 H       1  LIG1        0.0978
     34 H           3.2898    2.3828    2.0677 H       1  LIG1        0.1099
     35 H           1.5770    2.8834    2.1493 H       1  LIG1        0.1123
     36 H           4.4403    4.2031    0.4914 H       1  LIG1        0.3477
@<TRIPOS>BOND
     1     1     2   ar
     2     1     5   ar
     3     2     6   ar
     4     3     7   ar
     5     3     9   ar
     6     4     8   ar
     7     4     9   ar
     8     5    10   ar
     9     6    11   ar
    10     7    12   ar
    11     8    12   ar
    12     9    14    1
    13    10    11   ar
    14    10    15    1
    15    11    18    1
    16    12    22    1
    17    13    15    1
    18    13    18   am
    19    13    19    2
    20    14    17    1
    21    14    20    2
    22    15    17    1
    23    15    21    1
    24    16    18    1
    25     1    23    1
    26     2    24    1
    27     3    25    1
    28     4    26    1
    29     5    27    1
    30     6    28    1
    31     7    29    1
    32     8    30    1
    33    16    31    1
    34    16    32    1
    35    16    33    1
    36    17    34    1
    37    17    35    1
    38    21    36    1
