@<TRIPOS>MOLECULE
AK-968/14004053
 43 46 0 0 0
SMALL
USER_CHARGES

@<TRIPOS>ATOM
      1 C           1.2273    0.3967   -0.8652 C.ar    1  LIG1       -0.0968
      2 C           3.0752    7.4712   -1.3867 C.ar    1  LIG1       -0.0999
      3 C          -0.0705    0.7959   -1.1769 C.ar    1  LIG1       -0.0906
      4 C           1.7368    7.7155   -1.6863 C.ar    1  LIG1       -0.0900
      5 C           1.1612    4.6480    5.1956 C.ar    1  LIG1       -0.0897
      6 C           2.3297    4.3995    5.9158 C.ar    1  LIG1       -0.0808
      7 C           2.2237    1.3536   -0.6682 C.ar    1  LIG1       -0.0873
      8 C           3.4864    6.1879   -1.0249 C.ar    1  LIG1       -0.0949
      9 C           1.1643    4.5458    3.8045 C.ar    1  LIG1       -0.0662
     10 C          -0.3721    2.1515   -1.2965 C.ar    1  LIG1       -0.0507
     11 C           0.8098    6.6763   -1.6293 C.ar    1  LIG1       -0.0493
     12 C           3.5043    3.9468    3.8535 C.ar    1  LIG1       -0.0405
     13 C           3.5012    4.0490    5.2447 C.ar    1  LIG1       -0.0052
     14 C           1.9314    2.7209   -0.7825 C.ar    1  LIG1       -0.0282
     15 C           2.5619    5.1345   -0.9601 C.ar    1  LIG1       -0.0347
     16 C           2.3358    4.1953    3.1334 C.ar    1  LIG1       -0.0452
     17 C           0.6272    3.1100   -1.1055 C.ar    1  LIG1        0.0249
     18 C           1.2225    5.3892   -1.2730 C.ar    1  LIG1        0.0227
     19 C           4.7187    3.7902    5.9966 C.2     1  LIG1        0.0691
     20 C           3.4076    3.7554    0.9014 C.2     1  LIG1        0.1100
     21 C           3.0008    3.7549   -0.5435 C.3     1  LIG1        0.0934
     22 C           4.9034    4.5259    7.2920 C.3     1  LIG1        0.0330
     23 N           2.3385    4.0915    1.7222 N.am    1  LIG1       -0.3108
     24 O           5.6129    3.0160    5.6488 O.2     1  LIG1       -0.4652
     25 O           4.5567    3.4793    1.2306 O.2     1  LIG1       -0.4631
     26 O           0.2449    4.4224   -1.2547 O.3     1  LIG1       -0.3561
     27 H           1.4635   -0.6594   -0.7732 H       1  LIG1        0.1196
     28 H           3.7984    8.2801   -1.4322 H       1  LIG1        0.1205
     29 H          -0.8466    0.0515   -1.3283 H       1  LIG1        0.1337
     30 H           1.4162    8.7148   -1.9658 H       1  LIG1        0.1353
     31 H           0.2489    4.9205    5.7180 H       1  LIG1        0.1279
     32 H           2.3156    4.4832    6.9992 H       1  LIG1        0.1323
     33 H           3.2308    1.0266   -0.4211 H       1  LIG1        0.1310
     34 H           4.5335    6.0140   -0.7893 H       1  LIG1        0.1253
     35 H           0.2478    4.7423    3.2533 H       1  LIG1        0.1334
     36 H          -1.3859    2.4548   -1.5439 H       1  LIG1        0.1345
     37 H          -0.2319    6.8741   -1.8682 H       1  LIG1        0.1371
     38 H           4.4184    3.6745    3.3299 H       1  LIG1        0.1602
     39 H           3.8770    3.4812   -1.1459 H       1  LIG1        0.1491
     40 H           4.4963    3.9970    8.1682 H       1  LIG1        0.0743
     41 H           4.4648    5.5358    7.2828 H       1  LIG1        0.0754
     42 H           5.9642    4.6886    7.5533 H       1  LIG1        0.0816
     43 H           1.4484    4.2874    1.2689 H       1  LIG1        0.3208
@<TRIPOS>BOND
     1     1     3   ar
     2     1     7   ar
     3     2     4   ar
     4     2     8   ar
     5     3    10   ar
     6     4    11   ar
     7     5     6   ar
     8     5     9   ar
     9     6    13   ar
    10     7    14   ar
    11     8    15   ar
    12     9    16   ar
    13    10    17   ar
    14    11    18   ar
    15    12    13   ar
    16    12    16   ar
    17    13    19    1
    18    14    17   ar
    19    14    21    1
    20    15    18   ar
    21    15    21    1
    22    16    23    1
    23    17    26    1
    24    18    26    1
    25    19    22    1
    26    19    24    2
    27    20    21    1
    28    20    23   am
    29    20    25    2
    30     1    27    1
    31     2    28    1
    32     3    29    1
    33     4    30    1
    34     5    31    1
    35     6    32    1
    36     7    33    1
    37     8    34    1
    38     9    35    1
    39    10    36    1
    40    11    37    1
    41    12    38    1
    42    21    39    1
    43    22    40    1
    44    22    41    1
    45    22    42    1
    46    23    43    1
