@<TRIPOS>MOLECULE
AG-690/36921098
 47 50 0 0 0
SMALL
USER_CHARGES

@<TRIPOS>ATOM
      1 C           1.7687    4.8127    6.0966 C.ar    1  LIG1       -0.1001
      2 C           1.7855    7.6316   -2.0035 C.ar    1  LIG1       -0.1059
      3 C           0.7116    5.1140    5.2381 C.ar    1  LIG1       -0.0917
      4 C           2.8739    4.1069    5.6210 C.ar    1  LIG1       -0.0972
      5 C           2.5725    6.7313   -2.7216 C.ar    1  LIG1       -0.1037
      6 C           1.3526    7.3080   -0.7175 C.ar    1  LIG1       -0.1041
      7 C           0.7594    4.7095    3.9041 C.ar    1  LIG1       -0.0620
      8 C           2.9218    3.7023    4.2869 C.ar    1  LIG1       -0.0703
      9 C           2.9265    5.5074   -2.1539 C.ar    1  LIG1       -0.0940
     10 C           1.7066    6.0840   -0.1498 C.ar    1  LIG1       -0.0945
     11 C           0.0350    1.3298   -0.0489 C.ar    1  LIG1       -0.0480
     12 C           0.0114    0.8271   -1.3499 C.ar    1  LIG1       -0.0695
     13 C           1.8447    2.2780   -1.9415 C.ar    1  LIG1       -0.0647
     14 C           1.8645    4.0037    3.4284 C.ar    1  LIG1        0.0071
     15 C           2.4935    5.1837   -0.8680 C.ar    1  LIG1       -0.0717
     16 C           1.8741    2.7911   -0.6353 C.ar    1  LIG1       -0.0278
     17 C           0.9642    2.3099    0.3208 C.ar    1  LIG1       -0.0184
     18 C           0.9169    1.2999   -2.2954 C.ar    1  LIG1       -0.0387
     19 C           1.9148    3.5774    2.0227 C.2     1  LIG1        0.0395
     20 C           5.1100    5.1352    0.6614 C.2     1  LIG1        0.1703
     21 C           2.8734    3.8684   -0.2574 C.3     1  LIG1        0.0282
     22 C           7.0650    4.4586   -0.4858 C.3     1  LIG1        0.0322
     23 C           4.1035    4.7703    1.7272 C.3     1  LIG1        0.1089
     24 N           0.9524    2.7814    1.6450 N.2     1  LIG1       -0.3551
     25 N           2.9613    4.0226    1.2080 N.pl3   1  LIG1       -0.3281
     26 O           5.0358    6.1806    0.0239 O.2     1  LIG1       -0.4513
     27 O           6.0727    4.1847    0.5090 O.3     1  LIG1       -0.3639
     28 BR          0.8866    0.6183   -4.0577 Br      1  LIG1       -0.1167
     29 H           1.7315    5.1277    7.1353 H       1  LIG1        0.1248
     30 H           1.5110    8.5851   -2.4452 H       1  LIG1        0.1169
     31 H          -0.1490    5.6634    5.6086 H       1  LIG1        0.1232
     32 H           3.6973    3.8725    6.2894 H       1  LIG1        0.1223
     33 H           2.9106    6.9835   -3.7224 H       1  LIG1        0.1162
     34 H           0.7408    8.0091   -0.1577 H       1  LIG1        0.1175
     35 H          -0.0700    4.9497    3.2437 H       1  LIG1        0.1437
     36 H           3.7880    3.1528    3.9273 H       1  LIG1        0.1300
     37 H           3.5398    4.8120   -2.7210 H       1  LIG1        0.1191
     38 H           1.3646    5.8404    0.8526 H       1  LIG1        0.1195
     39 H          -0.6770    0.9496    0.6799 H       1  LIG1        0.1458
     40 H          -0.7201    0.0656   -1.6077 H       1  LIG1        0.1399
     41 H           2.5532    2.6512   -2.6783 H       1  LIG1        0.1386
     42 H           3.8576    3.5737   -0.6416 H       1  LIG1        0.1619
     43 H           7.7823    3.6351   -0.5224 H       1  LIG1        0.0952
     44 H           7.5782    5.3923   -0.2424 H       1  LIG1        0.0954
     45 H           6.5762    4.5565   -1.4579 H       1  LIG1        0.1251
     46 H           3.7184    5.6875    2.1804 H       1  LIG1        0.1810
     47 H           4.5898    4.1449    2.4800 H       1  LIG1        0.1747
@<TRIPOS>BOND
     1     1     3   ar
     2     1     4   ar
     3     2     5   ar
     4     2     6   ar
     5     3     7   ar
     6     4     8   ar
     7     5     9   ar
     8     6    10   ar
     9     7    14   ar
    10     8    14   ar
    11     9    15   ar
    12    10    15   ar
    13    11    12   ar
    14    11    17   ar
    15    12    18   ar
    16    13    16   ar
    17    13    18   ar
    18    14    19    1
    19    15    21    1
    20    16    17   ar
    21    16    21    1
    22    17    24    1
    23    18    28    1
    24    19    24    2
    25    19    25    1
    26    20    23    1
    27    20    26    2
    28    20    27    1
    29    21    25    1
    30    22    27    1
    31    23    25    1
    32     1    29    1
    33     2    30    1
    34     3    31    1
    35     4    32    1
    36     5    33    1
    37     6    34    1
    38     7    35    1
    39     8    36    1
    40     9    37    1
    41    10    38    1
    42    11    39    1
    43    12    40    1
    44    13    41    1
    45    21    42    1
    46    22    43    1
    47    22    44    1
    48    22    45    1
    49    23    46    1
    50    23    47    1
