@<TRIPOS>MOLECULE
AH-357/03460047
 41 43 0 0 0
SMALL
USER_CHARGES

@<TRIPOS>ATOM
      1 C           0.9516    4.6828    6.1691 C.ar    1  LIG1       -0.1015
      2 C           0.1493    0.8739   -1.8660 C.ar    1  LIG1       -0.1059
      3 C           1.4265    7.5661   -2.3358 C.ar    1  LIG1       -0.1059
      4 C           0.4384    4.4064    4.9019 C.ar    1  LIG1       -0.0997
      5 C           2.3279    4.6322    6.3904 C.ar    1  LIG1       -0.0971
      6 C          -0.1470    2.2351   -1.7977 C.ar    1  LIG1       -0.1053
      7 C           1.2110    0.3532   -1.1261 C.ar    1  LIG1       -0.1029
      8 C           1.5156    7.5026   -0.9453 C.ar    1  LIG1       -0.1071
      9 C           2.0785    6.6152   -3.1208 C.ar    1  LIG1       -0.1013
     10 C           1.3015    4.0794    3.8561 C.ar    1  LIG1       -0.0850
     11 C           3.1910    4.3050    5.3446 C.ar    1  LIG1       -0.0811
     12 C           0.6185    3.0758   -0.9898 C.ar    1  LIG1       -0.1024
     13 C           1.9764    1.1939   -0.3182 C.ar    1  LIG1       -0.0988
     14 C           2.2570    6.4880   -0.3397 C.ar    1  LIG1       -0.0973
     15 C           2.8198    5.6006   -2.5152 C.ar    1  LIG1       -0.0910
     16 C           2.6778    4.0287    4.0774 C.ar    1  LIG1       -0.0142
     17 C           1.6802    2.5552   -0.2499 C.ar    1  LIG1       -0.0976
     18 C           2.9091    5.5370   -1.1246 C.ar    1  LIG1       -0.0688
     19 C           3.5775    3.6876    2.9869 C.2     1  LIG1        0.0816
     20 C           3.0937    2.7514    1.8596 C.3     1  LIG1        0.0541
     21 C           2.5102    3.4655    0.6256 C.3     1  LIG1        0.0197
     22 O           4.7422    4.1311    2.9672 O.2     1  LIG1       -0.4494
     23 S           3.8463    4.2553   -0.3592 S.3     1  LIG1       -0.1884
     24 H           0.2797    4.9374    6.9834 H       1  LIG1        0.1256
     25 H          -0.4478    0.2192   -2.4941 H       1  LIG1        0.1167
     26 H           0.8492    8.3564   -2.8068 H       1  LIG1        0.1142
     27 H          -0.6332    4.4458    4.7298 H       1  LIG1        0.1194
     28 H           2.7276    4.8476    7.3771 H       1  LIG1        0.1203
     29 H          -0.9744    2.6405   -2.3728 H       1  LIG1        0.1171
     30 H           1.4413   -0.7068   -1.1782 H       1  LIG1        0.1181
     31 H           1.0084    8.2431   -0.3338 H       1  LIG1        0.1178
     32 H           2.0085    6.6653   -4.2034 H       1  LIG1        0.1220
     33 H           0.8908    3.8659    2.8725 H       1  LIG1        0.1307
     34 H           4.2616    4.2685    5.5286 H       1  LIG1        0.1373
     35 H           0.3805    4.1352   -0.9429 H       1  LIG1        0.1177
     36 H           2.8020    0.7794    0.2547 H       1  LIG1        0.1242
     37 H           2.3151    6.4550    0.7456 H       1  LIG1        0.1188
     38 H           3.3213    4.8686   -3.1437 H       1  LIG1        0.1230
     39 H           2.3521    2.0627    2.2816 H       1  LIG1        0.1047
     40 H           3.9682    2.1634    1.5517 H       1  LIG1        0.1077
     41 H           1.8774    4.2922    0.9715 H       1  LIG1        0.1095
@<TRIPOS>BOND
     1     1     4   ar
     2     1     5   ar
     3     2     6   ar
     4     2     7   ar
     5     3     8   ar
     6     3     9   ar
     7     4    10   ar
     8     5    11   ar
     9     6    12   ar
    10     7    13   ar
    11     8    14   ar
    12     9    15   ar
    13    10    16   ar
    14    11    16   ar
    15    12    17   ar
    16    13    17   ar
    17    14    18   ar
    18    15    18   ar
    19    16    19    1
    20    17    21    1
    21    18    23    1
    22    19    20    1
    23    19    22    2
    24    20    21    1
    25    21    23    1
    26     1    24    1
    27     2    25    1
    28     3    26    1
    29     4    27    1
    30     5    28    1
    31     6    29    1
    32     7    30    1
    33     8    31    1
    34     9    32    1
    35    10    33    1
    36    11    34    1
    37    12    35    1
    38    13    36    1
    39    14    37    1
    40    15    38    1
    41    20    39    1
    42    20    40    1
    43    21    41    1
