@<TRIPOS>MOLECULE
AJ-091/33279013
 40 43 0 0 0
SMALL
USER_CHARGES

@<TRIPOS>ATOM
      1 C           0.4413    1.2237   -2.4907 C.ar    1  LIG1       -0.1047
      2 C          -0.2207    2.2583   -1.8298 C.ar    1  LIG1       -0.1023
      3 C           1.5554    0.6224   -1.9052 C.ar    1  LIG1       -0.1024
      4 C           2.4551    5.3380    5.8076 C.ar    1  LIG1       -0.0851
      5 C           1.8905    4.0988    6.0903 C.ar    1  LIG1       -0.0937
      6 C           3.3803    6.0567   -0.8610 C.ar    1  LIG1       -0.0621
      7 C           0.9725    6.1657   -0.6939 C.ar    1  LIG1       -0.0680
      8 C           0.2314    2.6918   -0.5835 C.ar    1  LIG1       -0.0970
      9 C           2.0077    1.0558   -0.6588 C.ar    1  LIG1       -0.0968
     10 C           2.4118    5.8423    4.5079 C.ar    1  LIG1       -0.0522
     11 C           1.2831    3.3621    5.0742 C.ar    1  LIG1       -0.0821
     12 C           3.3242    6.7063   -2.0941 C.ar    1  LIG1       -0.0733
     13 C           0.9164    6.8154   -1.9270 C.ar    1  LIG1       -0.0771
     14 C           2.2045    5.7865   -0.1609 C.ar    1  LIG1       -0.0207
     15 C           1.3456    2.0905    0.0020 C.ar    1  LIG1       -0.0937
     16 C           1.8161    5.1108    3.4699 C.ar    1  LIG1       -0.0320
     17 C           1.2460    3.8569    3.7630 C.ar    1  LIG1       -0.0291
     18 C           2.0922    7.0857   -2.6270 C.ar    1  LIG1       -0.0402
     19 C           2.2645    5.0925    1.1561 C.2     1  LIG1       -0.0195
     20 C           2.8771    3.6955    1.2256 C.3     1  LIG1        0.0272
     21 C           1.8397    2.5632    1.3619 C.3     1  LIG1        0.0157
     22 N           1.7745    5.7058    2.1937 N.2     1  LIG1       -0.4005
     23 S           0.4313    2.8758    2.5126 S.3     1  LIG1       -0.1828
     24 BR          2.0163    7.9659   -4.2977 Br      1  LIG1       -0.1100
     25 H           0.0883    0.8854   -3.4605 H       1  LIG1        0.1186
     26 H          -1.0889    2.7260   -2.2851 H       1  LIG1        0.1191
     27 H           2.0705   -0.1840   -2.4189 H       1  LIG1        0.1191
     28 H           2.9346    5.9104    6.5962 H       1  LIG1        0.1269
     29 H           1.9270    3.7025    7.1009 H       1  LIG1        0.1295
     30 H           4.3456    5.7655   -0.4549 H       1  LIG1        0.1486
     31 H           0.0502    5.9601   -0.1568 H       1  LIG1        0.1390
     32 H          -0.2905    3.4988   -0.0760 H       1  LIG1        0.1214
     33 H           2.8766    0.5815   -0.2104 H       1  LIG1        0.1229
     34 H           2.8490    6.8177    4.3061 H       1  LIG1        0.1437
     35 H           0.8383    2.4012    5.3219 H       1  LIG1        0.1288
     36 H           4.2496    6.9095   -2.6268 H       1  LIG1        0.1348
     37 H          -0.0516    7.1044   -2.3283 H       1  LIG1        0.1353
     38 H           3.5431    3.5429    0.3543 H       1  LIG1        0.0983
     39 H           3.5632    3.6570    2.0940 H       1  LIG1        0.0962
     40 H           2.3768    1.6767    1.8067 H       1  LIG1        0.1001
@<TRIPOS>BOND
     1     1     2   ar
     2     1     3   ar
     3     2     8   ar
     4     3     9   ar
     5     4     5   ar
     6     4    10   ar
     7     5    11   ar
     8     6    12   ar
     9     6    14   ar
    10     7    13   ar
    11     7    14   ar
    12     8    15   ar
    13     9    15   ar
    14    10    16   ar
    15    11    17   ar
    16    12    18   ar
    17    13    18   ar
    18    14    19    1
    19    15    21    1
    20    16    17   ar
    21    16    22    1
    22    17    23    1
    23    18    24    1
    24    19    20    1
    25    19    22    2
    26    20    21    1
    27    21    23    1
    28     1    25    1
    29     2    26    1
    30     3    27    1
    31     4    28    1
    32     5    29    1
    33     6    30    1
    34     7    31    1
    35     8    32    1
    36     9    33    1
    37    10    34    1
    38    11    35    1
    39    12    36    1
    40    13    37    1
    41    20    38    1
    42    20    39    1
    43    21    40    1
