@<TRIPOS>MOLECULE
AO-081/41547435
 53 58 0 0 0
SMALL
USER_CHARGES

@<TRIPOS>ATOM
      1 C           1.4642    6.9453   -2.4990 C.ar    1  LIG1       -0.1034
      2 C           4.0708    9.1125    3.7771 C.ar    1  LIG1       -0.1039
      3 C           1.5390    4.7187    6.3814 C.ar    1  LIG1       -0.1034
      4 C           2.7914    6.5850   -2.2658 C.ar    1  LIG1       -0.1017
      5 C           0.5432    6.9310   -1.4516 C.ar    1  LIG1       -0.1010
      6 C           2.7659    9.0948    3.2845 C.ar    1  LIG1       -0.1008
      7 C           4.9328    8.0497    3.5068 C.ar    1  LIG1       -0.1002
      8 C           2.4617    3.8512    5.7967 C.ar    1  LIG1       -0.0980
      9 C           0.7721    5.5645    5.5800 C.ar    1  LIG1       -0.1019
     10 C           1.8028    0.0136   -1.7394 C.ar    1  LIG1       -0.0773
     11 C           3.1975    6.2102   -0.9850 C.ar    1  LIG1       -0.0958
     12 C           0.9493    6.5561   -0.1708 C.ar    1  LIG1       -0.0944
     13 C           2.3230    8.0141    2.5216 C.ar    1  LIG1       -0.0905
     14 C           4.4899    6.9691    2.7441 C.ar    1  LIG1       -0.0891
     15 C           2.6177    3.8297    4.4107 C.ar    1  LIG1       -0.0885
     16 C           0.9281    5.5430    4.1941 C.ar    1  LIG1       -0.0939
     17 C           2.2853    0.9899   -0.8680 C.ar    1  LIG1       -0.0528
     18 C           0.4810    0.0655   -2.1819 C.ar    1  LIG1       -0.0651
     19 C           0.1243    2.0700   -0.8815 C.ar    1  LIG1       -0.0303
     20 C           2.2764    6.1958    0.0625 C.ar    1  LIG1       -0.0874
     21 C           3.1851    6.9513    2.2515 C.ar    1  LIG1       -0.0800
     22 C           1.8508    4.6757    3.6094 C.ar    1  LIG1       -0.0700
     23 C           1.4461    2.0181   -0.4390 C.ar    1  LIG1       -0.0012
     24 C          -0.3583    1.0937   -1.7529 C.ar    1  LIG1        0.0000
     25 C           3.2728    3.4369    0.4969 C.2     1  LIG1        0.1534
     26 C           1.1514    3.7044    1.3793 C.2     1  LIG1        0.1661
     27 C           3.4054    4.4669    1.5597 C.3     1  LIG1        0.1112
     28 C           2.7110    5.7931    1.4356 C.3     1  LIG1        0.0339
     29 C           2.0179    4.6539    2.1266 C.3     1  LIG1        0.1132
     30 N           1.9432    3.0206    0.4577 N.am    1  LIG1       -0.2065
     31 O           4.2334    3.1310   -0.1899 O.2     1  LIG1       -0.4287
     32 O          -0.0320    3.6014    1.6572 O.2     1  LIG1       -0.4156
     33 CL         -1.9891    1.1579   -2.2990 Cl      1  LIG1       -0.1334
     34 H           1.1481    7.2372   -3.4962 H       1  LIG1        0.1203
     35 H           4.4156    9.9540    4.3707 H       1  LIG1        0.1183
     36 H           1.4174    4.7352    7.4605 H       1  LIG1        0.1190
     37 H           3.5089    6.5962   -3.0812 H       1  LIG1        0.1202
     38 H          -0.4903    7.2114   -1.6335 H       1  LIG1        0.1205
     39 H           2.0944    9.9222    3.4945 H       1  LIG1        0.1189
     40 H           5.9488    8.0637    3.8907 H       1  LIG1        0.1187
     41 H           3.0589    3.1923    6.4205 H       1  LIG1        0.1199
     42 H           0.0538    6.2401    6.0355 H       1  LIG1        0.1188
     43 H           2.4564   -0.7871   -2.0735 H       1  LIG1        0.1403
     44 H           4.2335    5.9306   -0.8134 H       1  LIG1        0.1215
     45 H           0.2235    6.5477    0.6383 H       1  LIG1        0.1245
     46 H           1.3045    8.0091    2.1429 H       1  LIG1        0.1216
     47 H           5.1695    6.1457    2.5399 H       1  LIG1        0.1250
     48 H           3.3396    3.1509    3.9647 H       1  LIG1        0.1262
     49 H           0.3261    6.2067    3.5788 H       1  LIG1        0.1189
     50 H           3.3174    0.9390   -0.5297 H       1  LIG1        0.1414
     51 H           0.1193   -0.7021   -2.8611 H       1  LIG1        0.1417
     52 H          -0.5273    2.8736   -0.5452 H       1  LIG1        0.1479
     53 H           4.2404    4.3596    2.2421 H       1  LIG1        0.1535
@<TRIPOS>BOND
     1     1     4   ar
     2     1     5   ar
     3     2     6   ar
     4     2     7   ar
     5     3     8   ar
     6     3     9   ar
     7     4    11   ar
     8     5    12   ar
     9     6    13   ar
    10     7    14   ar
    11     8    15   ar
    12     9    16   ar
    13    10    17   ar
    14    10    18   ar
    15    11    20   ar
    16    12    20   ar
    17    13    21   ar
    18    14    21   ar
    19    15    22   ar
    20    16    22   ar
    21    17    23   ar
    22    18    24   ar
    23    19    23   ar
    24    19    24   ar
    25    20    28    1
    26    21    28    1
    27    22    29    1
    28    23    30    1
    29    24    33    1
    30    25    27    1
    31    25    30   am
    32    25    31    2
    33    26    29    1
    34    26    30   am
    35    26    32    2
    36    27    28    1
    37    27    29    1
    38    28    29    1
    39     1    34    1
    40     2    35    1
    41     3    36    1
    42     4    37    1
    43     5    38    1
    44     6    39    1
    45     7    40    1
    46     8    41    1
    47     9    42    1
    48    10    43    1
    49    11    44    1
    50    12    45    1
    51    13    46    1
    52    14    47    1
    53    15    48    1
    54    16    49    1
    55    17    50    1
    56    18    51    1
    57    19    52    1
    58    27    53    1
