@<TRIPOS>MOLECULE
AK-830/13217184
 31 33 0 0 0
SMALL
USER_CHARGES

@<TRIPOS>ATOM
      1 C           0.1797    0.6884   -1.8042 C.ar    1  LIG1       -0.1040
      2 C          -0.4767    1.8438   -1.3804 C.ar    1  LIG1       -0.1032
      3 C           1.5600    0.5709   -1.6413 C.ar    1  LIG1       -0.1008
      4 C           0.2471    2.8819   -0.7938 C.ar    1  LIG1       -0.0903
      5 C           2.2840    1.6089   -1.0548 C.ar    1  LIG1       -0.0861
      6 C           1.5985    7.5278   -0.9576 C.ar    1  LIG1       -0.0481
      7 C           2.0282    7.5674   -2.2837 C.ar    1  LIG1       -0.0601
      8 C           2.7200    5.2623   -2.1263 C.ar    1  LIG1       -0.0423
      9 C           1.6275    2.7645   -0.6309 C.ar    1  LIG1       -0.0423
     10 C           2.2863    5.2036   -0.7889 C.ar    1  LIG1        0.0074
     11 C           1.7223    6.3566   -0.1983 C.ar    1  LIG1       -0.0166
     12 C           2.5896    6.4361   -2.8671 C.ar    1  LIG1       -0.0086
     13 C           1.4391    5.2957    1.8203 C.2     1  LIG1        0.0019
     14 C           2.4243    3.9057    0.0139 C.3     1  LIG1        0.0461
     15 N           1.2800    6.3861    1.1406 N.2     1  LIG1       -0.3748
     16 N           1.9700    4.1045    1.3931 N.pl3   1  LIG1       -0.4966
     17 N           2.1226    3.0934    2.3431 N.3     1  LIG1        0.3739
     18 O           3.8266    3.6140    0.0222 O.3     1  LIG1       -0.4251
     19 CL          3.1233    6.4859   -4.5024 Cl      1  LIG1       -0.1459
     20 H          -0.3844   -0.1203   -2.2597 H       1  LIG1        0.1206
     21 H          -1.5517    1.9350   -1.5061 H       1  LIG1        0.1183
     22 H           2.0713   -0.3290   -1.9701 H       1  LIG1        0.1208
     23 H          -0.2727    3.7786   -0.4667 H       1  LIG1        0.1171
     24 H           3.3591    1.5087   -0.9320 H       1  LIG1        0.1289
     25 H           1.1656    8.4220   -0.5149 H       1  LIG1        0.1488
     26 H           1.9198    8.4900   -2.8480 H       1  LIG1        0.1418
     27 H           3.1611    4.3809   -2.5879 H       1  LIG1        0.1488
     28 H           1.1219    5.2874    2.8775 H       1  LIG1        0.2955
     29 H           2.3269    3.4954    3.2663 H       1  LIG1        0.0221
     30 H           2.9412    2.5144    2.1201 H       1  LIG1       -0.0004
     31 H           4.2630    4.3721    0.4405 H       1  LIG1        0.3528
@<TRIPOS>BOND
     1     1     2   ar
     2     1     3   ar
     3     2     4   ar
     4     3     5   ar
     5     4     9   ar
     6     5     9   ar
     7     6     7   ar
     8     6    11   ar
     9     7    12   ar
    10     8    10   ar
    11     8    12   ar
    12     9    14    1
    13    10    11   ar
    14    10    14    1
    15    11    15    1
    16    12    19    1
    17    13    15    2
    18    13    16    1
    19    14    16    1
    20    14    18    1
    21    16    17    1
    22     1    20    1
    23     2    21    1
    24     3    22    1
    25     4    23    1
    26     5    24    1
    27     6    25    1
    28     7    26    1
    29     8    27    1
    30    13    28    1
    31    17    29    1
    32    17    30    1
    33    18    31    1
