@<TRIPOS>MOLECULE
ZINC00384366
 39 42 0 0 0
SMALL
USER_CHARGES

@<TRIPOS>ATOM
      1 C           0.6373    1.3605   -2.1422 C.ar    1  LIG1       -0.0989
      2 C          -0.3029    2.1294   -1.4563 C.ar    1  LIG1       -0.0912
      3 C           1.9368    1.2440   -1.6486 C.ar    1  LIG1       -0.0949
      4 C           2.1365    4.9362    6.1728 C.ar    1  LIG1       -0.0874
      5 C           1.1144    3.9901    6.1304 C.ar    1  LIG1       -0.0815
      6 C           2.5892    6.3602   -2.9697 C.ar    1  LIG1       -0.0880
      7 C           0.0564    2.7820   -0.2771 C.ar    1  LIG1       -0.0621
      8 C           2.2960    1.8966   -0.4693 C.ar    1  LIG1       -0.0673
      9 C           2.8263    5.2713    5.0087 C.ar    1  LIG1       -0.0610
     10 C           0.7783    3.3760    4.9225 C.ar    1  LIG1       -0.0488
     11 C           3.2162    5.5366   -2.0347 C.ar    1  LIG1       -0.0619
     12 C           1.4733    7.1112   -2.6003 C.ar    1  LIG1       -0.0732
     13 C           1.6114    6.2152   -0.3610 C.ar    1  LIG1       -0.0344
     14 C           1.3558    2.6655    0.2166 C.ar    1  LIG1        0.0170
     15 C           2.4862    4.6529    3.8008 C.ar    1  LIG1        0.0630
     16 C           1.4602    3.7005    3.7443 C.ar    1  LIG1       -0.0008
     17 C           2.7274    5.4641   -0.7304 C.ar    1  LIG1       -0.0375
     18 C           0.9844    7.0387   -1.2960 C.ar    1  LIG1       -0.0081
     19 C           1.7361    3.3565    1.4651 C.ar    1  LIG1        0.0952
     20 C           3.2033    5.0017    2.5541 C.ar    1  LIG1        0.1751
     21 N           1.0926    3.0550    2.5513 N.ar    1  LIG1       -0.3353
     22 N           2.7611    4.3044    1.4294 N.ar    1  LIG1       -0.2103
     23 N           3.3590    4.6342    0.2111 N.pl3   1  LIG1       -0.3142
     24 O           4.0956    5.8438    2.5696 O.2     1  LIG1       -0.4403
     25 CL         -0.3930    7.9649   -0.8415 Cl      1  LIG1       -0.1324
     26 H           0.3576    0.8525   -3.0603 H       1  LIG1        0.1266
     27 H          -1.3146    2.2201   -1.8409 H       1  LIG1        0.1237
     28 H           2.6688    0.6451   -2.1825 H       1  LIG1        0.1221
     29 H           2.3960    5.4130    7.1136 H       1  LIG1        0.1267
     30 H           0.5777    3.7297    7.0382 H       1  LIG1        0.1394
     31 H           2.9699    6.4156   -3.9854 H       1  LIG1        0.1377
     32 H          -0.6843    3.3785    0.2494 H       1  LIG1        0.1430
     33 H           3.3115    1.7988   -0.0941 H       1  LIG1        0.1349
     34 H           3.6195    6.0117    5.0613 H       1  LIG1        0.1475
     35 H          -0.0215    2.6393    4.9068 H       1  LIG1        0.1469
     36 H           4.0851    4.9557   -2.3327 H       1  LIG1        0.1132
     37 H           0.9947    7.7486   -3.3394 H       1  LIG1        0.1253
     38 H           1.2333    6.1553    0.6575 H       1  LIG1        0.1359
     39 H           4.1683    4.1002   -0.0883 H       1  LIG1        0.3568
@<TRIPOS>BOND
     1     1     2   ar
     2     1     3   ar
     3     2     7   ar
     4     3     8   ar
     5     4     5   ar
     6     4     9   ar
     7     5    10   ar
     8     6    11   ar
     9     6    12   ar
    10     7    14   ar
    11     8    14   ar
    12     9    15   ar
    13    10    16   ar
    14    11    17   ar
    15    12    18   ar
    16    13    17   ar
    17    13    18   ar
    18    14    19    1
    19    15    16   ar
    20    15    20   ar
    21    16    21   ar
    22    17    23    1
    23    18    25    1
    24    19    21   ar
    25    19    22   ar
    26    20    22   ar
    27    20    24    2
    28    22    23    1
    29     1    26    1
    30     2    27    1
    31     3    28    1
    32     4    29    1
    33     5    30    1
    34     6    31    1
    35     7    32    1
    36     8    33    1
    37     9    34    1
    38    10    35    1
    39    11    36    1
    40    12    37    1
    41    13    38    1
    42    23    39    1
