@<TRIPOS>MOLECULE
AG-690/08640037
 38 41 0 0 0
SMALL
USER_CHARGES

@<TRIPOS>ATOM
      1 C           1.8996    4.5968    6.3713 C.ar    1  LIG1       -0.1033
      2 C           0.8185    1.4178   -2.0697 C.ar    1  LIG1       -0.0900
      3 C           0.6681    4.2145    5.8395 C.ar    1  LIG1       -0.0955
      4 C           3.0236    4.6658    5.5480 C.ar    1  LIG1       -0.0962
      5 C           1.4470    7.2864   -2.0784 C.ar    1  LIG1       -0.0730
      6 C           0.5091    0.4845   -1.0866 C.ar    1  LIG1       -0.0790
      7 C           2.7549    7.4511   -2.5343 C.ar    1  LIG1       -0.0716
      8 C           1.2438    2.6897   -1.6992 C.ar    1  LIG1       -0.0749
      9 C           0.5606    3.9011    4.4846 C.ar    1  LIG1       -0.0642
     10 C           2.9161    4.3524    4.1931 C.ar    1  LIG1       -0.0653
     11 C           1.1374    6.2381   -1.2117 C.ar    1  LIG1       -0.0458
     12 C           0.6259    0.8245    0.2644 C.ar    1  LIG1       -0.0426
     13 C           3.7532    6.5677   -2.1236 C.ar    1  LIG1       -0.0359
     14 C           1.3587    3.0240   -0.3386 C.ar    1  LIG1        0.0075
     15 C           1.6845    3.9700    3.6614 C.ar    1  LIG1        0.0061
     16 C           2.1356    5.3547   -0.8010 C.ar    1  LIG1        0.0328
     17 C           1.0494    2.0899    0.6635 C.ar    1  LIG1       -0.0029
     18 C           3.4436    5.5194   -1.2570 C.ar    1  LIG1        0.0966
     19 C           1.7781    4.2771    0.0988 C.ar    1  LIG1        0.0363
     20 C           1.5731    3.6467    2.2629 C.ar    1  LIG1        0.0570
     21 N           1.1558    2.3988    1.9678 N.ar    1  LIG1       -0.3440
     22 N           1.8956    4.6197    1.3956 N.ar    1  LIG1       -0.3259
     23 N           4.4875    4.6365   -0.8584 N.pl3   1  LIG1       -0.0398
     24 O           5.6441    4.8314   -1.2984 O.2     1  LIG1       -0.1538
     25 O           4.2161    3.6930   -0.0804 O.2     1  LIG1       -0.2406
     26 H           1.9827    4.8424    7.4259 H       1  LIG1        0.1216
     27 H           0.7285    1.1556   -3.1195 H       1  LIG1        0.1281
     28 H          -0.2075    4.1624    6.4800 H       1  LIG1        0.1192
     29 H           3.9826    4.9647    5.9612 H       1  LIG1        0.1181
     30 H           0.6701    7.9746   -2.3979 H       1  LIG1        0.1536
     31 H           0.1763   -0.5106   -1.3673 H       1  LIG1        0.1390
     32 H           2.9960    8.2677   -3.2086 H       1  LIG1        0.1478
     33 H           1.4796    3.4021   -2.4855 H       1  LIG1        0.1281
     34 H          -0.4066    3.6050    4.0850 H       1  LIG1        0.1421
     35 H           3.8007    4.4113    3.5636 H       1  LIG1        0.1385
     36 H           0.1125    6.1246   -0.8661 H       1  LIG1        0.1526
     37 H           0.3779    0.0756    1.0142 H       1  LIG1        0.1518
     38 H           4.7682    6.7093   -2.4873 H       1  LIG1        0.1677
@<TRIPOS>BOND
     1     1     3   ar
     2     1     4   ar
     3     2     6   ar
     4     2     8   ar
     5     3     9   ar
     6     4    10   ar
     7     5     7   ar
     8     5    11   ar
     9     6    12   ar
    10     7    13   ar
    11     8    14   ar
    12     9    15   ar
    13    10    15   ar
    14    11    16   ar
    15    12    17   ar
    16    13    18   ar
    17    14    17   ar
    18    14    19   ar
    19    15    20    1
    20    16    18   ar
    21    16    19    1
    22    17    21   ar
    23    18    23    1
    24    19    22   ar
    25    20    21   ar
    26    20    22   ar
    27    23    24    1
    28    23    25    2
    29     1    26    1
    30     2    27    1
    31     3    28    1
    32     4    29    1
    33     5    30    1
    34     6    31    1
    35     7    32    1
    36     8    33    1
    37     9    34    1
    38    10    35    1
    39    11    36    1
    40    12    37    1
    41    13    38    1
