@<TRIPOS>MOLECULE
AG-690/10630045
 50 53 0 0 0
SMALL
USER_CHARGES

@<TRIPOS>ATOM
      1 C           0.2833    0.8259   -2.4720 C.ar    1  LIG1       -0.1096
      2 C           1.6546    0.7339   -2.2341 C.ar    1  LIG1       -0.1010
      3 C          -0.4967    1.7078   -1.7240 C.ar    1  LIG1       -0.0999
      4 C           3.0777    4.0322    4.7626 C.ar    1  LIG1       -0.0651
      5 C           0.9034    4.9455    4.2375 C.ar    1  LIG1       -0.0630
      6 C           3.2399    5.6350   -1.7787 C.ar    1  LIG1       -0.0957
      7 C           1.4944    6.0345   -0.1568 C.ar    1  LIG1       -0.0933
      8 C           2.7684    6.6985   -2.5482 C.ar    1  LIG1       -0.0997
      9 C           1.0229    7.0980   -0.9263 C.ar    1  LIG1       -0.0971
     10 C           2.2460    1.5239   -1.2482 C.ar    1  LIG1       -0.0608
     11 C           0.0946    2.4978   -0.7381 C.ar    1  LIG1       -0.0583
     12 C           2.8788    4.3335    6.1099 C.ar    1  LIG1       -0.0740
     13 C           0.7046    5.2467    5.5849 C.ar    1  LIG1       -0.0729
     14 C           2.0900    4.3383    3.8263 C.ar    1  LIG1       -0.0288
     15 C           2.6029    5.3029   -0.5830 C.ar    1  LIG1       -0.0806
     16 C           1.6599    7.4300   -2.1220 C.ar    1  LIG1       -0.1120
     17 C           1.4659    2.4059   -0.5002 C.ar    1  LIG1       -0.0264
     18 C           1.6923    4.9407    6.5210 C.ar    1  LIG1       -0.0389
     19 C           2.2973    4.0241    2.4217 C.2     1  LIG1        0.0124
     20 C           3.4499    4.6217    1.6625 C.3     1  LIG1        0.0300
     21 C           3.1076    4.1642    0.2421 C.3     1  LIG1        0.0213
     22 C           1.2406    9.9143   -2.2004 C.3     1  LIG1       -0.0629
     23 C          -0.2793    8.3394   -3.4510 C.3     1  LIG1       -0.0629
     24 C           1.1573    8.5681   -2.9445 C.3     1  LIG1       -0.0551
     25 N           1.5522    3.2143    1.7379 N.2     1  LIG1       -0.3207
     26 N           2.0464    3.1819    0.4681 N.pl3   1  LIG1       -0.3217
     27 BR          1.4229    5.3489    8.3466 Br      1  LIG1       -0.1096
     28 H          -0.1770    0.2105   -3.2396 H       1  LIG1        0.1052
     29 H           2.2618    0.0473   -2.8163 H       1  LIG1        0.1221
     30 H          -1.5646    1.7793   -1.9094 H       1  LIG1        0.1221
     31 H           4.0060    3.5589    4.4532 H       1  LIG1        0.1400
     32 H           0.1272    5.1882    3.5164 H       1  LIG1        0.1444
     33 H           4.1041    5.0702   -2.1187 H       1  LIG1        0.1199
     34 H           0.9930    5.7835    0.7743 H       1  LIG1        0.1179
     35 H           3.2721    6.9509   -3.4774 H       1  LIG1        0.1185
     36 H           0.1587    7.6630   -0.5871 H       1  LIG1        0.1182
     37 H           3.3154    1.4447   -1.0705 H       1  LIG1        0.1177
     38 H          -0.5233    3.1817   -0.1617 H       1  LIG1        0.1248
     39 H           3.6584    4.0885    6.8267 H       1  LIG1        0.1381
     40 H          -0.2256    5.7199    5.8887 H       1  LIG1        0.1377
     41 H           3.5076    5.7056    1.7950 H       1  LIG1        0.0996
     42 H           4.3749    4.1537    2.0162 H       1  LIG1        0.0995
     43 H           3.9769    3.7171   -0.2515 H       1  LIG1        0.1361
     44 H           0.6472    9.9034   -1.2796 H       1  LIG1        0.0356
     45 H           0.8747   10.7389   -2.8218 H       1  LIG1        0.0378
     46 H           2.2782   10.1361   -1.9262 H       1  LIG1        0.0354
     47 H          -0.9673    8.2160   -2.6072 H       1  LIG1        0.0352
     48 H          -0.3465    7.4397   -4.0724 H       1  LIG1        0.0380
     49 H          -0.6347    9.1844   -4.0508 H       1  LIG1        0.0355
     50 H           1.7837    8.6822   -3.8498 H       1  LIG1        0.0669
@<TRIPOS>BOND
     1     1     2   ar
     2     1     3   ar
     3     2    10   ar
     4     3    11   ar
     5     4    12   ar
     6     4    14   ar
     7     5    13   ar
     8     5    14   ar
     9     6     8   ar
    10     6    15   ar
    11     7     9   ar
    12     7    15   ar
    13     8    16   ar
    14     9    16   ar
    15    10    17   ar
    16    11    17   ar
    17    12    18   ar
    18    13    18   ar
    19    14    19    1
    20    15    21    1
    21    16    24    1
    22    17    26    1
    23    18    27    1
    24    19    20    1
    25    19    25    2
    26    20    21    1
    27    21    26    1
    28    22    24    1
    29    23    24    1
    30    25    26    1
    31     1    28    1
    32     2    29    1
    33     3    30    1
    34     4    31    1
    35     5    32    1
    36     6    33    1
    37     7    34    1
    38     8    35    1
    39     9    36    1
    40    10    37    1
    41    11    38    1
    42    12    39    1
    43    13    40    1
    44    20    41    1
    45    20    42    1
    46    21    43    1
    47    22    44    1
    48    22    45    1
    49    22    46    1
    50    23    47    1
    51    23    48    1
    52    23    49    1
    53    24    50    1
