@<TRIPOS>MOLECULE
AG-687/07649003
 37 40 0 0 0
SMALL
USER_CHARGES

@<TRIPOS>ATOM
      1 C           2.9673    4.0347    3.9867 C.ar    1  LIG1       -0.1058
      2 C           0.0599    0.7432   -1.7991 C.ar    1  LIG1       -0.1066
      3 C           2.1723    3.0640    3.3773 C.ar    1  LIG1       -0.1040
      4 C           3.6518    4.9663    3.2061 C.ar    1  LIG1       -0.1019
      5 C          -0.4566    1.7204   -0.9481 C.ar    1  LIG1       -0.1050
      6 C           1.4017    0.7865   -2.1777 C.ar    1  LIG1       -0.1019
      7 C           0.8929    7.1136   -1.6571 C.ar    1  LIG1       -0.0954
      8 C           1.9682    7.6067   -2.4157 C.ar    1  LIG1       -0.0922
      9 C           2.0618    3.0250    1.9873 C.ar    1  LIG1       -0.0936
     10 C           3.5414    4.9272    1.8162 C.ar    1  LIG1       -0.0905
     11 C           0.3688    2.7409   -0.4760 C.ar    1  LIG1       -0.0941
     12 C           2.2271    1.8070   -1.7055 C.ar    1  LIG1       -0.0907
     13 C           1.0095    5.9178   -0.9412 C.ar    1  LIG1       -0.0833
     14 C           3.1764    6.9119   -2.4719 C.ar    1  LIG1       -0.0679
     15 C           2.7463    3.9566    1.2068 C.ar    1  LIG1       -0.0591
     16 C           1.7106    2.7843   -0.8546 C.ar    1  LIG1       -0.0601
     17 C           2.2136    5.2299   -0.9934 C.ar    1  LIG1       -0.0310
     18 C           3.2662    5.7337   -1.7560 C.ar    1  LIG1       -0.0464
     19 C           4.0983    3.7756   -0.8764 C.2     1  LIG1        0.1318
     20 C           2.6247    3.9137   -0.3326 C.3     1  LIG1        0.1086
     21 N           4.3612    4.8861   -1.6817 N.am    1  LIG1       -0.3014
     22 O           4.8732    2.8603   -0.6340 O.2     1  LIG1       -0.4489
     23 H           3.0521    4.0658    5.0691 H       1  LIG1        0.1171
     24 H          -0.5825   -0.0522   -2.1656 H       1  LIG1        0.1169
     25 H           1.6383    2.3393    3.9849 H       1  LIG1        0.1176
     26 H           4.2701    5.7228    3.6803 H       1  LIG1        0.1185
     27 H          -1.5010    1.6862   -0.6524 H       1  LIG1        0.1162
     28 H           1.8044    0.0252   -2.8392 H       1  LIG1        0.1177
     29 H          -0.0407    7.6691   -1.6279 H       1  LIG1        0.1213
     30 H           1.8545    8.5374   -2.9650 H       1  LIG1        0.1318
     31 H           1.4402    2.2650    1.5212 H       1  LIG1        0.1175
     32 H           4.0784    5.6571    1.2162 H       1  LIG1        0.1228
     33 H          -0.0423    3.4982    0.1865 H       1  LIG1        0.1237
     34 H           3.2712    1.8328   -2.0059 H       1  LIG1        0.1261
     35 H           0.1739    5.5439   -0.3592 H       1  LIG1        0.1345
     36 H           4.0062    7.2876   -3.0596 H       1  LIG1        0.1275
     37 H           5.2363    5.0578   -2.1624 H       1  LIG1        0.3302
@<TRIPOS>BOND
     1     1     3   ar
     2     1     4   ar
     3     2     5   ar
     4     2     6   ar
     5     3     9   ar
     6     4    10   ar
     7     5    11   ar
     8     6    12   ar
     9     7     8   ar
    10     7    13   ar
    11     8    14   ar
    12     9    15   ar
    13    10    15   ar
    14    11    16   ar
    15    12    16   ar
    16    13    17   ar
    17    14    18   ar
    18    15    20    1
    19    16    20    1
    20    17    18   ar
    21    17    20    1
    22    18    21    1
    23    19    20    1
    24    19    21   am
    25    19    22    2
    26     1    23    1
    27     2    24    1
    28     3    25    1
    29     4    26    1
    30     5    27    1
    31     6    28    1
    32     7    29    1
    33     8    30    1
    34     9    31    1
    35    10    32    1
    36    11    33    1
    37    12    34    1
    38    13    35    1
    39    14    36    1
    40    21    37    1
