@<TRIPOS>MOLECULE
AG-205/37023090
 43 45 0 0 0
SMALL
USER_CHARGES

@<TRIPOS>ATOM
      1 C           0.5297    4.7608    5.2248 C.ar    1  LIG1       -0.0969
      2 C           0.9775    4.8633    3.9077 C.ar    1  LIG1       -0.0671
      3 C           1.3532    6.0541   -0.4097 C.ar    1  LIG1       -0.0892
      4 C           3.0817    5.5137   -2.0088 C.ar    1  LIG1       -0.0857
      5 C           1.4304    4.4584    6.2461 C.ar    1  LIG1       -0.0996
      6 C           1.1115    7.2550   -1.0767 C.ar    1  LIG1       -0.0994
      7 C           2.8400    6.7146   -2.6760 C.ar    1  LIG1       -0.0982
      8 C           3.2265    4.3606    4.6333 C.ar    1  LIG1       -0.0657
      9 C           2.3259    4.6632    3.6120 C.ar    1  LIG1        0.0384
     10 C           2.3385    5.1835   -0.8757 C.ar    1  LIG1       -0.0491
     11 C           1.8548    7.5853   -2.2099 C.ar    1  LIG1       -0.1143
     12 C           2.7787    4.2581    5.9503 C.ar    1  LIG1       -0.1067
     13 C           1.1388    2.2242    0.5733 C.2     1  LIG1        0.1437
     14 C           2.7995    4.7722    2.2184 C.2     1  LIG1        0.1703
     15 C           1.7379    2.7387   -0.7010 C.3     1  LIG1        0.0801
     16 C           2.6023    3.8742   -0.1494 C.3     1  LIG1        0.0818
     17 C           1.5947    8.8688   -2.9236 C.3     1  LIG1       -0.0415
     18 C           3.7418    3.9345    7.0424 C.3     1  LIG1       -0.0424
     19 C           0.2503    1.0255    0.5725 C.3     1  LIG1        0.4011
     20 N           1.4189    2.8889    1.6483 N.2     1  LIG1       -0.2740
     21 N           2.2489    3.9099    1.2797 N.am    1  LIG1       -0.2180
     22 O           3.6564    5.6204    1.9764 O.2     1  LIG1       -0.4398
     23 O           3.9732    3.4877   -0.2381 O.3     1  LIG1       -0.4385
     24 F           0.0977    0.5323   -0.6754 F       1  LIG1       -0.1608
     25 F           0.7581    0.0392    1.3429 F       1  LIG1       -0.1605
     26 F          -0.9784    1.3235    1.0476 F       1  LIG1       -0.1602
     27 H          -0.5204    4.9156    5.4548 H       1  LIG1        0.1208
     28 H           0.2672    5.1000    3.1197 H       1  LIG1        0.1560
     29 H           0.7694    5.8052    0.4726 H       1  LIG1        0.1171
     30 H           3.8503    4.8405   -2.3796 H       1  LIG1        0.1316
     31 H           1.0727    4.3812    7.2696 H       1  LIG1        0.1276
     32 H           0.3408    7.9263   -0.7074 H       1  LIG1        0.1198
     33 H           3.4236    6.9643   -3.5581 H       1  LIG1        0.1217
     34 H           4.2781    4.2030    4.4044 H       1  LIG1        0.1414
     35 H           2.3140    1.9492   -1.1919 H       1  LIG1        0.1342
     36 H           0.9247    3.0739   -1.3530 H       1  LIG1        0.1315
     37 H           2.2233    9.6683   -2.5130 H       1  LIG1        0.0588
     38 H           1.8049    8.7774   -3.9971 H       1  LIG1        0.0556
     39 H           0.5432    9.1703   -2.8305 H       1  LIG1        0.0548
     40 H           3.8089    2.8488    7.1829 H       1  LIG1        0.0576
     41 H           4.7447    4.3189    6.8159 H       1  LIG1        0.0552
     42 H           3.4342    4.3902    7.9926 H       1  LIG1        0.0545
     43 H           4.4933    4.1993    0.1702 H       1  LIG1        0.3536
@<TRIPOS>BOND
     1     1     2   ar
     2     1     5   ar
     3     2     9   ar
     4     3     6   ar
     5     3    10   ar
     6     4     7   ar
     7     4    10   ar
     8     5    12   ar
     9     6    11   ar
    10     7    11   ar
    11     8     9   ar
    12     8    12   ar
    13     9    14    1
    14    10    16    1
    15    11    17    1
    16    12    18    1
    17    13    15    1
    18    13    19    1
    19    13    20    2
    20    14    21   am
    21    14    22    2
    22    15    16    1
    23    16    21    1
    24    16    23    1
    25    19    24    1
    26    19    25    1
    27    19    26    1
    28    20    21    1
    29     1    27    1
    30     2    28    1
    31     3    29    1
    32     4    30    1
    33     5    31    1
    34     6    32    1
    35     7    33    1
    36     8    34    1
    37    15    35    1
    38    15    36    1
    39    17    37    1
    40    17    38    1
    41    17    39    1
    42    18    40    1
    43    18    41    1
    44    18    42    1
    45    23    43    1
