@<TRIPOS>MOLECULE
AG-205/36656049
 36 38 0 0 0
SMALL
USER_CHARGES

@<TRIPOS>ATOM
      1 C           3.0892    4.1813    4.2466 C.ar    1  LIG1       -0.0544
      2 C           0.8526    5.0947    4.2249 C.ar    1  LIG1       -0.0552
      3 C           2.9448    3.8596    5.5962 C.ar    1  LIG1       -0.0611
      4 C           0.7082    4.7731    5.5745 C.ar    1  LIG1       -0.0646
      5 C           1.0343    5.7950   -1.2859 C.ar    1  LIG1       -0.0523
      6 C           3.4232    5.8446   -1.5603 C.ar    1  LIG1       -0.0559
      7 C           0.9723    6.9188   -2.0939 C.ar    1  LIG1       -0.0357
      8 C           3.2541    6.9660   -2.3563 C.ar    1  LIG1       -0.0369
      9 C           2.0432    4.7990    3.5611 C.ar    1  LIG1        0.0449
     10 C           2.2870    5.2538   -1.0188 C.ar    1  LIG1       -0.0376
     11 C           1.7542    4.1555    6.2601 C.ar    1  LIG1       -0.0088
     12 C           0.8394    2.4279    0.4696 C.2     1  LIG1        0.1453
     13 C           2.1956    5.1390    2.1330 C.2     1  LIG1        0.1725
     14 C           1.6551    2.8287   -0.7227 C.3     1  LIG1        0.0830
     15 C           2.4138    4.0214   -0.1375 C.3     1  LIG1        0.0868
     16 C          -0.0399    1.2233    0.4259 C.3     1  LIG1        0.4027
     17 N           2.0538    7.5204   -2.6381 N.ar    1  LIG1       -0.3985
     18 N           0.9290    3.1936    1.5097 N.2     1  LIG1       -0.2736
     19 N           1.8150    4.1860    1.1978 N.am    1  LIG1       -0.2165
     20 O           2.6541    6.2472    1.8608 O.2     1  LIG1       -0.4379
     21 O           3.7774    3.6456    0.0523 O.3     1  LIG1       -0.4350
     22 F           0.0270    0.6138   -0.7773 F       1  LIG1       -0.1596
     23 F           0.3206    0.3198    1.3628 F       1  LIG1       -0.1593
     24 F          -1.3318    1.5489    0.6481 F       1  LIG1       -0.1589
     25 CL          1.5756    3.7574    7.9246 Cl      1  LIG1       -0.1312
     26 H           4.0213    3.9468    3.7392 H       1  LIG1        0.1538
     27 H           0.0308    5.5757    3.7006 H       1  LIG1        0.1685
     28 H           3.7678    3.3780    6.1179 H       1  LIG1        0.1385
     29 H          -0.2252    5.0099    6.0788 H       1  LIG1        0.1369
     30 H           0.1289    5.3583   -0.8779 H       1  LIG1        0.1388
     31 H           4.4137    5.4457   -1.3704 H       1  LIG1        0.1241
     32 H           0.0191    7.3800   -2.3315 H       1  LIG1        0.2054
     33 H           4.1088    7.4638   -2.8024 H       1  LIG1        0.2036
     34 H           2.3054    2.0041   -1.0284 H       1  LIG1        0.1333
     35 H           0.9705    3.0912   -1.5357 H       1  LIG1        0.1381
     36 H           4.2206    4.3987    0.4766 H       1  LIG1        0.3565
@<TRIPOS>BOND
     1     1     3   ar
     2     1     9   ar
     3     2     4   ar
     4     2     9   ar
     5     3    11   ar
     6     4    11   ar
     7     5     7   ar
     8     5    10   ar
     9     6     8   ar
    10     6    10   ar
    11     7    17   ar
    12     8    17   ar
    13     9    13    1
    14    10    15    1
    15    11    25    1
    16    12    14    1
    17    12    16    1
    18    12    18    2
    19    13    19   am
    20    13    20    2
    21    14    15    1
    22    15    19    1
    23    15    21    1
    24    16    22    1
    25    16    23    1
    26    16    24    1
    27    18    19    1
    28     1    26    1
    29     2    27    1
    30     3    28    1
    31     4    29    1
    32     5    30    1
    33     6    31    1
    34     7    32    1
    35     8    33    1
    36    14    34    1
    37    14    35    1
    38    21    36    1
