@<TRIPOS>MOLECULE
AG-690/15437256
 44 46 0 0 0
SMALL
USER_CHARGES

@<TRIPOS>ATOM
      1 C           0.1747    0.7129   -1.7493 C.ar    1  LIG1       -0.1087
      2 C           1.9733    7.5818   -2.1686 C.ar    1  LIG1       -0.0908
      3 C          -0.4285    1.9539   -1.5451 C.ar    1  LIG1       -0.1074
      4 C           1.5289    0.5401   -1.4628 C.ar    1  LIG1       -0.0968
      5 C           2.4179    6.4720   -2.8870 C.ar    1  LIG1       -0.0858
      6 C           1.6769    7.4608   -0.8109 C.ar    1  LIG1       -0.0620
      7 C           1.9312    4.1128    6.0104 C.ar    1  LIG1       -0.1033
      8 C           0.3224    3.0221   -1.0547 C.ar    1  LIG1       -0.0678
      9 C           2.2799    1.6083   -0.9724 C.ar    1  LIG1       -0.0537
     10 C           2.5661    5.2410   -2.2479 C.ar    1  LIG1       -0.0435
     11 C           2.8641    3.4670    5.1992 C.ar    1  LIG1       -0.0666
     12 C           1.2167    5.4468    4.1270 C.ar    1  LIG1       -0.0542
     13 C           1.8250    6.2298   -0.1718 C.ar    1  LIG1        0.0683
     14 C           1.1074    5.1027    5.4744 C.ar    1  LIG1       -0.1062
     15 C           2.1497    4.8010    3.3157 C.ar    1  LIG1       -0.0070
     16 C           1.6766    2.8493   -0.7682 C.ar    1  LIG1        0.0157
     17 C           2.2696    5.1199   -0.8903 C.ar    1  LIG1        0.0525
     18 C           2.9733    3.8111    3.8518 C.ar    1  LIG1        0.0149
     19 C           1.5099    6.1252    1.2461 C.2     1  LIG1        0.1299
     20 C           0.1104    5.7928    6.3425 C.3     1  LIG1       -0.0438
     21 C           5.1939    3.7440    3.0032 C.3     1  LIG1        0.0220
     22 N           2.2492    5.1620    1.9484 N.am    1  LIG1       -0.2960
     23 O           0.6272    6.8186    1.7679 O.2     1  LIG1       -0.4563
     24 O           2.4225    3.9092   -0.2832 O.3     1  LIG1       -0.3510
     25 O           3.8916    3.1683    3.0761 O.3     1  LIG1       -0.4155
     26 H          -0.4099   -0.1193   -2.1307 H       1  LIG1        0.1082
     27 H           1.8581    8.5403   -2.6666 H       1  LIG1        0.1283
     28 H          -1.4830    2.0887   -1.7683 H       1  LIG1        0.1200
     29 H           1.9978   -0.4267   -1.6220 H       1  LIG1        0.1278
     30 H           2.6480    6.5669   -3.9441 H       1  LIG1        0.1379
     31 H           1.3315    8.3324   -0.2610 H       1  LIG1        0.1363
     32 H           1.8534    3.8381    7.0590 H       1  LIG1        0.1220
     33 H          -0.1531    3.9867   -0.8992 H       1  LIG1        0.1065
     34 H           3.3348    1.4684   -0.7527 H       1  LIG1        0.1286
     35 H           2.9131    4.3805   -2.8134 H       1  LIG1        0.1392
     36 H           3.5025    2.6965    5.6232 H       1  LIG1        0.1167
     37 H           0.5722    6.2181    3.7112 H       1  LIG1        0.1530
     38 H           0.5563    6.6824    6.8038 H       1  LIG1        0.0566
     39 H          -0.7713    6.1040    5.7673 H       1  LIG1        0.0535
     40 H          -0.2491    5.1301    7.1408 H       1  LIG1        0.0533
     41 H           5.8268    3.1344    2.3536 H       1  LIG1        0.0889
     42 H           5.6265    3.7970    4.0055 H       1  LIG1        0.1213
     43 H           5.1145    4.7519    2.5891 H       1  LIG1        0.0890
     44 H           2.9467    4.6575    1.4067 H       1  LIG1        0.3259
@<TRIPOS>BOND
     1     1     3   ar
     2     1     4   ar
     3     2     5   ar
     4     2     6   ar
     5     3     8   ar
     6     4     9   ar
     7     5    10   ar
     8     6    13   ar
     9     7    11   ar
    10     7    14   ar
    11     8    16   ar
    12     9    16   ar
    13    10    17   ar
    14    11    18   ar
    15    12    14   ar
    16    12    15   ar
    17    13    17   ar
    18    13    19    1
    19    14    20    1
    20    15    18   ar
    21    15    22    1
    22    16    24    1
    23    17    24    1
    24    18    25    1
    25    19    22   am
    26    19    23    2
    27    21    25    1
    28     1    26    1
    29     2    27    1
    30     3    28    1
    31     4    29    1
    32     5    30    1
    33     6    31    1
    34     7    32    1
    35     8    33    1
    36     9    34    1
    37    10    35    1
    38    11    36    1
    39    12    37    1
    40    20    38    1
    41    20    39    1
    42    20    40    1
    43    21    41    1
    44    21    42    1
    45    21    43    1
    46    22    44    1
