@<TRIPOS>MOLECULE
AN-655/40687935
 45 47 0 0 0
SMALL
USER_CHARGES

@<TRIPOS>ATOM
      1 C           1.2135    5.0268    6.3991 C.ar    1  LIG1       -0.1012
      2 C           0.5333    4.7933    5.2039 C.ar    1  LIG1       -0.0995
      3 C           2.5865    4.7935    6.4772 C.ar    1  LIG1       -0.0966
      4 C           1.1502    0.6375   -1.7655 C.ar    1  LIG1       -0.0936
      5 C           0.0601    1.3695   -2.2657 C.ar    1  LIG1       -0.0912
      6 C           1.2260    4.3266    4.0869 C.ar    1  LIG1       -0.0851
      7 C           3.2793    4.3267    5.3602 C.ar    1  LIG1       -0.0807
      8 C           2.0143    1.1987   -0.8223 C.ar    1  LIG1       -0.0778
      9 C          -0.1832    2.6746   -1.8321 C.ar    1  LIG1       -0.0629
     10 C           2.5990    4.0932    4.1650 C.ar    1  LIG1       -0.0147
     11 C           1.7662    2.4920   -0.3953 C.ar    1  LIG1       -0.0155
     12 C           0.6831    3.2147   -0.8973 C.ar    1  LIG1       -0.0301
     13 C           1.7218    4.6535    0.5917 C.2     1  LIG1        0.1537
     14 C           3.3307    3.6002    2.9852 C.2     1  LIG1        0.0870
     15 C           2.5207    3.3341    0.5954 C.3     1  LIG1        0.1298
     16 C           1.6866    7.7131   -3.0833 C.3     1  LIG1       -0.0729
     17 C           2.5743    2.7257    1.9892 C.3     1  LIG1        0.0869
     18 C           1.3493    6.9903   -1.7886 C.3     1  LIG1       -0.0706
     19 C           0.0027    6.2696   -1.8854 C.3     1  LIG1       -0.0490
     20 C          -0.3346    5.4857   -0.6216 C.3     1  LIG1       -0.0086
     21 N           0.6607    4.4872   -0.3105 N.am    1  LIG1       -0.3125
     22 O           2.0012    5.6447    1.2507 O.2     1  LIG1       -0.4316
     23 O           4.5167    3.8711    2.7871 O.2     1  LIG1       -0.4456
     24 O           3.8223    3.5995    0.1098 O.3     1  LIG1       -0.4416
     25 H           0.6740    5.3901    7.2688 H       1  LIG1        0.1261
     26 H          -0.5359    4.9749    5.1433 H       1  LIG1        0.1198
     27 H           3.1162    4.9755    7.4077 H       1  LIG1        0.1207
     28 H           1.3216   -0.3762   -2.1177 H       1  LIG1        0.1205
     29 H          -0.5997    0.9137   -2.9993 H       1  LIG1        0.1334
     30 H           0.6861    4.1480    3.1605 H       1  LIG1        0.1306
     31 H           4.3491    4.1483    5.4325 H       1  LIG1        0.1381
     32 H           2.8554    0.6308   -0.4398 H       1  LIG1        0.1398
     33 H          -1.0261    3.2319   -2.2247 H       1  LIG1        0.1263
     34 H           0.9123    8.4440   -3.3376 H       1  LIG1        0.0300
     35 H           2.6374    8.2460   -2.9831 H       1  LIG1        0.0298
     36 H           1.7792    7.0069   -3.9146 H       1  LIG1        0.0316
     37 H           3.0714    1.7520    1.9262 H       1  LIG1        0.1024
     38 H           1.5496    2.5865    2.3492 H       1  LIG1        0.1184
     39 H           2.1425    6.2678   -1.5636 H       1  LIG1        0.0407
     40 H           1.3315    7.7187   -0.9701 H       1  LIG1        0.0410
     41 H          -0.7903    6.9988   -2.0925 H       1  LIG1        0.0504
     42 H           0.0291    5.5722   -2.7315 H       1  LIG1        0.0501
     43 H          -1.3006    4.9794   -0.7138 H       1  LIG1        0.1123
     44 H          -0.3859    6.1636    0.2365 H       1  LIG1        0.1146
     45 H           4.2727    4.1440    0.7785 H       1  LIG1        0.3473
@<TRIPOS>BOND
     1     1     2   ar
     2     1     3   ar
     3     2     6   ar
     4     3     7   ar
     5     4     5   ar
     6     4     8   ar
     7     5     9   ar
     8     6    10   ar
     9     7    10   ar
    10     8    11   ar
    11     9    12   ar
    12    10    14    1
    13    11    12   ar
    14    11    15    1
    15    12    21    1
    16    13    15    1
    17    13    21   am
    18    13    22    2
    19    14    17    1
    20    14    23    2
    21    15    17    1
    22    15    24    1
    23    16    18    1
    24    18    19    1
    25    19    20    1
    26    20    21    1
    27     1    25    1
    28     2    26    1
    29     3    27    1
    30     4    28    1
    31     5    29    1
    32     6    30    1
    33     7    31    1
    34     8    32    1
    35     9    33    1
    36    16    34    1
    37    16    35    1
    38    16    36    1
    39    17    37    1
    40    17    38    1
    41    18    39    1
    42    18    40    1
    43    19    41    1
    44    19    42    1
    45    20    43    1
    46    20    44    1
    47    24    45    1
