@<TRIPOS>MOLECULE
AJ-292/42034297
 59 62 0 0 0
SMALL
USER_CHARGES

@<TRIPOS>ATOM
      1 C           1.9885    7.5851   -2.3055 C.ar    1  LIG1       -0.1082
      2 C           0.2215    0.7073   -1.7881 C.ar    1  LIG1       -0.1081
      3 C           0.8652    6.9653   -1.7583 C.ar    1  LIG1       -0.1071
      4 C           3.2552    7.0365   -2.1043 C.ar    1  LIG1       -0.1052
      5 C           1.5495    0.9326   -2.1501 C.ar    1  LIG1       -0.1058
      6 C          -0.3935    1.5303   -0.8445 C.ar    1  LIG1       -0.1028
      7 C          -0.4188    5.0679    6.8680 C.ar    1  LIG1       -0.0992
      8 C          -0.7522    4.6304    8.1497 C.ar    1  LIG1       -0.1044
      9 C           1.0084    5.7971   -1.0096 C.ar    1  LIG1       -0.0981
     10 C           3.3984    5.8683   -1.3558 C.ar    1  LIG1       -0.0950
     11 C           2.2627    1.9808   -1.5683 C.ar    1  LIG1       -0.0915
     12 C           0.3196    2.5783   -0.2628 C.ar    1  LIG1       -0.0864
     13 C           0.8503    4.8084    6.3505 C.ar    1  LIG1       -0.0633
     14 C           0.1834    3.9332    8.9140 C.ar    1  LIG1       -0.0659
     15 C           2.2751    5.2486   -0.8084 C.ar    1  LIG1       -0.0749
     16 C           1.6477    2.8037   -0.6247 C.ar    1  LIG1       -0.0649
     17 C           1.7860    4.1113    7.1148 C.ar    1  LIG1       -0.0135
     18 C           1.4526    3.6737    8.3967 C.ar    1  LIG1        0.0179
     19 C           3.6282    4.1984    5.3718 C.2     1  LIG1       -0.0230
     20 C           3.0167    5.3424    2.0444 C.3     1  LIG1       -0.0314
     21 C           2.2181    2.9726    2.3280 C.3     1  LIG1       -0.0344
     22 C           2.7380    5.5901    3.5263 C.3     1  LIG1       -0.0052
     23 C           1.9541    3.2619    3.8049 C.3     1  LIG1       -0.0108
     24 C           2.1004    4.2471    1.4795 C.3     1  LIG1       -0.0224
     25 C           3.2005    3.7635   10.0068 C.3     1  LIG1        0.0218
     26 C           2.4338    3.9598    0.0176 C.3     1  LIG1        0.0132
     27 N           2.8366    4.3329    4.2684 N.am    1  LIG1       -0.3575
     28 N           3.0705    3.8562    6.5759 N.am    1  LIG1       -0.3186
     29 O           3.8213    3.5605    0.0311 O.3     1  LIG1       -0.4642
     30 O           2.3521    2.9912    9.1602 O.3     1  LIG1       -0.4159
     31 S           5.2907    4.3781    5.2374 S.2     1  LIG1       -0.3095
     32 H           1.8767    8.4940   -2.8894 H       1  LIG1        0.1147
     33 H          -0.3341   -0.1081   -2.2422 H       1  LIG1        0.1146
     34 H          -0.1212    7.3917   -1.9157 H       1  LIG1        0.1146
     35 H           4.1300    7.5182   -2.5311 H       1  LIG1        0.1155
     36 H           2.0283    0.2927   -2.8855 H       1  LIG1        0.1154
     37 H          -1.4279    1.3558   -0.5634 H       1  LIG1        0.1151
     38 H          -1.1477    5.6103    6.2728 H       1  LIG1        0.1210
     39 H          -1.7405    4.8318    8.5523 H       1  LIG1        0.1184
     40 H           0.1275    5.3212   -0.5868 H       1  LIG1        0.1166
     41 H           4.3893    5.4483   -1.2040 H       1  LIG1        0.1235
     42 H           3.2972    2.1488   -1.8562 H       1  LIG1        0.1179
     43 H          -0.1676    3.2143    0.4716 H       1  LIG1        0.1274
     44 H           1.0985    5.1545    5.3503 H       1  LIG1        0.1242
     45 H          -0.0831    3.5951    9.9118 H       1  LIG1        0.1208
     46 H           2.8769    6.2760    1.4868 H       1  LIG1        0.0723
     47 H           4.0662    5.0464    1.9189 H       1  LIG1        0.0637
     48 H           3.2247    2.5484    2.2178 H       1  LIG1        0.0559
     49 H           1.5094    2.2154    1.9727 H       1  LIG1        0.0685
     50 H           3.4496    6.3182    3.9301 H       1  LIG1        0.1079
     51 H           1.7272    5.9876    3.6729 H       1  LIG1        0.1414
     52 H           0.9198    3.5895    3.9606 H       1  LIG1        0.1088
     53 H           2.1165    2.3594    4.4038 H       1  LIG1        0.1158
     54 H           1.0623    4.6027    1.5284 H       1  LIG1        0.0740
     55 H           3.8683    3.0983   10.5595 H       1  LIG1        0.0900
     56 H           2.5905    4.3453   10.7025 H       1  LIG1        0.1220
     57 H           3.7946    4.4426    9.3906 H       1  LIG1        0.0890
     58 H           3.6919    3.3428    7.1975 H       1  LIG1        0.3337
     59 H           4.0569    3.4167   -0.8932 H       1  LIG1        0.3321
@<TRIPOS>BOND
     1     1     3   ar
     2     1     4   ar
     3     2     5   ar
     4     2     6   ar
     5     3     9   ar
     6     4    10   ar
     7     5    11   ar
     8     6    12   ar
     9     7     8   ar
    10     7    13   ar
    11     8    14   ar
    12     9    15   ar
    13    10    15   ar
    14    11    16   ar
    15    12    16   ar
    16    13    17   ar
    17    14    18   ar
    18    15    26    1
    19    16    26    1
    20    17    18   ar
    21    17    28    1
    22    18    30    1
    23    19    27    1
    24    19    28    1
    25    19    31    2
    26    20    22    1
    27    20    24    1
    28    21    23    1
    29    21    24    1
    30    22    27    1
    31    23    27    1
    32    24    26    1
    33    25    30    1
    34    26    29    1
    35     1    32    1
    36     2    33    1
    37     3    34    1
    38     4    35    1
    39     5    36    1
    40     6    37    1
    41     7    38    1
    42     8    39    1
    43     9    40    1
    44    10    41    1
    45    11    42    1
    46    12    43    1
    47    13    44    1
    48    14    45    1
    49    20    46    1
    50    20    47    1
    51    21    48    1
    52    21    49    1
    53    22    50    1
    54    22    51    1
    55    23    52    1
    56    23    53    1
    57    24    54    1
    58    25    55    1
    59    25    56    1
    60    25    57    1
    61    28    58    1
    62    29    59    1
