@<TRIPOS>MOLECULE
AN-989/40860899
 55 60 0 0 0
SMALL
USER_CHARGES

@<TRIPOS>ATOM
      1 C           0.3325    0.4784   -1.6273 C.ar    1  LIG1       -0.1074
      2 C           2.2270    7.7322   -2.1576 C.ar    1  LIG1       -0.1072
      3 C           1.6806    0.7429   -1.8681 C.ar    1  LIG1       -0.1038
      4 C          -0.4276    1.3669   -0.8666 C.ar    1  LIG1       -0.1029
      5 C           1.1580    7.4391   -1.3109 C.ar    1  LIG1       -0.1038
      6 C           3.2667    6.8150   -2.3115 C.ar    1  LIG1       -0.1027
      7 C          -1.2744    5.3991    8.3120 C.ar    1  LIG1       -0.0983
      8 C          -1.8550    5.2104    7.0580 C.ar    1  LIG1       -0.0921
      9 C           2.2689    1.8959   -1.3482 C.ar    1  LIG1       -0.0901
     10 C           0.1606    2.5199   -0.3466 C.ar    1  LIG1       -0.0893
     11 C           1.1286    6.2289   -0.6181 C.ar    1  LIG1       -0.0906
     12 C           3.2373    5.6048   -1.6185 C.ar    1  LIG1       -0.0889
     13 C           0.1108    5.3233    8.4579 C.ar    1  LIG1       -0.0907
     14 C          -1.0504    4.9459    5.9496 C.ar    1  LIG1       -0.0642
     15 C           1.5089    2.7843   -0.5874 C.ar    1  LIG1       -0.0711
     16 C           2.1682    5.3117   -0.7719 C.ar    1  LIG1       -0.0711
     17 C           0.9153    5.0587    7.3496 C.ar    1  LIG1       -0.0763
     18 C           0.3347    4.8700    6.0954 C.ar    1  LIG1       -0.0187
     19 C           4.6735    4.2552    2.3443 C.2     1  LIG1       -0.1177
     20 C           4.3714    2.9372    2.3500 C.2     1  LIG1       -0.1139
     21 C           2.6942    3.9611    1.1784 C.2     1  LIG1       -0.0870
     22 C           2.1315    5.4763    4.4816 C.2     1  LIG1        0.1469
     23 C           1.0166    3.4273    4.1835 C.2     1  LIG1        0.1471
     24 C           2.1374    4.0174   -0.0311 C.2     1  LIG1       -0.0610
     25 C           3.4055    5.0235    2.0157 C.3     1  LIG1       -0.0033
     26 C           2.8578    2.8170    2.1465 C.3     1  LIG1       -0.0037
     27 C           2.3395    4.9447    3.0997 C.3     1  LIG1        0.0920
     28 C           2.3174    3.4372    3.4414 C.3     1  LIG1        0.0900
     29 C           2.3962    4.9832    7.5355 C.3     1  LIG1       -0.0330
     30 N           1.1196    4.6053    4.9791 N.am    1  LIG1       -0.2205
     31 O           2.6334    6.4666    4.9788 O.2     1  LIG1       -0.4276
     32 O           0.1627    2.5606    4.1684 O.2     1  LIG1       -0.4235
     33 H          -0.1258   -0.4187   -2.0332 H       1  LIG1        0.1147
     34 H           2.2493    8.6740   -2.6980 H       1  LIG1        0.1150
     35 H           2.2724    0.0517   -2.4614 H       1  LIG1        0.1160
     36 H          -1.4776    1.1616   -0.6800 H       1  LIG1        0.1163
     37 H           0.3477    8.1527   -1.1919 H       1  LIG1        0.1164
     38 H           4.0986    7.0427   -2.9715 H       1  LIG1        0.1165
     39 H          -1.9005    5.6044    9.1752 H       1  LIG1        0.1257
     40 H          -2.9337    5.2686    6.9446 H       1  LIG1        0.1241
     41 H           3.3210    2.0883   -1.5444 H       1  LIG1        0.1216
     42 H          -0.4450    3.2027    0.2444 H       1  LIG1        0.1218
     43 H           0.2885    6.0146    0.0384 H       1  LIG1        0.1194
     44 H           4.0552    4.9001   -1.7489 H       1  LIG1        0.1225
     45 H           0.5533    5.4715    9.4394 H       1  LIG1        0.1262
     46 H          -1.5149    4.8011    4.9776 H       1  LIG1        0.1317
     47 H           5.6400    4.6880    2.5479 H       1  LIG1        0.1142
     48 H           5.0450    2.1285    2.5862 H       1  LIG1        0.1290
     49 H           3.5453    5.9856    1.5229 H       1  LIG1        0.1141
     50 H           2.4856    1.8395    1.8450 H       1  LIG1        0.1235
     51 H           1.3974    5.2694    2.6079 H       1  LIG1        0.1420
     52 H           3.0256    3.1753    4.2526 H       1  LIG1        0.1017
     53 H           2.6969    3.9556    7.7691 H       1  LIG1        0.0630
     54 H           2.9254    5.3061    6.6309 H       1  LIG1        0.0609
     55 H           2.7263    5.6388    8.3505 H       1  LIG1        0.0486
@<TRIPOS>BOND
     1     1     3   ar
     2     1     4   ar
     3     2     5   ar
     4     2     6   ar
     5     3     9   ar
     6     4    10   ar
     7     5    11   ar
     8     6    12   ar
     9     7     8   ar
    10     7    13   ar
    11     8    14   ar
    12     9    15   ar
    13    10    15   ar
    14    11    16   ar
    15    12    16   ar
    16    13    17   ar
    17    14    18   ar
    18    15    24    1
    19    16    24    1
    20    17    18   ar
    21    17    29    1
    22    18    30    1
    23    19    20    2
    24    19    25    1
    25    20    26    1
    26    21    24    2
    27    21    25    1
    28    21    26    1
    29    22    27    1
    30    22    30   am
    31    22    31    2
    32    23    28    1
    33    23    30   am
    34    23    32    2
    35    25    27    1
    36    26    28    1
    37    27    28    1
    38     1    33    1
    39     2    34    1
    40     3    35    1
    41     4    36    1
    42     5    37    1
    43     6    38    1
    44     7    39    1
    45     8    40    1
    46     9    41    1
    47    10    42    1
    48    11    43    1
    49    12    44    1
    50    13    45    1
    51    14    46    1
    52    19    47    1
    53    20    48    1
    54    25    49    1
    55    26    50    1
    56    27    51    1
    57    28    52    1
    58    29    53    1
    59    29    54    1
    60    29    55    1
