@<TRIPOS>MOLECULE
AJ-292/15007053
 45 49 0 0 0
SMALL
USER_CHARGES

@<TRIPOS>ATOM
      1 C           1.3367    4.2304    6.0728 C.ar    1  LIG1       -0.1088
      2 C           1.2486    0.3092   -1.5479 C.ar    1  LIG1       -0.0952
      3 C           2.6866    4.5374    5.9020 C.ar    1  LIG1       -0.1051
      4 C           0.4881    4.1778    4.9670 C.ar    1  LIG1       -0.1081
      5 C           0.0580    0.8814   -1.9854 C.ar    1  LIG1       -0.0948
      6 C           2.0682    1.0033   -0.6599 C.ar    1  LIG1       -0.0617
      7 C           2.8396    5.7208   -1.3008 C.ar    1  LIG1       -0.0714
      8 C           3.1878    4.7921    4.6256 C.ar    1  LIG1       -0.0967
      9 C           0.9894    4.4324    3.6905 C.ar    1  LIG1       -0.1015
     10 C          -0.3094    2.1523   -1.5406 C.ar    1  LIG1       -0.0646
     11 C           3.3567    6.6158   -2.2402 C.ar    1  LIG1       -0.0513
     12 C           0.9442    7.1902   -0.8805 C.ar    1  LIG1       -0.0369
     13 C           1.6968    2.2796   -0.2158 C.ar    1  LIG1        0.0582
     14 C           1.6402    6.0062   -0.6248 C.ar    1  LIG1       -0.0384
     15 C           2.3392    4.7396    3.5197 C.ar    1  LIG1       -0.0857
     16 C           0.5099    2.8732   -0.6600 C.ar    1  LIG1       -0.0412
     17 C           2.6503    7.7777   -2.4743 C.ar    1  LIG1        0.0307
     18 C           1.4763    8.0571   -1.8127 C.ar    1  LIG1        0.0337
     19 C           2.5455    2.9867    0.7743 C.2     1  LIG1        0.1307
     20 C           1.9106    9.6907   -3.1635 C.3     1  LIG1        0.1115
     21 C           1.0975    5.0171    0.3926 C.3     1  LIG1        0.0313
     22 C           2.8781    5.0138    2.1454 C.3     1  LIG1        0.0151
     23 N           0.1340    4.1348   -0.2378 N.pl3   1  LIG1       -0.3736
     24 N           2.1475    4.2816    1.1163 N.am    1  LIG1       -0.3113
     25 O           3.5140    2.4021    1.2540 O.2     1  LIG1       -0.4708
     26 O           2.9973    8.7607   -3.3490 O.3     1  LIG1       -0.3783
     27 O           0.9414    9.2502   -2.1903 O.3     1  LIG1       -0.3786
     28 H           0.9468    4.0308    7.0666 H       1  LIG1        0.1142
     29 H           1.5353   -0.6802   -1.8922 H       1  LIG1        0.1119
     30 H           3.3477    4.5774    6.7628 H       1  LIG1        0.1144
     31 H          -0.5627    3.9376    5.0994 H       1  LIG1        0.1131
     32 H          -0.5854    0.3399   -2.6726 H       1  LIG1        0.1318
     33 H           2.9868    0.5317   -0.3211 H       1  LIG1        0.1463
     34 H           3.3748    4.7967   -1.0956 H       1  LIG1        0.1375
     35 H           4.2410    5.0309    4.5021 H       1  LIG1        0.1252
     36 H           0.3208    4.3894    2.8348 H       1  LIG1        0.1149
     37 H          -1.2430    2.5832   -1.8961 H       1  LIG1        0.1208
     38 H           4.2810    6.3995   -2.7637 H       1  LIG1        0.1412
     39 H           0.0180    7.4223   -0.3659 H       1  LIG1        0.1467
     40 H           2.3234   10.6523   -2.8372 H       1  LIG1        0.1687
     41 H           1.4030    9.8335   -4.1243 H       1  LIG1        0.2031
     42 H           0.5367    5.6143    1.1555 H       1  LIG1        0.2067
     43 H           2.8119    6.0819    1.9108 H       1  LIG1        0.1368
     44 H           3.9333    4.7298    2.0731 H       1  LIG1        0.1288
     45 H          -0.7339    4.5277   -0.5840 H       1  LIG1        0.3012
@<TRIPOS>BOND
     1     1     3   ar
     2     1     4   ar
     3     2     5   ar
     4     2     6   ar
     5     3     8   ar
     6     4     9   ar
     7     5    10   ar
     8     6    13   ar
     9     7    11   ar
    10     7    14   ar
    11     8    15   ar
    12     9    15   ar
    13    10    16   ar
    14    11    17   ar
    15    12    14   ar
    16    12    18   ar
    17    13    16   ar
    18    13    19    1
    19    14    21    1
    20    15    22    1
    21    16    23    1
    22    17    18   ar
    23    17    26    1
    24    18    27    1
    25    19    24   am
    26    19    25    2
    27    20    26    1
    28    20    27    1
    29    21    23    1
    30    21    24    1
    31    22    24    1
    32     1    28    1
    33     2    29    1
    34     3    30    1
    35     4    31    1
    36     5    32    1
    37     6    33    1
    38     7    34    1
    39     8    35    1
    40     9    36    1
    41    10    37    1
    42    11    38    1
    43    12    39    1
    44    20    40    1
    45    20    41    1
    46    21    42    1
    47    22    43    1
    48    22    44    1
    49    23    45    1
