@<TRIPOS>MOLECULE
AN-652/41399045
 31 32 0 0 0
SMALL
USER_CHARGES

@<TRIPOS>ATOM
      1 C           1.5544    4.9559    6.3891 C.ar    1  LIG1       -0.1059
      2 C           2.5949    4.0346    6.2709 C.ar    1  LIG1       -0.1034
      3 C           0.8301    5.3386    5.2601 C.ar    1  LIG1       -0.1034
      4 C           0.8279    6.6386   -1.5020 C.ar    1  LIG1       -0.0931
      5 C           1.2270    5.6610   -0.5906 C.ar    1  LIG1       -0.0664
      6 C           2.9114    3.4962    5.0237 C.ar    1  LIG1       -0.0954
      7 C           1.1466    4.8003    4.0128 C.ar    1  LIG1       -0.0954
      8 C           1.7605    7.2029   -2.3725 C.ar    1  LIG1       -0.0976
      9 C           3.4912    5.8123   -1.4199 C.ar    1  LIG1       -0.0637
     10 C           2.5587    5.2479   -0.5494 C.ar    1  LIG1        0.0379
     11 C           2.1873    3.8790    3.8946 C.ar    1  LIG1       -0.0747
     12 C           3.0920    6.7898   -2.3313 C.ar    1  LIG1       -0.1051
     13 C           2.9742    4.2283    0.4006 C.2     1  LIG1        0.1794
     14 C           4.0893    7.3933   -3.2620 C.3     1  LIG1       -0.0414
     15 C           2.5274    3.3003    2.5527 C.3     1  LIG1        0.0548
     16 O           3.9014    3.4300    0.2101 O.2     1  LIG1       -0.4514
     17 O           2.2130    4.2592    1.5371 O.3     1  LIG1       -0.3384
     18 H           1.3071    5.3740    7.3606 H       1  LIG1        0.1188
     19 H           3.1582    3.7355    7.1501 H       1  LIG1        0.1175
     20 H           0.0192    6.0551    5.3519 H       1  LIG1        0.1175
     21 H          -0.2088    6.9612   -1.5332 H       1  LIG1        0.1234
     22 H           0.4920    5.2277    0.0829 H       1  LIG1        0.1409
     23 H           3.7240    2.7791    4.9411 H       1  LIG1        0.1229
     24 H           0.5771    5.1044    3.1386 H       1  LIG1        0.1230
     25 H           1.4403    7.9635   -3.0797 H       1  LIG1        0.1295
     26 H           4.5302    5.4921   -1.3884 H       1  LIG1        0.1445
     27 H           4.5498    8.2784   -2.8065 H       1  LIG1        0.0587
     28 H           4.8832    6.6782   -3.5133 H       1  LIG1        0.0556
     29 H           3.6204    7.6929   -4.2084 H       1  LIG1        0.0559
     30 H           3.5924    3.0517    2.4917 H       1  LIG1        0.1276
     31 H           1.9568    2.3834    2.3698 H       1  LIG1        0.1275
@<TRIPOS>BOND
     1     1     2   ar
     2     1     3   ar
     3     2     6   ar
     4     3     7   ar
     5     4     5   ar
     6     4     8   ar
     7     5    10   ar
     8     6    11   ar
     9     7    11   ar
    10     8    12   ar
    11     9    10   ar
    12     9    12   ar
    13    10    13    1
    14    11    15    1
    15    12    14    1
    16    13    16    2
    17    13    17    1
    18    15    17    1
    19     1    18    1
    20     2    19    1
    21     3    20    1
    22     4    21    1
    23     5    22    1
    24     6    23    1
    25     7    24    1
    26     8    25    1
    27     9    26    1
    28    14    27    1
    29    14    28    1
    30    14    29    1
    31    15    30    1
    32    15    31    1
