@<TRIPOS>MOLECULE
AO-476/42871095
 52 56 0 0 0
SMALL
USER_CHARGES

@<TRIPOS>ATOM
      1 C           0.6327    0.8088   -2.4447 C.ar    1  LIG1       -0.1081
      2 C           2.3074    7.2212   -2.9042 C.ar    1  LIG1       -0.1042
      3 C           1.9396    4.5989    6.8941 C.ar    1  LIG1       -0.1044
      4 C           6.4562    6.8808    3.3313 C.ar    1  LIG1       -0.1048
      5 C           1.8807    1.4258   -2.3587 C.ar    1  LIG1       -0.1022
      6 C          -0.3484    1.0839   -1.4920 C.ar    1  LIG1       -0.1012
      7 C           1.0544    7.1368   -2.2973 C.ar    1  LIG1       -0.1020
      8 C           3.3890    6.5193   -2.3718 C.ar    1  LIG1       -0.0969
      9 C           3.0681    4.2352    6.1595 C.ar    1  LIG1       -0.1056
     10 C           0.7331    4.8498    6.2406 C.ar    1  LIG1       -0.0939
     11 C           5.5891    7.9288    3.6405 C.ar    1  LIG1       -0.1026
     12 C           5.9792    5.7565    2.6576 C.ar    1  LIG1       -0.1054
     13 C           2.1477    2.3178   -1.3201 C.ar    1  LIG1       -0.0795
     14 C          -0.0814    1.9757   -0.4534 C.ar    1  LIG1       -0.0775
     15 C           0.8827    6.3505   -1.1580 C.ar    1  LIG1       -0.0846
     16 C           3.2173    5.7331   -1.2325 C.ar    1  LIG1       -0.0776
     17 C           2.9903    4.1224    4.7714 C.ar    1  LIG1       -0.0794
     18 C           0.6552    4.7371    4.8525 C.ar    1  LIG1       -0.0659
     19 C           4.2449    7.8523    3.2760 C.ar    1  LIG1       -0.0980
     20 C           4.6350    5.6800    2.2932 C.ar    1  LIG1       -0.1008
     21 C           1.1667    2.5928   -0.3674 C.ar    1  LIG1       -0.0409
     22 C           1.9642    5.6487   -0.6255 C.ar    1  LIG1       -0.0482
     23 C           1.7838    4.3734    4.1179 C.ar    1  LIG1       -0.0177
     24 C           3.7678    6.7279    2.6023 C.ar    1  LIG1       -0.0870
     25 C           1.4413    3.5109    0.7022 C.ar    1  LIG1        0.0034
     26 C           1.7861    4.8336    0.5540 C.ar    1  LIG1       -0.0021
     27 C           1.7029    4.2556    2.6790 C.ar    1  LIG1        0.0302
     28 C           2.3177    6.6446    2.2090 C.3     1  LIG1        0.0198
     29 N           1.3909    3.1573    2.0273 N.ar    1  LIG1       -0.3586
     30 N           1.9500    5.2974    1.8288 N.ar    1  LIG1       -0.3268
     31 H           0.4243    0.1150   -3.2539 H       1  LIG1        0.1134
     32 H           2.4409    7.8329   -3.7917 H       1  LIG1        0.1182
     33 H           2.0002    4.6861    7.9750 H       1  LIG1        0.1197
     34 H           7.5033    6.9411    3.6141 H       1  LIG1        0.1197
     35 H           2.6443    1.2128   -3.1010 H       1  LIG1        0.1149
     36 H          -1.3204    0.6043   -1.5598 H       1  LIG1        0.1154
     37 H           0.2125    7.6836   -2.7119 H       1  LIG1        0.1184
     38 H           4.3644    6.5841   -2.8450 H       1  LIG1        0.1208
     39 H           4.0075    4.0401    6.6686 H       1  LIG1        0.1182
     40 H          -0.1460    5.1320    6.8127 H       1  LIG1        0.1232
     41 H           5.9606    8.8048    4.1641 H       1  LIG1        0.1178
     42 H           6.6543    4.9409    2.4158 H       1  LIG1        0.1182
     43 H           3.1255    2.7907   -1.2667 H       1  LIG1        0.1228
     44 H          -0.8570    2.1796    0.2814 H       1  LIG1        0.1281
     45 H          -0.1009    6.2930   -0.6981 H       1  LIG1        0.1184
     46 H           4.0705    5.1929   -0.8291 H       1  LIG1        0.1291
     47 H           3.8782    3.8354    4.2132 H       1  LIG1        0.1311
     48 H          -0.2923    4.9369    4.3578 H       1  LIG1        0.1411
     49 H           3.5765    8.6735    3.5211 H       1  LIG1        0.1233
     50 H           4.2721    4.8000    1.7686 H       1  LIG1        0.1254
     51 H           1.6653    6.9588    3.0327 H       1  LIG1        0.1486
     52 H           2.0969    7.3108    1.3661 H       1  LIG1        0.1369
@<TRIPOS>BOND
     1     1     5   ar
     2     1     6   ar
     3     2     7   ar
     4     2     8   ar
     5     3     9   ar
     6     3    10   ar
     7     4    11   ar
     8     4    12   ar
     9     5    13   ar
    10     6    14   ar
    11     7    15   ar
    12     8    16   ar
    13     9    17   ar
    14    10    18   ar
    15    11    19   ar
    16    12    20   ar
    17    13    21   ar
    18    14    21   ar
    19    15    22   ar
    20    16    22   ar
    21    17    23   ar
    22    18    23   ar
    23    19    24   ar
    24    20    24   ar
    25    21    25    1
    26    22    26    1
    27    23    27    1
    28    24    28    1
    29    25    26   ar
    30    25    29   ar
    31    26    30   ar
    32    27    29   ar
    33    27    30   ar
    34    28    30    1
    35     1    31    1
    36     2    32    1
    37     3    33    1
    38     4    34    1
    39     5    35    1
    40     6    36    1
    41     7    37    1
    42     8    38    1
    43     9    39    1
    44    10    40    1
    45    11    41    1
    46    12    42    1
    47    13    43    1
    48    14    44    1
    49    15    45    1
    50    16    46    1
    51    17    47    1
    52    18    48    1
    53    19    49    1
    54    20    50    1
    55    28    51    1
    56    28    52    1
