@<TRIPOS>MOLECULE
AG-205/33175035
 52 57 0 0 0
SMALL
USER_CHARGES

@<TRIPOS>ATOM
      1 C           0.3336    0.4789   -1.6248 C.ar    1  LIG1       -0.1074
      2 C           2.2263    7.7328   -2.1604 C.ar    1  LIG1       -0.1075
      3 C           1.6816    0.7436   -1.8658 C.ar    1  LIG1       -0.1031
      4 C          -0.4267    1.3678   -0.8646 C.ar    1  LIG1       -0.1036
      5 C           1.1574    7.4400   -1.3135 C.ar    1  LIG1       -0.1038
      6 C           3.2662    6.8158   -2.3136 C.ar    1  LIG1       -0.1032
      7 C          -1.7455    5.6950    7.0035 C.ar    1  LIG1       -0.0833
      8 C          -1.2915    5.4225    8.2940 C.ar    1  LIG1       -0.0872
      9 C           2.2697    1.8971   -1.3468 C.ar    1  LIG1       -0.0893
     10 C           0.1613    2.5212   -0.3456 C.ar    1  LIG1       -0.0901
     11 C           1.1284    6.2303   -0.6197 C.ar    1  LIG1       -0.0902
     12 C           3.2371    5.6060   -1.6199 C.ar    1  LIG1       -0.0895
     13 C          -0.9331    5.4149    5.9047 C.ar    1  LIG1       -0.0525
     14 C          -0.0251    4.8700    8.4856 C.ar    1  LIG1       -0.0602
     15 C           1.5095    2.7859   -0.5866 C.ar    1  LIG1       -0.0712
     16 C           2.1683    5.3133   -0.7729 C.ar    1  LIG1       -0.0714
     17 C           0.3332    4.8625    6.0964 C.ar    1  LIG1        0.0102
     18 C           0.7873    4.5900    7.3868 C.ar    1  LIG1        0.0254
     19 C           4.6899    4.2395    2.2631 C.2     1  LIG1       -0.1135
     20 C           4.3519    2.9409    2.4312 C.2     1  LIG1       -0.1172
     21 C           2.6947    3.9642    1.1783 C.2     1  LIG1       -0.0863
     22 C           1.5439    5.5795    4.0415 C.2     1  LIG1        0.1470
     23 C           1.5996    3.3022    4.6259 C.2     1  LIG1        0.1524
     24 C           2.1379    4.0195   -0.0312 C.2     1  LIG1       -0.0612
     25 C           3.3956    5.0155    2.0006 C.3     1  LIG1       -0.0029
     26 C           2.8632    2.8074    2.1628 C.3     1  LIG1       -0.0023
     27 C           2.6708    4.8800    3.3460 C.3     1  LIG1        0.0909
     28 C           1.9867    3.5020    3.1956 C.3     1  LIG1        0.0937
     29 N           1.1176    4.5954    4.9800 N.am    1  LIG1       -0.2150
     30 O           1.1846    6.7327    3.8937 O.2     1  LIG1       -0.4261
     31 O           1.6050    2.2626    5.2574 O.2     1  LIG1       -0.4182
     32 CL          2.3498    3.9094    7.6702 Cl      1  LIG1       -0.1251
     33 H          -0.1246   -0.4185   -2.0300 H       1  LIG1        0.1147
     34 H           2.2483    8.6742   -2.7015 H       1  LIG1        0.1146
     35 H           2.2735    0.0522   -2.4587 H       1  LIG1        0.1159
     36 H          -1.4766    1.1625   -0.6778 H       1  LIG1        0.1164
     37 H           0.3470    8.1534   -1.1948 H       1  LIG1        0.1162
     38 H           4.0980    7.0431   -2.9740 H       1  LIG1        0.1162
     39 H          -2.7315    6.1255    6.8548 H       1  LIG1        0.1342
     40 H          -1.9245    5.6403    9.1491 H       1  LIG1        0.1368
     41 H           3.3218    2.0897   -1.5432 H       1  LIG1        0.1219
     42 H          -0.4444    3.2044    0.2451 H       1  LIG1        0.1211
     43 H           0.2884    6.0163    0.0370 H       1  LIG1        0.1217
     44 H           4.0552    4.9015   -1.7499 H       1  LIG1        0.1218
     45 H          -1.2992    5.6318    4.9041 H       1  LIG1        0.1443
     46 H           0.3136    4.6636    9.4977 H       1  LIG1        0.1407
     47 H           5.6669    4.6701    2.4167 H       1  LIG1        0.1279
     48 H           5.0166    2.1410    2.7163 H       1  LIG1        0.1142
     49 H           3.5057    6.0088    1.5690 H       1  LIG1        0.1240
     50 H           2.5304    1.8357    1.7980 H       1  LIG1        0.1175
     51 H           3.4445    4.8849    4.1393 H       1  LIG1        0.1015
     52 H           0.9861    3.5883    2.7196 H       1  LIG1        0.1398
@<TRIPOS>BOND
     1     1     3   ar
     2     1     4   ar
     3     2     5   ar
     4     2     6   ar
     5     3     9   ar
     6     4    10   ar
     7     5    11   ar
     8     6    12   ar
     9     7     8   ar
    10     7    13   ar
    11     8    14   ar
    12     9    15   ar
    13    10    15   ar
    14    11    16   ar
    15    12    16   ar
    16    13    17   ar
    17    14    18   ar
    18    15    24    1
    19    16    24    1
    20    17    18   ar
    21    17    29    1
    22    18    32    1
    23    19    20    2
    24    19    25    1
    25    20    26    1
    26    21    24    2
    27    21    25    1
    28    21    26    1
    29    22    27    1
    30    22    29   am
    31    22    30    2
    32    23    28    1
    33    23    29   am
    34    23    31    2
    35    25    27    1
    36    26    28    1
    37    27    28    1
    38     1    33    1
    39     2    34    1
    40     3    35    1
    41     4    36    1
    42     5    37    1
    43     6    38    1
    44     7    39    1
    45     8    40    1
    46     9    41    1
    47    10    42    1
    48    11    43    1
    49    12    44    1
    50    13    45    1
    51    14    46    1
    52    19    47    1
    53    20    48    1
    54    25    49    1
    55    26    50    1
    56    27    51    1
    57    28    52    1
