@<TRIPOS>MOLECULE
AK-968/12571145
 56 57 0 0 0
SMALL
USER_CHARGES

@<TRIPOS>ATOM
      1 C           0.7119    0.5350   -2.2626 C.ar    1  LIG1       -0.1117
      2 C           2.5264    7.4271   -2.3303 C.ar    1  LIG1       -0.1098
      3 C          -0.3024    1.4893   -2.1867 C.ar    1  LIG1       -0.1109
      4 C           1.9071    0.7308   -1.5703 C.ar    1  LIG1       -0.1047
      5 C           1.1807    7.0630   -2.2855 C.ar    1  LIG1       -0.1081
      6 C           3.4668    6.7147   -1.5861 C.ar    1  LIG1       -0.1072
      7 C          -0.1218    2.6396   -1.4188 C.ar    1  LIG1       -0.1014
      8 C           2.0878    1.8812   -0.8024 C.ar    1  LIG1       -0.0933
      9 C           0.7752    5.9867   -1.4963 C.ar    1  LIG1       -0.1019
     10 C           3.0614    5.6384   -0.7969 C.ar    1  LIG1       -0.1007
     11 C           1.0733    2.8356   -0.7265 C.ar    1  LIG1       -0.0914
     12 C           1.7157    5.2744   -0.7520 C.ar    1  LIG1       -0.0975
     13 C           1.7000    2.9226    2.3730 C.2     1  LIG1        0.0862
     14 C           4.4747    0.6139    2.7821 C.3     1  LIG1       -0.0667
     15 C           3.0289   -1.0090    4.0472 C.3     1  LIG1       -0.0677
     16 C           1.3159    5.3123    4.5060 C.3     1  LIG1       -0.0663
     17 C           2.2146    3.8359    6.3329 C.3     1  LIG1       -0.0673
     18 C           2.1975    3.9396    1.3467 C.3     1  LIG1        0.0642
     19 C           2.5719    1.4828    4.2300 C.3     1  LIG1       -0.0263
     20 C           3.3269    3.8223    4.0495 C.3     1  LIG1       -0.0249
     21 C           1.2718    4.0942    0.1138 C.3     1  LIG1        0.0047
     22 C           3.0746    0.3436    3.3350 C.3     1  LIG1       -0.0596
     23 C           2.5670    4.6541    5.0898 C.3     1  LIG1       -0.0580
     24 N           2.5020    2.7501    3.5068 N.am    1  LIG1       -0.3641
     25 O           0.6463    2.3075    2.1903 O.2     1  LIG1       -0.4827
     26 H           0.5706   -0.3613   -2.8595 H       1  LIG1        0.1086
     27 H           2.8420    8.2643   -2.9460 H       1  LIG1        0.1123
     28 H          -1.2335    1.3364   -2.7247 H       1  LIG1        0.1090
     29 H           2.6966   -0.0124   -1.6283 H       1  LIG1        0.1118
     30 H           0.4484    7.6169   -2.8658 H       1  LIG1        0.1139
     31 H           4.5148    6.9972   -1.6217 H       1  LIG1        0.1147
     32 H          -0.9175    3.3780   -1.3656 H       1  LIG1        0.1107
     33 H           3.0223    2.0254   -0.2667 H       1  LIG1        0.1216
     34 H          -0.2754    5.7103   -1.4673 H       1  LIG1        0.1146
     35 H           3.8011    5.0893   -0.2203 H       1  LIG1        0.1171
     36 H           5.2212    0.6863    3.5798 H       1  LIG1        0.0339
     37 H           4.7847   -0.1945    2.1109 H       1  LIG1        0.0353
     38 H           4.4936    1.5474    2.2100 H       1  LIG1        0.0336
     39 H           3.6890   -1.0303    4.9207 H       1  LIG1        0.0323
     40 H           3.3447   -1.8109    3.3712 H       1  LIG1        0.0335
     41 H           2.0119   -1.2375    4.3827 H       1  LIG1        0.0316
     42 H           0.5876    4.5706    4.1622 H       1  LIG1        0.0340
     43 H           0.8231    5.9355    5.2602 H       1  LIG1        0.0345
     44 H           1.5743    5.9563    3.6590 H       1  LIG1        0.0324
     45 H           1.5408    3.0060    6.0951 H       1  LIG1        0.0302
     46 H           1.7180    4.4648    7.0796 H       1  LIG1        0.0286
     47 H           3.1171    3.4210    6.7939 H       1  LIG1        0.0370
     48 H           2.2575    4.9074    1.8624 H       1  LIG1        0.1069
     49 H           3.2122    3.6656    1.0387 H       1  LIG1        0.1004
     50 H           1.5759    1.2533    4.6240 H       1  LIG1        0.1029
     51 H           3.2445    1.6146    5.0847 H       1  LIG1        0.1058
     52 H           3.6630    4.4545    3.2206 H       1  LIG1        0.1020
     53 H           4.2158    3.3716    4.5046 H       1  LIG1        0.1103
     54 H           0.2815    4.3404    0.5277 H       1  LIG1        0.1015
     55 H           2.3917    0.2857    2.4770 H       1  LIG1        0.0544
     56 H           3.2404    5.4608    5.4083 H       1  LIG1        0.0514
@<TRIPOS>BOND
     1     1     3   ar
     2     1     4   ar
     3     2     5   ar
     4     2     6   ar
     5     3     7   ar
     6     4     8   ar
     7     5     9   ar
     8     6    10   ar
     9     7    11   ar
    10     8    11   ar
    11     9    12   ar
    12    10    12   ar
    13    11    21    1
    14    12    21    1
    15    13    18    1
    16    13    24   am
    17    13    25    2
    18    14    22    1
    19    15    22    1
    20    16    23    1
    21    17    23    1
    22    18    21    1
    23    19    22    1
    24    19    24    1
    25    20    23    1
    26    20    24    1
    27     1    26    1
    28     2    27    1
    29     3    28    1
    30     4    29    1
    31     5    30    1
    32     6    31    1
    33     7    32    1
    34     8    33    1
    35     9    34    1
    36    10    35    1
    37    14    36    1
    38    14    37    1
    39    14    38    1
    40    15    39    1
    41    15    40    1
    42    15    41    1
    43    16    42    1
    44    16    43    1
    45    16    44    1
    46    17    45    1
    47    17    46    1
    48    17    47    1
    49    18    48    1
    50    18    49    1
    51    19    50    1
    52    19    51    1
    53    20    52    1
    54    20    53    1
    55    21    54    1
    56    22    55    1
    57    23    56    1
