@<TRIPOS>MOLECULE
AG-205/13455014
 39 41 0 0 0
SMALL
USER_CHARGES

@<TRIPOS>ATOM
      1 C           2.1329    7.7322   -2.2312 C.ar    1  LIG1       -0.1074
      2 C           0.3003    0.5149   -1.6674 C.ar    1  LIG1       -0.1068
      3 C           0.9656    7.1265   -1.7662 C.ar    1  LIG1       -0.1010
      4 C           3.3697    7.1281   -2.0052 C.ar    1  LIG1       -0.1058
      5 C           1.6177    0.7771   -2.0431 C.ar    1  LIG1       -0.1035
      6 C          -0.3603    1.3773   -0.7923 C.ar    1  LIG1       -0.1015
      7 C           1.0352    5.9167   -1.0752 C.ar    1  LIG1       -0.0831
      8 C           3.4393    5.9184   -1.3143 C.ar    1  LIG1       -0.0894
      9 C           2.2747    1.9017   -1.5436 C.ar    1  LIG1       -0.0851
     10 C           0.2968    2.5018   -0.2929 C.ar    1  LIG1       -0.0809
     11 C           0.6886    5.1490    2.9264 C.ar    1  LIG1       -0.0495
     12 C           1.4974    4.1792    3.4703 C.ar    1  LIG1       -0.0520
     13 C           2.2721    5.3127   -0.8492 C.ar    1  LIG1       -0.0406
     14 C           1.6143    2.7640   -0.6684 C.ar    1  LIG1       -0.0373
     15 C           1.7777    4.3330    1.2899 C.ar    1  LIG1        0.0322
     16 C           3.1539    1.8937    3.8183 C.3     1  LIG1       -0.0414
     17 C           3.1718    2.6095    2.4786 C.3     1  LIG1       -0.0119
     18 C           2.3471    4.0193   -0.1103 C.3     1  LIG1        0.0865
     19 N           0.8675    5.2395    1.5687 N.ar    1  LIG1       -0.3920
     20 N           2.1888    3.6651    2.4098 N.ar    1  LIG1       -0.3589
     21 O           3.7279    3.5709   -0.0241 O.3     1  LIG1       -0.4373
     22 H           2.0785    8.6734   -2.7703 H       1  LIG1        0.1146
     23 H          -0.2115   -0.3600   -2.0575 H       1  LIG1        0.1166
     24 H           0.0024    7.5960   -1.9430 H       1  LIG1        0.1154
     25 H           4.2786    7.5989   -2.3679 H       1  LIG1        0.1142
     26 H           2.1319    0.1064   -2.7252 H       1  LIG1        0.1164
     27 H          -1.3864    1.1740   -0.5006 H       1  LIG1        0.1170
     28 H           0.1205    5.4521   -0.7165 H       1  LIG1        0.1264
     29 H           4.4074    5.4551   -1.1427 H       1  LIG1        0.1188
     30 H           3.3014    2.0979   -1.8415 H       1  LIG1        0.1220
     31 H          -0.2258    3.1680    0.3885 H       1  LIG1        0.1326
     32 H          -0.0137    5.7865    3.4435 H       1  LIG1        0.1791
     33 H           1.6349    3.8245    4.4823 H       1  LIG1        0.1772
     34 H           3.3547    2.5883    4.6407 H       1  LIG1        0.0382
     35 H           3.9170    1.1096    3.8397 H       1  LIG1        0.0493
     36 H           2.1804    1.4281    4.0049 H       1  LIG1        0.0499
     37 H           2.9699    1.9067    1.6623 H       1  LIG1        0.1239
     38 H           4.1563    3.0524    2.2903 H       1  LIG1        0.1122
     39 H           4.0125    3.4706   -0.9374 H       1  LIG1        0.3428
@<TRIPOS>BOND
     1     1     3   ar
     2     1     4   ar
     3     2     5   ar
     4     2     6   ar
     5     3     7   ar
     6     4     8   ar
     7     5     9   ar
     8     6    10   ar
     9     7    13   ar
    10     8    13   ar
    11     9    14   ar
    12    10    14   ar
    13    11    12   ar
    14    11    19   ar
    15    12    20   ar
    16    13    18    1
    17    14    18    1
    18    15    18    1
    19    15    19   ar
    20    15    20   ar
    21    16    17    1
    22    17    20    1
    23    18    21    1
    24     1    22    1
    25     2    23    1
    26     3    24    1
    27     4    25    1
    28     5    26    1
    29     6    27    1
    30     7    28    1
    31     8    29    1
    32     9    30    1
    33    10    31    1
    34    11    32    1
    35    12    33    1
    36    16    34    1
    37    16    35    1
    38    16    36    1
    39    17    37    1
    40    17    38    1
    41    21    39    1
