@<TRIPOS>MOLECULE
AE-848/12123042
 51 54 0 0 0
SMALL
USER_CHARGES

@<TRIPOS>ATOM
      1 C           0.9496    1.3255   -2.0721 C.ar    1  LIG1       -0.0980
      2 C           0.0372    0.8888   -1.1137 C.ar    1  LIG1       -0.0914
      3 C           0.7268    4.6917    4.1497 C.ar    1  LIG1       -0.0754
      4 C           1.8548    2.3420   -1.7639 C.ar    1  LIG1       -0.0889
      5 C           3.3794    5.8338   -1.8360 C.ar    1  LIG1       -0.0947
      6 C           1.2320    5.9196   -0.7323 C.ar    1  LIG1       -0.0982
      7 C           3.0573    6.9863   -2.5524 C.ar    1  LIG1       -0.1036
      8 C           0.9098    7.0723   -1.4488 C.ar    1  LIG1       -0.1055
      9 C           0.0331    1.4626    0.1564 C.ar    1  LIG1       -0.0520
     10 C           0.6765    4.9422    5.5209 C.ar    1  LIG1       -0.0494
     11 C           2.9370    3.7495    4.4029 C.ar    1  LIG1       -0.0315
     12 C           1.8571    4.0953    3.5907 C.ar    1  LIG1       -0.0237
     13 C           2.4668    5.3003   -0.9259 C.ar    1  LIG1       -0.0902
     14 C           1.8546    2.9333   -0.4915 C.ar    1  LIG1       -0.0493
     15 C           1.8226    7.6057   -2.3588 C.ar    1  LIG1       -0.1198
     16 C           0.9439    2.4750    0.4651 C.ar    1  LIG1        0.0286
     17 C           1.7564    4.5964    6.3332 C.ar    1  LIG1        0.0404
     18 C           2.8867    4.0000    5.7742 C.ar    1  LIG1        0.0442
     19 C           1.9083    3.8317    2.1610 C.2     1  LIG1        0.0497
     20 C           2.8429    4.3600    1.3399 C.2     1  LIG1        0.0206
     21 C           3.9260    5.2215    1.8404 C.2     1  LIG1        0.0729
     22 C           2.8126    4.0610   -0.1546 C.3     1  LIG1        0.0110
     23 C           1.4795    8.8389   -3.1240 C.3     1  LIG1       -0.0450
     24 C           0.5035    5.4586    8.1614 C.3     1  LIG1        0.0280
     25 C           4.9629    4.6442    6.7388 C.3     1  LIG1        0.0261
     26 O           5.0214    5.2715    1.3029 O.2     1  LIG1       -0.4742
     27 O           0.8964    2.9806    1.7411 O.3     1  LIG1       -0.3409
     28 O           1.6947    4.8465    7.6708 O.3     1  LIG1       -0.4034
     29 O           3.9476    3.6590    6.5579 O.3     1  LIG1       -0.4062
     30 H           0.9550    0.8762   -3.0610 H       1  LIG1        0.1208
     31 H          -0.6681    0.0991   -1.3552 H       1  LIG1        0.1318
     32 H          -0.1232    4.9657    3.5295 H       1  LIG1        0.1363
     33 H           2.5575    2.6741   -2.5240 H       1  LIG1        0.1308
     34 H           4.3438    5.3578   -1.9934 H       1  LIG1        0.1223
     35 H           0.5156    5.5114   -0.0242 H       1  LIG1        0.1120
     36 H           3.7754    7.3957   -3.2579 H       1  LIG1        0.1159
     37 H          -0.0544    7.5486   -1.2920 H       1  LIG1        0.1135
     38 H          -0.6763    1.1128    0.9015 H       1  LIG1        0.1359
     39 H          -0.2070    5.4073    5.9501 H       1  LIG1        0.1335
     40 H           3.8222    3.2836    3.9755 H       1  LIG1        0.1424
     41 H           3.6708    5.8121    2.7325 H       1  LIG1        0.2356
     42 H           3.8190    3.7420   -0.4557 H       1  LIG1        0.1171
     43 H           0.9851    8.5777   -4.0677 H       1  LIG1        0.0557
     44 H           0.8094    9.4911   -2.5491 H       1  LIG1        0.0523
     45 H           2.3770    9.4283   -3.3529 H       1  LIG1        0.0529
     46 H           0.5851    5.6020    9.2417 H       1  LIG1        0.0915
     47 H          -0.3553    4.8230    7.9314 H       1  LIG1        0.0911
     48 H           0.3765    6.4290    7.6759 H       1  LIG1        0.1244
     49 H           5.7492    4.2441    7.3836 H       1  LIG1        0.1242
     50 H           4.5271    5.5392    7.1902 H       1  LIG1        0.0894
     51 H           5.3879    4.8997    5.7653 H       1  LIG1        0.0899
@<TRIPOS>BOND
     1     1     2   ar
     2     1     4   ar
     3     2     9   ar
     4     3    10   ar
     5     3    12   ar
     6     4    14   ar
     7     5     7   ar
     8     5    13   ar
     9     6     8   ar
    10     6    13   ar
    11     7    15   ar
    12     8    15   ar
    13     9    16   ar
    14    10    17   ar
    15    11    12   ar
    16    11    18   ar
    17    12    19    1
    18    13    22    1
    19    14    16   ar
    20    14    22    1
    21    15    23    1
    22    16    27    1
    23    17    18   ar
    24    17    28    1
    25    18    29    1
    26    19    20    2
    27    19    27    1
    28    20    21    1
    29    20    22    1
    30    21    26    2
    31    24    28    1
    32    25    29    1
    33     1    30    1
    34     2    31    1
    35     3    32    1
    36     4    33    1
    37     5    34    1
    38     6    35    1
    39     7    36    1
    40     8    37    1
    41     9    38    1
    42    10    39    1
    43    11    40    1
    44    21    41    1
    45    22    42    1
    46    23    43    1
    47    23    44    1
    48    23    45    1
    49    24    46    1
    50    24    47    1
    51    24    48    1
    52    25    49    1
    53    25    50    1
    54    25    51    1
