@<TRIPOS>MOLECULE
AF-407/36112015
 34 34 0 0 0
SMALL
USER_CHARGES

@<TRIPOS>ATOM
      1 C           0.0664    0.7854   -1.5304 C.ar    1  LIG1       -0.1040
      2 C          -0.4260    1.7403   -0.6408 C.ar    1  LIG1       -0.1000
      3 C           1.3820    0.8696   -1.9863 C.ar    1  LIG1       -0.1037
      4 C           0.3973    2.7795   -0.2072 C.ar    1  LIG1       -0.0916
      5 C           2.2052    1.9088   -1.5526 C.ar    1  LIG1       -0.0975
      6 C           1.7129    2.8637   -0.6631 C.ar    1  LIG1       -0.0615
      7 C           1.3329    3.4630    3.3844 C.2     1  LIG1       -0.0415
      8 C           1.5648    4.0972    4.5468 C.2     1  LIG1       -0.1239
      9 C           2.3154    3.3788    2.2697 C.2     1  LIG1        0.0610
     10 C           0.6031    4.2069    5.6972 C.3     1  LIG1       -0.0394
     11 C           2.8983    4.7528    4.7913 C.3     1  LIG1       -0.0398
     12 C           2.2606    4.4933    1.2345 C.3     1  LIG1        0.0772
     13 C           2.6159    4.0029   -0.1883 C.3     1  LIG1        0.1281
     14 C           2.5562    5.1714   -1.1784 C.3     1  LIG1        0.3590
     15 O           3.1113    2.4469    2.1860 O.2     1  LIG1       -0.4688
     16 O           3.9865    3.5776   -0.1637 O.3     1  LIG1       -0.4468
     17 F           1.3062    5.6658   -1.3107 F       1  LIG1       -0.1849
     18 F           3.3608    6.1879   -0.7933 F       1  LIG1       -0.1864
     19 F           2.9634    4.7818   -2.4093 F       1  LIG1       -0.1835
     20 H          -0.5744   -0.0244   -1.8669 H       1  LIG1        0.1194
     21 H          -1.4499    1.6743   -0.2849 H       1  LIG1        0.1195
     22 H           1.7659    0.1257   -2.6781 H       1  LIG1        0.1175
     23 H           0.0051    3.5192    0.4859 H       1  LIG1        0.1305
     24 H           3.2288    1.9665   -1.9133 H       1  LIG1        0.1185
     25 H           0.3713    2.9955    3.1925 H       1  LIG1        0.1119
     26 H           0.6917    3.3926    6.4197 H       1  LIG1        0.0650
     27 H           0.7845    5.1347    6.2511 H       1  LIG1        0.0487
     28 H          -0.4267    4.2239    5.3266 H       1  LIG1        0.0691
     29 H           2.8798    5.7921    4.4471 H       1  LIG1        0.0553
     30 H           3.6864    4.2199    4.2490 H       1  LIG1        0.0614
     31 H           3.1720    4.7587    5.8518 H       1  LIG1        0.0638
     32 H           2.9253    5.3084    1.5439 H       1  LIG1        0.1031
     33 H           1.2389    4.8934    1.2655 H       1  LIG1        0.1102
     34 H           4.0228    2.8321    0.4512 H       1  LIG1        0.3542
@<TRIPOS>BOND
     1     1     2   ar
     2     1     3   ar
     3     2     4   ar
     4     3     5   ar
     5     4     6   ar
     6     5     6   ar
     7     6    13    1
     8     7     8    2
     9     7     9    1
    10     8    10    1
    11     8    11    1
    12     9    12    1
    13     9    15    2
    14    12    13    1
    15    13    14    1
    16    13    16    1
    17    14    17    1
    18    14    18    1
    19    14    19    1
    20     1    20    1
    21     2    21    1
    22     3    22    1
    23     4    23    1
    24     5    24    1
    25     7    25    1
    26    10    26    1
    27    10    27    1
    28    10    28    1
    29    11    29    1
    30    11    30    1
    31    11    31    1
    32    12    32    1
    33    12    33    1
    34    16    34    1
