@<TRIPOS>MOLECULE
AQ-405/42300509
 38 41 0 0 0
SMALL
USER_CHARGES

@<TRIPOS>ATOM
      1 C           1.9683    4.8540    5.7952 C.3     1  LIG1       -0.0518
      2 C           1.6156    3.5163    5.7995 C.3     1  LIG1       -0.0360
      3 C           3.1742    5.5309   -0.9492 C.ar    1  LIG1       -0.0750
      4 C           0.8392    6.1467   -0.8726 C.ar    1  LIG1       -0.0769
      5 C          -0.0888    2.6081   -0.7259 C.ar    1  LIG1       -0.0746
      6 C           2.2464    1.9933   -0.8028 C.ar    1  LIG1       -0.0779
      7 C           2.1038    5.5192    4.5848 C.3     1  LIG1       -0.0241
      8 C           3.3132    6.2086   -2.1604 C.ar    1  LIG1       -0.0610
      9 C           0.9783    6.8244   -2.0839 C.ar    1  LIG1       -0.0627
     10 C          -0.3245    1.8571   -1.8774 C.ar    1  LIG1       -0.0603
     11 C           2.0108    1.2423   -1.9543 C.ar    1  LIG1       -0.0630
     12 C           2.0145    5.4892    2.1350 C.3     1  LIG1       -0.0057
     13 C           1.4044    2.8674    4.5918 C.3     1  LIG1        0.0078
     14 C           1.3193    2.8386    2.2437 C.3     1  LIG1        0.0263
     15 C           1.9371    5.4999   -0.3054 C.ar    1  LIG1       -0.0561
     16 C           1.1967    2.6762   -0.1885 C.ar    1  LIG1       -0.0552
     17 C           1.7924    4.7946    0.9542 C.3     1  LIG1       -0.0209
     18 C           1.4417    3.4573    1.0084 C.3     1  LIG1       -0.0056
     19 C           1.8846    4.8407    3.3744 C.3     1  LIG1        0.0216
     20 C           2.2152    6.8553   -2.7278 C.ar    1  LIG1       -0.0030
     21 C           0.7253    1.1743   -2.4916 C.ar    1  LIG1       -0.0026
     22 N           1.5343    3.5087    3.4034 N.3     1  LIG1       -0.3340
     23 CL          2.3873    7.6899   -4.2231 Cl      1  LIG1       -0.1233
     24 CL          0.4341    0.2491   -3.9134 Cl      1  LIG1       -0.1229
     25 H           2.1372    5.3803    6.7295 H       1  LIG1        0.1779
     26 H           1.5053    2.9788    6.7355 H       1  LIG1        0.1823
     27 H           4.0393    5.0314   -0.5197 H       1  LIG1        0.1408
     28 H          -0.1319    6.1309   -0.3834 H       1  LIG1        0.1408
     29 H          -0.9174    3.1350   -0.2586 H       1  LIG1        0.1418
     30 H           3.2543    2.0373   -0.3965 H       1  LIG1        0.1389
     31 H           2.3817    6.5706    4.5880 H       1  LIG1        0.1817
     32 H           4.2826    6.2231   -2.6525 H       1  LIG1        0.1427
     33 H           0.1138    7.3230   -2.5151 H       1  LIG1        0.1431
     34 H          -1.3308    1.8142   -2.2867 H       1  LIG1        0.1435
     35 H           2.8385    0.7162   -2.4231 H       1  LIG1        0.1431
     36 H           2.2928    6.5416    2.1049 H       1  LIG1        0.1896
     37 H           1.1268    1.8182    4.5633 H       1  LIG1        0.2313
     38 H           1.0466    1.7906    2.3339 H       1  LIG1        0.2394
@<TRIPOS>BOND
     1     1     2    1
     2     1     7    1
     3     2    13    1
     4     3     8   ar
     5     3    15   ar
     6     4     9   ar
     7     4    15   ar
     8     5    10   ar
     9     5    16   ar
    10     6    11   ar
    11     6    16   ar
    12     7    19    1
    13     8    20   ar
    14     9    20   ar
    15    10    21   ar
    16    11    21   ar
    17    12    17    1
    18    12    19    1
    19    13    22    1
    20    14    18    1
    21    14    22    1
    22    15    17    1
    23    16    18    1
    24    17    18    1
    25    19    22    1
    26    20    23    1
    27    21    24    1
    28     1    25    1
    29     2    26    1
    30     3    27    1
    31     4    28    1
    32     5    29    1
    33     6    30    1
    34     7    31    1
    35     8    32    1
    36     9    33    1
    37    10    34    1
    38    11    35    1
    39    12    36    1
    40    13    37    1
    41    14    38    1
