@<TRIPOS>MOLECULE
AG-205/37023053
 46 48 0 0 0
SMALL
USER_CHARGES

@<TRIPOS>ATOM
      1 C           2.7896    4.2567    5.9373 C.ar    1  LIG1       -0.0942
      2 C           1.4449    4.4508    6.2529 C.ar    1  LIG1       -0.0984
      3 C           3.2183    4.3654    4.6143 C.ar    1  LIG1       -0.0651
      4 C           1.0585    5.7424   -0.8777 C.ar    1  LIG1       -0.0896
      5 C           3.3766    5.8270   -1.5535 C.ar    1  LIG1       -0.0849
      6 C           0.5288    4.7534    5.2456 C.ar    1  LIG1       -0.0928
      7 C           0.8197    6.9428   -1.5468 C.ar    1  LIG1       -0.0978
      8 C           3.1377    7.0274   -2.2227 C.ar    1  LIG1       -0.0958
      9 C           2.3022    4.6681    3.6071 C.ar    1  LIG1        0.0433
     10 C           2.3371    5.1846   -0.8810 C.ar    1  LIG1       -0.0497
     11 C           1.8592    7.5852   -2.2193 C.ar    1  LIG1       -0.1116
     12 C           0.9574    4.8621    3.9226 C.ar    1  LIG1       -0.0780
     13 C           1.1323    2.2256    0.5645 C.2     1  LIG1        0.1435
     14 C           2.7827    4.7762    2.2157 C.2     1  LIG1        0.1744
     15 C           1.7375    2.7395   -0.7072 C.3     1  LIG1        0.0791
     16 C           2.5982    3.8761   -0.1523 C.3     1  LIG1        0.0813
     17 C          -0.0450    5.1866    2.8638 C.3     1  LIG1       -0.0329
     18 C           1.1861    8.6483   -4.3880 C.3     1  LIG1       -0.0629
     19 C           1.6026    8.8678   -2.9359 C.3     1  LIG1       -0.0475
     20 C           0.2448    1.0263    0.5602 C.3     1  LIG1        0.4004
     21 N           1.4065    2.8915    1.6403 N.2     1  LIG1       -0.2729
     22 N           2.2376    3.9128    1.2751 N.am    1  LIG1       -0.2168
     23 O           3.6402    5.6249    1.9774 O.2     1  LIG1       -0.4367
     24 O           3.9699    3.4906   -0.2336 O.3     1  LIG1       -0.4388
     25 F           0.0989    0.5318   -0.6881 F       1  LIG1       -0.1606
     26 F           0.7494    0.0410    1.3340 F       1  LIG1       -0.1614
     27 F          -0.9866    1.3237    1.0288 F       1  LIG1       -0.1610
     28 H           3.5036    4.0211    6.7214 H       1  LIG1        0.1203
     29 H           1.1118    4.3658    7.2832 H       1  LIG1        0.1284
     30 H           4.2687    4.2108    4.3811 H       1  LIG1        0.1369
     31 H           0.2426    5.2489   -0.3562 H       1  LIG1        0.1158
     32 H           4.3754    5.3986   -1.5622 H       1  LIG1        0.1320
     33 H          -0.5166    4.9032    5.5024 H       1  LIG1        0.1228
     34 H          -0.1799    7.3690   -1.5403 H       1  LIG1        0.1207
     35 H           3.9532    7.5216   -2.7441 H       1  LIG1        0.1229
     36 H           2.3167    1.9500   -1.1945 H       1  LIG1        0.1327
     37 H           0.9274    3.0735   -1.3636 H       1  LIG1        0.1301
     38 H          -0.1227    6.2722    2.7345 H       1  LIG1        0.0671
     39 H           0.2352    4.7390    1.9024 H       1  LIG1        0.0567
     40 H          -1.0359    4.7933    3.1226 H       1  LIG1        0.0578
     41 H           1.9446    8.0753   -4.9320 H       1  LIG1        0.0344
     42 H           1.0517    9.6056   -4.9014 H       1  LIG1        0.0374
     43 H           0.2420    8.0964   -4.4466 H       1  LIG1        0.0338
     44 H           0.8191    9.4458   -2.4203 H       1  LIG1        0.0622
     45 H           2.4997    9.5074   -2.9115 H       1  LIG1        0.0615
     46 H           4.4874    4.2029    0.1767 H       1  LIG1        0.3539
@<TRIPOS>BOND
     1     1     2   ar
     2     1     3   ar
     3     2     6   ar
     4     3     9   ar
     5     4     7   ar
     6     4    10   ar
     7     5     8   ar
     8     5    10   ar
     9     6    12   ar
    10     7    11   ar
    11     8    11   ar
    12     9    12   ar
    13     9    14    1
    14    10    16    1
    15    11    19    1
    16    12    17    1
    17    13    15    1
    18    13    20    1
    19    13    21    2
    20    14    22   am
    21    14    23    2
    22    15    16    1
    23    16    22    1
    24    16    24    1
    25    18    19    1
    26    20    25    1
    27    20    26    1
    28    20    27    1
    29    21    22    1
    30     1    28    1
    31     2    29    1
    32     3    30    1
    33     4    31    1
    34     5    32    1
    35     6    33    1
    36     7    34    1
    37     8    35    1
    38    15    36    1
    39    15    37    1
    40    17    38    1
    41    17    39    1
    42    17    40    1
    43    18    41    1
    44    18    42    1
    45    18    43    1
    46    19    44    1
    47    19    45    1
    48    24    46    1
