@<TRIPOS>MOLECULE
AG-667/13587023
 40 43 0 0 0
SMALL
USER_CHARGES

@<TRIPOS>ATOM
      1 C           0.7893    1.2117   -2.3922 C.ar    1  LIG1       -0.0982
      2 C           3.2895    6.1419   -2.1501 C.ar    1  LIG1       -0.0928
      3 C           1.5576    3.8118    5.9321 C.ar    1  LIG1       -0.0889
      4 C           2.2172    6.8692   -2.6665 C.ar    1  LIG1       -0.0978
      5 C           2.1162    5.0796    5.7902 C.ar    1  LIG1       -0.0829
      6 C           2.0597    1.6744   -2.0497 C.ar    1  LIG1       -0.0907
      7 C          -0.3033    1.5051   -1.5762 C.ar    1  LIG1       -0.0901
      8 C           3.1560    5.4702   -0.9349 C.ar    1  LIG1       -0.0636
      9 C           1.2032    3.0759    4.8024 C.ar    1  LIG1       -0.0632
     10 C           1.0113    6.9250   -1.9676 C.ar    1  LIG1       -0.0920
     11 C           2.3188    5.6143    4.5171 C.ar    1  LIG1       -0.0503
     12 C           2.2377    2.4305   -0.8911 C.ar    1  LIG1       -0.0617
     13 C          -0.1253    2.2611   -0.4176 C.ar    1  LIG1       -0.0606
     14 C           1.9501    5.5261   -0.2360 C.ar    1  LIG1        0.0148
     15 C           1.4086    3.6163    3.5273 C.ar    1  LIG1        0.0559
     16 C           0.8777    6.2535   -0.7524 C.ar    1  LIG1       -0.0778
     17 C           1.9673    4.8874    3.3735 C.ar    1  LIG1       -0.0041
     18 C           1.1452    2.7239   -0.0751 C.ar    1  LIG1       -0.0119
     19 C           1.8360    4.8034    1.0538 C.ar    1  LIG1        0.0801
     20 C           1.0678    2.8349    2.3181 C.ar    1  LIG1        0.1552
     21 C          -0.4245    6.3306   -0.0247 C.3     1  LIG1       -0.0345
     22 N           2.1631    5.4734    2.1170 N.ar    1  LIG1       -0.3414
     23 N           1.3259    3.4911    1.1002 N.ar    1  LIG1       -0.2281
     24 O           0.6523    1.6878    2.4605 O.2     1  LIG1       -0.4521
     25 H           0.6502    0.6236   -3.2947 H       1  LIG1        0.1244
     26 H           4.2288    6.0979   -2.6941 H       1  LIG1        0.1225
     27 H           1.4000    3.3957    6.9229 H       1  LIG1        0.1251
     28 H           2.3218    7.3922   -3.6127 H       1  LIG1        0.1261
     29 H           2.3925    5.6537    6.6698 H       1  LIG1        0.1377
     30 H           2.9105    1.4469   -2.6852 H       1  LIG1        0.1266
     31 H          -1.2926    1.1454   -1.8437 H       1  LIG1        0.1265
     32 H           3.9994    4.9078   -0.5426 H       1  LIG1        0.1353
     33 H           0.7743    2.0864    4.9337 H       1  LIG1        0.1461
     34 H           0.1819    7.4941   -2.3791 H       1  LIG1        0.1240
     35 H           2.7511    6.6077    4.4220 H       1  LIG1        0.1453
     36 H           3.2325    2.7859   -0.6343 H       1  LIG1        0.1317
     37 H          -0.9843    2.4837    0.2107 H       1  LIG1        0.1338
     38 H          -1.0836    5.5131   -0.3385 H       1  LIG1        0.0656
     39 H          -0.2766    6.2640    1.0601 H       1  LIG1        0.0598
     40 H          -0.9315    7.2836   -0.2201 H       1  LIG1        0.0461
@<TRIPOS>BOND
     1     1     6   ar
     2     1     7   ar
     3     2     4   ar
     4     2     8   ar
     5     3     5   ar
     6     3     9   ar
     7     4    10   ar
     8     5    11   ar
     9     6    12   ar
    10     7    13   ar
    11     8    14   ar
    12     9    15   ar
    13    10    16   ar
    14    11    17   ar
    15    12    18   ar
    16    13    18   ar
    17    14    16   ar
    18    14    19    1
    19    15    17   ar
    20    15    20   ar
    21    16    21    1
    22    17    22   ar
    23    18    23    1
    24    19    22   ar
    25    19    23   ar
    26    20    23   ar
    27    20    24    2
    28     1    25    1
    29     2    26    1
    30     3    27    1
    31     4    28    1
    32     5    29    1
    33     6    30    1
    34     7    31    1
    35     8    32    1
    36     9    33    1
    37    10    34    1
    38    11    35    1
    39    12    36    1
    40    13    37    1
    41    21    38    1
    42    21    39    1
    43    21    40    1
