@<TRIPOS>MOLECULE
AG-690/12889788
 49 52 0 0 0
SMALL
USER_CHARGES

@<TRIPOS>ATOM
      1 C           0.6166    0.7517   -2.3869 C.ar    1  LIG1       -0.1041
      2 C           1.8646    1.3732   -2.3448 C.ar    1  LIG1       -0.0969
      3 C          -0.3515    1.0658   -1.4330 C.ar    1  LIG1       -0.1019
      4 C           2.7441    3.6451    6.1726 C.ar    1  LIG1       -0.0983
      5 C           2.1447    2.3087   -1.3488 C.ar    1  LIG1       -0.0786
      6 C          -0.0714    2.0013   -0.4370 C.ar    1  LIG1       -0.0856
      7 C           2.6912    3.6158    4.7790 C.ar    1  LIG1       -0.0743
      8 C           0.8926    6.3821   -1.1461 C.ar    1  LIG1       -0.0786
      9 C           1.0536    7.1396   -2.3062 C.ar    1  LIG1       -0.0994
     10 C           1.9127    4.5101    6.8841 C.ar    1  LIG1       -0.0692
     11 C           3.2280    5.7679   -1.2230 C.ar    1  LIG1       -0.0746
     12 C           0.9754    5.3166    4.8085 C.ar    1  LIG1       -0.0195
     13 C           1.1766    2.6229   -0.3949 C.ar    1  LIG1       -0.0529
     14 C           1.9799    5.6963   -0.6044 C.ar    1  LIG1       -0.0395
     15 C           1.8069    4.4515    4.0971 C.ar    1  LIG1       -0.0071
     16 C           2.3018    7.2112   -2.9247 C.ar    1  LIG1       -0.1168
     17 C           3.3890    6.5253   -2.3832 C.ar    1  LIG1       -0.1099
     18 C           1.0283    5.3459    6.2021 C.ar    1  LIG1       -0.0036
     19 C           1.8147    4.9200    0.5874 C.ar    1  LIG1        0.0011
     20 C           1.4659    3.5909    0.6344 C.ar    1  LIG1       -0.0170
     21 C           1.7515    4.4210    2.6557 C.ar    1  LIG1        0.0219
     22 C           2.4490    8.0263   -4.1674 C.3     1  LIG1       -0.0436
     23 C           4.7346    6.5874   -3.0282 C.3     1  LIG1       -0.0428
     24 C           0.3236    6.1679    8.3195 C.3     1  LIG1        0.0241
     25 N           1.9914    5.4308    1.8490 N.ar    1  LIG1       -0.3581
     26 N           1.4299    3.2853    1.9657 N.ar    1  LIG1       -0.3243
     27 O           0.2174    6.1896    6.8969 O.3     1  LIG1       -0.4160
     28 H           0.3984    0.0237   -3.1628 H       1  LIG1        0.1186
     29 H           2.6184    1.1283   -3.0875 H       1  LIG1        0.1213
     30 H          -1.3237    0.5827   -1.4665 H       1  LIG1        0.1182
     31 H           3.4326    2.9946    6.7041 H       1  LIG1        0.1291
     32 H           3.1214    2.7865   -1.3310 H       1  LIG1        0.1314
     33 H          -0.8363    2.2345    0.3000 H       1  LIG1        0.1189
     34 H           3.3457    2.9365    4.2383 H       1  LIG1        0.1133
     35 H          -0.0864    6.3370   -0.6749 H       1  LIG1        0.1235
     36 H           0.2004    7.6709   -2.7199 H       1  LIG1        0.1171
     37 H           1.9588    4.5285    7.9697 H       1  LIG1        0.1148
     38 H           4.0799    5.2345   -0.8054 H       1  LIG1        0.1314
     39 H           0.2824    5.9730    4.2861 H       1  LIG1        0.1538
     40 H           2.7209    9.0578   -3.9152 H       1  LIG1        0.0556
     41 H           3.2234    7.6113   -4.8243 H       1  LIG1        0.0522
     42 H           1.5159    8.0417   -4.7442 H       1  LIG1        0.0544
     43 H           4.8416    5.7802   -3.7621 H       1  LIG1        0.0552
     44 H           4.8856    7.5465   -3.5387 H       1  LIG1        0.0532
     45 H           5.5355    6.4921   -2.2843 H       1  LIG1        0.0545
     46 H          -0.3776    6.8875    8.7491 H       1  LIG1        0.0894
     47 H           1.3459    6.4192    8.6133 H       1  LIG1        0.0894
     48 H           0.0793    5.1654    8.6789 H       1  LIG1        0.1226
     49 H           1.2056    2.3840    2.3675 H       1  LIG1        0.3477
@<TRIPOS>BOND
     1     1     2   ar
     2     1     3   ar
     3     2     5   ar
     4     3     6   ar
     5     4     7   ar
     6     4    10   ar
     7     5    13   ar
     8     6    13   ar
     9     7    15   ar
    10     8     9   ar
    11     8    14   ar
    12     9    16   ar
    13    10    18   ar
    14    11    14   ar
    15    11    17   ar
    16    12    15   ar
    17    12    18   ar
    18    13    20    1
    19    14    19    1
    20    15    21    1
    21    16    17   ar
    22    16    22    1
    23    17    23    1
    24    18    27    1
    25    19    20   ar
    26    19    25   ar
    27    20    26   ar
    28    21    25   ar
    29    21    26   ar
    30    24    27    1
    31     1    28    1
    32     2    29    1
    33     3    30    1
    34     4    31    1
    35     5    32    1
    36     6    33    1
    37     7    34    1
    38     8    35    1
    39     9    36    1
    40    10    37    1
    41    11    38    1
    42    12    39    1
    43    22    40    1
    44    22    41    1
    45    22    42    1
    46    23    43    1
    47    23    44    1
    48    23    45    1
    49    24    46    1
    50    24    47    1
    51    24    48    1
    52    26    49    1
