@<TRIPOS>MOLECULE
AG-205/33674052
 41 44 0 0 0
SMALL
USER_CHARGES

@<TRIPOS>ATOM
      1 C           2.2957    7.2139   -2.9274 C.ar    1  LIG1       -0.1064
      2 C           0.6098    0.7523   -2.3841 C.ar    1  LIG1       -0.1020
      3 C           1.0514    7.1428   -2.3013 C.ar    1  LIG1       -0.1007
      4 C           3.3857    6.5265   -2.3931 C.ar    1  LIG1       -0.0998
      5 C          -0.1628    1.9079   -2.2692 C.ar    1  LIG1       -0.1002
      6 C           1.6692    0.5314   -1.5040 C.ar    1  LIG1       -0.0952
      7 C           0.8968    6.3844   -1.1409 C.ar    1  LIG1       -0.0783
      8 C           3.2311    5.7681   -1.2327 C.ar    1  LIG1       -0.0765
      9 C           0.1239    2.8425   -1.2742 C.ar    1  LIG1       -0.0857
     10 C           1.9559    1.4659   -0.5090 C.ar    1  LIG1       -0.0784
     11 C           1.8784    4.5176    6.8854 C.ar    1  LIG1       -0.0263
     12 C           3.0371    4.1912    6.1809 C.ar    1  LIG1       -0.0308
     13 C           0.6817    4.7678    4.8015 C.ar    1  LIG1       -0.0035
     14 C           1.9866    5.6970   -0.6065 C.ar    1  LIG1       -0.0367
     15 C           1.1833    2.6215   -0.3941 C.ar    1  LIG1       -0.0512
     16 C           1.8405    4.4413    4.0969 C.ar    1  LIG1        0.0306
     17 C           0.7006    4.8059    6.1957 C.ar    1  LIG1        0.0776
     18 C           3.0182    4.1530    4.7867 C.ar    1  LIG1        0.0544
     19 C           1.8279    4.9163    0.5883 C.ar    1  LIG1        0.0127
     20 C           1.4789    3.5872    0.6348 C.ar    1  LIG1       -0.0096
     21 C           1.7767    4.4135    2.6559 C.ar    1  LIG1        0.0257
     22 N           2.0121    5.4248    1.8497 N.ar    1  LIG1       -0.3481
     23 N           1.4505    3.2793    1.9657 N.ar    1  LIG1       -0.3207
     24 N          -0.4786    5.1381    6.9137 N.pl3   1  LIG1       -0.0551
     25 O          -0.4392    5.1666    8.1676 O.2     1  LIG1       -0.1628
     26 O          -1.5276    5.3942    6.2748 O.2     1  LIG1       -0.2620
     27 CL          4.4842    3.7423    3.9656 Cl      1  LIG1       -0.0713
     28 H           2.4161    7.8035   -3.8315 H       1  LIG1        0.1155
     29 H           0.3862    0.0243   -3.1584 H       1  LIG1        0.1213
     30 H           0.2024    7.6769   -2.7179 H       1  LIG1        0.1166
     31 H           4.3541    6.5810   -2.8815 H       1  LIG1        0.1167
     32 H          -0.9875    2.0800   -2.9547 H       1  LIG1        0.1196
     33 H           2.2702   -0.3690   -1.5927 H       1  LIG1        0.1224
     34 H          -0.0798    6.3389   -0.6644 H       1  LIG1        0.1252
     35 H           4.0905    5.2381   -0.8287 H       1  LIG1        0.1297
     36 H          -0.4893    3.7371   -1.1960 H       1  LIG1        0.1203
     37 H           2.7858    1.2796    0.1686 H       1  LIG1        0.1335
     38 H           1.9069    4.5438    7.9720 H       1  LIG1        0.1786
     39 H           3.9462    3.9693    6.7342 H       1  LIG1        0.1654
     40 H          -0.2399    4.9933    4.2674 H       1  LIG1        0.1723
     41 H           1.2283    2.3772    2.3672 H       1  LIG1        0.3631
@<TRIPOS>BOND
     1     1     3   ar
     2     1     4   ar
     3     2     5   ar
     4     2     6   ar
     5     3     7   ar
     6     4     8   ar
     7     5     9   ar
     8     6    10   ar
     9     7    14   ar
    10     8    14   ar
    11     9    15   ar
    12    10    15   ar
    13    11    12   ar
    14    11    17   ar
    15    12    18   ar
    16    13    16   ar
    17    13    17   ar
    18    14    19    1
    19    15    20    1
    20    16    18   ar
    21    16    21    1
    22    17    24    1
    23    18    27    1
    24    19    20   ar
    25    19    22   ar
    26    20    23   ar
    27    21    22   ar
    28    21    23   ar
    29    24    25    1
    30    24    26    2
    31     1    28    1
    32     2    29    1
    33     3    30    1
    34     4    31    1
    35     5    32    1
    36     6    33    1
    37     7    34    1
    38     8    35    1
    39     9    36    1
    40    10    37    1
    41    11    38    1
    42    12    39    1
    43    13    40    1
    44    23    41    1
