@<TRIPOS>MOLECULE
AG-205/37023008
 40 42 0 0 0
SMALL
USER_CHARGES

@<TRIPOS>ATOM
      1 C           0.5299    4.7613    5.2245 C.ar    1  LIG1       -0.0850
      2 C           0.9782    4.8645    3.9077 C.ar    1  LIG1       -0.0588
      3 C           1.3534    6.0544   -0.4096 C.ar    1  LIG1       -0.0894
      4 C           3.0816    5.5136   -2.0089 C.ar    1  LIG1       -0.0856
      5 C           1.1117    7.2552   -1.0768 C.ar    1  LIG1       -0.0993
      6 C           2.8399    6.7143   -2.6763 C.ar    1  LIG1       -0.0980
      7 C           1.4301    4.4578    6.2459 C.ar    1  LIG1       -0.0679
      8 C           3.2267    4.3604    4.6336 C.ar    1  LIG1       -0.0347
      9 C           2.3266    4.6641    3.6122 C.ar    1  LIG1        0.0484
     10 C           2.3385    5.1836   -0.8756 C.ar    1  LIG1       -0.0492
     11 C           1.8549    7.5852   -2.2102 C.ar    1  LIG1       -0.1140
     12 C           2.7785    4.2573    5.9504 C.ar    1  LIG1       -0.0040
     13 C           1.1387    2.2247    0.5741 C.2     1  LIG1        0.1440
     14 C           2.8000    4.7728    2.2185 C.2     1  LIG1        0.1746
     15 C           1.7377    2.7389   -0.7004 C.3     1  LIG1        0.0809
     16 C           2.6023    3.8744   -0.1491 C.3     1  LIG1        0.0821
     17 C           1.5947    8.8686   -2.9241 C.3     1  LIG1       -0.0413
     18 C           0.2501    1.0261    0.5737 C.3     1  LIG1        0.4018
     19 N           1.4191    2.8896    1.6490 N.2     1  LIG1       -0.2746
     20 N           2.2491    3.9104    1.2801 N.am    1  LIG1       -0.2175
     21 O           3.6569    5.6209    1.9762 O.2     1  LIG1       -0.4359
     22 O           3.9731    3.4877   -0.2379 O.3     1  LIG1       -0.4380
     23 F           0.0972    0.5326   -0.6741 F       1  LIG1       -0.1605
     24 F           0.7579    0.0399    1.3442 F       1  LIG1       -0.1599
     25 F          -0.9785    1.3243    1.0489 F       1  LIG1       -0.1596
     26 CL          3.8887    3.8832    7.2114 Cl      1  LIG1       -0.1393
     27 H          -0.5199    4.9177    5.4543 H       1  LIG1        0.1331
     28 H           0.2672    5.1015    3.1202 H       1  LIG1        0.1646
     29 H           0.7697    5.8057    0.4728 H       1  LIG1        0.1169
     30 H           3.8500    4.8402   -2.3797 H       1  LIG1        0.1319
     31 H           0.3411    7.9266   -0.7075 H       1  LIG1        0.1201
     32 H           3.4233    6.9638   -3.5585 H       1  LIG1        0.1220
     33 H           1.0662    4.3807    7.2672 H       1  LIG1        0.1437
     34 H           4.2782    4.2051    4.4002 H       1  LIG1        0.1568
     35 H           2.3136    1.9493   -1.1912 H       1  LIG1        0.1352
     36 H           0.9244    3.0740   -1.3523 H       1  LIG1        0.1326
     37 H           2.2236    9.6681   -2.5138 H       1  LIG1        0.0589
     38 H           1.8048    8.7770   -3.9976 H       1  LIG1        0.0557
     39 H           0.5433    9.1702   -2.8309 H       1  LIG1        0.0549
     40 H           4.4934    4.1993    0.1701 H       1  LIG1        0.3543
@<TRIPOS>BOND
     1     1     2   ar
     2     1     7   ar
     3     2     9   ar
     4     3     5   ar
     5     3    10   ar
     6     4     6   ar
     7     4    10   ar
     8     5    11   ar
     9     6    11   ar
    10     7    12   ar
    11     8     9   ar
    12     8    12   ar
    13     9    14    1
    14    10    16    1
    15    11    17    1
    16    12    26    1
    17    13    15    1
    18    13    18    1
    19    13    19    2
    20    14    20   am
    21    14    21    2
    22    15    16    1
    23    16    20    1
    24    16    22    1
    25    18    23    1
    26    18    24    1
    27    18    25    1
    28    19    20    1
    29     1    27    1
    30     2    28    1
    31     3    29    1
    32     4    30    1
    33     5    31    1
    34     6    32    1
    35     7    33    1
    36     8    34    1
    37    15    35    1
    38    15    36    1
    39    17    37    1
    40    17    38    1
    41    17    39    1
    42    22    40    1
