@<TRIPOS>MOLECULE
AQ-344/43100153
 37 40 0 0 0
SMALL
USER_CHARGES

@<TRIPOS>ATOM
      1 C           0.7795    1.3795   -2.3636 C.ar    1  LIG1       -0.1012
      2 C           1.6185    6.9215   -2.4477 C.ar    1  LIG1       -0.1002
      3 C           2.5315    5.4049    5.4465 C.ar    1  LIG1       -0.0919
      4 C           2.0386    1.3331   -1.7654 C.ar    1  LIG1       -0.0968
      5 C          -0.2883    1.9790   -1.6956 C.ar    1  LIG1       -0.0971
      6 C           2.9889    6.8605   -2.1946 C.ar    1  LIG1       -0.0967
      7 C           0.7223    6.2789   -1.5935 C.ar    1  LIG1       -0.0960
      8 C           1.5985    4.5683    6.0427 C.ar    1  LIG1       -0.0890
      9 C           2.7924    5.3081    4.0771 C.ar    1  LIG1       -0.0876
     10 C           2.2302    1.8861   -0.4993 C.ar    1  LIG1       -0.0831
     11 C          -0.0968    2.5321   -0.4295 C.ar    1  LIG1       -0.0832
     12 C           3.4630    6.1569   -1.0874 C.ar    1  LIG1       -0.0778
     13 C           1.1963    5.5754   -0.4863 C.ar    1  LIG1       -0.0762
     14 C           0.9077    3.6196    5.2864 C.ar    1  LIG1       -0.0762
     15 C           2.1085    4.3563    3.2828 C.ar    1  LIG1       -0.0589
     16 C           1.1624    2.4857    0.1687 C.ar    1  LIG1       -0.0590
     17 C           2.5668    5.5144   -0.2332 C.ar    1  LIG1        0.0052
     18 C           2.2026    4.0714    1.8791 C.ar    1  LIG1        0.0249
     19 C           1.1730    3.5248    3.9063 C.ar    1  LIG1       -0.0245
     20 C           1.3614    3.0598    1.4810 C.ar    1  LIG1        0.0045
     21 C           3.0766    4.7580    0.9571 C.2     1  LIG1        0.1123
     22 O           4.3108    4.7451    1.1223 O.2     1  LIG1       -0.4395
     23 S           0.4488    2.4387    2.7797 S.2     1  LIG1       -0.1025
     24 H           0.6305    0.9494   -3.3497 H       1  LIG1        0.1229
     25 H           1.2494    7.4692   -3.3098 H       1  LIG1        0.1268
     26 H           3.0628    6.1400    6.0447 H       1  LIG1        0.1258
     27 H           2.8699    0.8660   -2.2856 H       1  LIG1        0.1227
     28 H          -1.2686    2.0161   -2.1618 H       1  LIG1        0.1226
     29 H           3.6866    7.3607   -2.8599 H       1  LIG1        0.1199
     30 H          -0.3447    6.3266   -1.7904 H       1  LIG1        0.1208
     31 H           1.4022    4.6507    7.1085 H       1  LIG1        0.1352
     32 H           3.5270    5.9724    3.6281 H       1  LIG1        0.1275
     33 H           3.2184    1.8443   -0.0476 H       1  LIG1        0.1295
     34 H          -0.9394    2.9950    0.0787 H       1  LIG1        0.1301
     35 H           4.5328    6.1160   -0.8995 H       1  LIG1        0.1317
     36 H           0.4889    5.0785    0.1725 H       1  LIG1        0.1374
     37 H           0.1794    2.9684    5.7614 H       1  LIG1        0.1376
@<TRIPOS>BOND
     1     1     4   ar
     2     1     5   ar
     3     2     6   ar
     4     2     7   ar
     5     3     8   ar
     6     3     9   ar
     7     4    10   ar
     8     5    11   ar
     9     6    12   ar
    10     7    13   ar
    11     8    14   ar
    12     9    15   ar
    13    10    16   ar
    14    11    16   ar
    15    12    17   ar
    16    13    17   ar
    17    14    19   ar
    18    15    18   ar
    19    15    19   ar
    20    16    20    1
    21    17    21    1
    22    18    20   ar
    23    18    21    1
    24    19    23   ar
    25    20    23   ar
    26    21    22    2
    27     1    24    1
    28     2    25    1
    29     3    26    1
    30     4    27    1
    31     5    28    1
    32     6    29    1
    33     7    30    1
    34     8    31    1
    35     9    32    1
    36    10    33    1
    37    11    34    1
    38    12    35    1
    39    13    36    1
    40    14    37    1
