@<TRIPOS>MOLECULE
AN-329/42239496
 39 41 0 0 0
SMALL
USER_CHARGES

@<TRIPOS>ATOM
      1 C           1.2129    4.4030    5.8986 C.ar    1  LIG1       -0.1086
      2 C           2.6048    4.4229    5.8116 C.ar    1  LIG1       -0.1056
      3 C           0.4406    4.4627    4.7385 C.ar    1  LIG1       -0.1074
      4 C           3.2246    4.5026    4.5645 C.ar    1  LIG1       -0.0978
      5 C           1.0603    4.5424    3.4915 C.ar    1  LIG1       -0.1007
      6 C           1.9841    1.3944   -1.4477 C.ar    1  LIG1       -0.0371
      7 C           0.7648    1.0318   -2.0682 C.ar    1  LIG1       -0.0528
      8 C           2.4523    4.5625    3.4044 C.ar    1  LIG1       -0.0860
      9 C           1.6424    2.0506   -0.2882 C.ar    1  LIG1        0.1373
     10 C          -0.2352    1.4920   -1.2433 C.ar    1  LIG1        0.0794
     11 C           2.4679    2.6585    0.7674 C.2     1  LIG1        0.1664
     12 C           2.4423    7.3595   -1.8994 C.3     1  LIG1       -0.0764
     13 C           1.1995    6.4609   -1.7290 C.3     1  LIG1       -0.0726
     14 C           2.9685    6.7501   -0.5832 C.3     1  LIG1       -0.0710
     15 C           2.0900    5.5197   -0.8911 C.3     1  LIG1       -0.0589
     16 C           3.1144    4.6479    2.0707 C.3     1  LIG1        0.0091
     17 C           1.4181    4.9192    0.2965 C.3     1  LIG1       -0.0159
     18 N           2.3305    4.0332    1.0296 N.am    1  LIG1       -0.3309
     19 O           3.2271    1.9000    1.3695 O.2     1  LIG1       -0.4497
     20 O           0.2915    2.1142   -0.1561 O.2     1  LIG1       -0.3375
     21 BR         -2.0931    1.2935   -1.5612 Br      1  LIG1       -0.0003
     22 H           0.7305    4.3395    6.8696 H       1  LIG1        0.1148
     23 H           3.2064    4.3753    6.7147 H       1  LIG1        0.1149
     24 H          -0.6431    4.4461    4.8059 H       1  LIG1        0.1139
     25 H           4.3098    4.5178    4.5063 H       1  LIG1        0.1227
     26 H           0.4506    4.5888    2.5930 H       1  LIG1        0.1164
     27 H           2.9851    1.1998   -1.8057 H       1  LIG1        0.1572
     28 H           0.6400    0.5000   -3.0010 H       1  LIG1        0.1462
     29 H           3.0511    7.1176   -2.7783 H       1  LIG1        0.0474
     30 H           2.2555    8.4362   -1.8830 H       1  LIG1        0.0396
     31 H           0.3926    6.9312   -1.1547 H       1  LIG1        0.0531
     32 H           0.7813    6.0488   -2.6512 H       1  LIG1        0.0347
     33 H           4.0477    6.5826   -0.5360 H       1  LIG1        0.0434
     34 H           2.6563    7.3013    0.3118 H       1  LIG1        0.0528
     35 H           2.5973    4.7471   -1.4791 H       1  LIG1        0.0663
     36 H           3.2864    5.6938    1.7802 H       1  LIG1        0.1358
     37 H           4.0961    4.1547    2.0758 H       1  LIG1        0.1286
     38 H           0.5525    4.3254   -0.0122 H       1  LIG1        0.1087
     39 H           1.0828    5.6980    0.9878 H       1  LIG1        0.1203
@<TRIPOS>BOND
     1     1     2   ar
     2     1     3   ar
     3     2     4   ar
     4     3     5   ar
     5     4     8   ar
     6     5     8   ar
     7     6     7   ar
     8     6     9   ar
     9     7    10   ar
    10     8    16    1
    11     9    11    1
    12     9    20   ar
    13    10    20   ar
    14    10    21    1
    15    11    18   am
    16    11    19    2
    17    12    13    1
    18    12    14    1
    19    13    15    1
    20    14    15    1
    21    15    17    1
    22    16    18    1
    23    17    18    1
    24     1    22    1
    25     2    23    1
    26     3    24    1
    27     4    25    1
    28     5    26    1
    29     6    27    1
    30     7    28    1
    31    12    29    1
    32    12    30    1
    33    13    31    1
    34    13    32    1
    35    14    33    1
    36    14    34    1
    37    15    35    1
    38    16    36    1
    39    16    37    1
    40    17    38    1
    41    17    39    1
