@<TRIPOS>MOLECULE
AI-346/37002001
 55 58 0 0 0
SMALL
USER_CHARGES

@<TRIPOS>ATOM
      1 C           1.1068    5.3943    4.5770 C.ar    1  LIG1       -0.0698
      2 C           2.3644    2.1038   -1.2876 C.ar    1  LIG1       -0.0847
      3 C           0.3207    2.9298   -0.2986 C.ar    1  LIG1       -0.0942
      4 C           1.0281    5.2057    5.9560 C.ar    1  LIG1       -0.0613
      5 C           1.6548    1.0614   -1.8836 C.ar    1  LIG1       -0.0564
      6 C          -0.3890    1.8874   -0.8948 C.ar    1  LIG1       -0.0695
      7 C           2.5196    3.3087    5.7914 C.ar    1  LIG1       -0.0480
      8 C           1.8973    4.5361    3.8082 C.ar    1  LIG1       -0.0258
      9 C           1.6975    3.0380   -0.4950 C.ar    1  LIG1       -0.0781
     10 C           2.6004    3.4730    4.4023 C.ar    1  LIG1       -0.0733
     11 C           0.2781    0.9532   -1.6873 C.ar    1  LIG1       -0.0141
     12 C           1.7348    4.1679    6.5626 C.ar    1  LIG1       -0.0103
     13 C           1.9957    4.7238    2.3533 C.2     1  LIG1        0.0131
     14 C           0.0851    6.9186   -0.6635 C.2     1  LIG1       -0.0150
     15 C           1.2223    6.1992   -0.6519 C.2     1  LIG1       -0.0311
     16 C          -0.3324    7.8150   -1.7828 C.2     1  LIG1        0.0303
     17 C           3.4691    2.5387    3.5922 C.3     1  LIG1       -0.0277
     18 C           3.0577    2.4954    2.1168 C.3     1  LIG1       -0.0333
     19 C           2.4692    4.1722    0.1530 C.3     1  LIG1        0.0241
     20 C           2.9921    3.9129    1.5729 C.3     1  LIG1        0.0255
     21 C           2.1553    6.2841   -1.8331 C.3     1  LIG1        0.0099
     22 C          -1.6414    7.4748   -2.4446 C.3     1  LIG1        0.0198
     23 C          -1.8196   -0.1144   -2.0277 C.3     1  LIG1        0.0238
     24 C           2.4070    2.9114    8.4665 C.3     1  LIG1        0.0248
     25 N           1.2984    5.5642    1.6557 N.2     1  LIG1       -0.3161
     26 N           1.6402    5.3718    0.3431 N.pl3   1  LIG1       -0.3178
     27 O           0.3479    8.7635   -2.1631 O.2     1  LIG1       -0.5068
     28 O          -0.4145   -0.0632   -2.2701 O.3     1  LIG1       -0.4177
     29 O           1.6594    3.9917    7.9104 O.3     1  LIG1       -0.4156
     30 H           0.5549    6.2134    4.1250 H       1  LIG1        0.1459
     31 H           3.4368    2.1803   -1.4459 H       1  LIG1        0.1305
     32 H          -0.2073    3.6531    0.3174 H       1  LIG1        0.1297
     33 H           0.4156    5.8742    6.5549 H       1  LIG1        0.1161
     34 H           2.1800    0.3368   -2.5003 H       1  LIG1        0.1287
     35 H          -1.4611    1.8088   -0.7383 H       1  LIG1        0.1137
     36 H           3.0672    2.5036    6.2763 H       1  LIG1        0.1331
     37 H          -0.6018    6.8718    0.1773 H       1  LIG1        0.0995
     38 H           4.5109    2.8713    3.6790 H       1  LIG1        0.0770
     39 H           3.4078    1.5234    4.0021 H       1  LIG1        0.0768
     40 H           3.7757    1.8962    1.5464 H       1  LIG1        0.0616
     41 H           2.0803    2.0014    2.0420 H       1  LIG1        0.0649
     42 H           3.3356    4.4068   -0.5177 H       1  LIG1        0.1421
     43 H           3.9647    4.4119    1.6888 H       1  LIG1        0.1095
     44 H           2.8996    7.0803   -1.7243 H       1  LIG1        0.0885
     45 H           2.6965    5.3399   -1.9581 H       1  LIG1        0.0686
     46 H           1.5900    6.4829   -2.7501 H       1  LIG1        0.0989
     47 H          -2.4637    7.9927   -1.9434 H       1  LIG1        0.0727
     48 H          -1.6188    7.8034   -3.4877 H       1  LIG1        0.0666
     49 H          -1.7995    6.3939   -2.4139 H       1  LIG1        0.0661
     50 H          -2.2494   -0.9724   -2.5505 H       1  LIG1        0.0894
     51 H          -2.2848    0.8102   -2.3790 H       1  LIG1        0.1222
     52 H          -1.9914   -0.2212   -0.9541 H       1  LIG1        0.0895
     53 H           2.2586    2.8836    9.5487 H       1  LIG1        0.1226
     54 H           3.4671    3.0443    8.2366 H       1  LIG1        0.0904
     55 H           2.0561    1.9738    8.0287 H       1  LIG1        0.0904
@<TRIPOS>BOND
     1     1     4   ar
     2     1     8   ar
     3     2     5   ar
     4     2     9   ar
     5     3     6   ar
     6     3     9   ar
     7     4    12   ar
     8     5    11   ar
     9     6    11   ar
    10     7    10   ar
    11     7    12   ar
    12     8    10   ar
    13     8    13    1
    14     9    19    1
    15    10    17    1
    16    11    28    1
    17    12    29    1
    18    13    20    1
    19    13    25    2
    20    14    15    2
    21    14    16    1
    22    15    21    1
    23    15    26    1
    24    16    22    1
    25    16    27    2
    26    17    18    1
    27    18    20    1
    28    19    20    1
    29    19    26    1
    30    23    28    1
    31    24    29    1
    32    25    26    1
    33     1    30    1
    34     2    31    1
    35     3    32    1
    36     4    33    1
    37     5    34    1
    38     6    35    1
    39     7    36    1
    40    14    37    1
    41    17    38    1
    42    17    39    1
    43    18    40    1
    44    18    41    1
    45    19    42    1
    46    20    43    1
    47    21    44    1
    48    21    45    1
    49    21    46    1
    50    22    47    1
    51    22    48    1
    52    22    49    1
    53    23    50    1
    54    23    51    1
    55    23    52    1
    56    24    53    1
    57    24    54    1
    58    24    55    1
