@<TRIPOS>MOLECULE
AG-690/36279048
 47 49 0 0 0
SMALL
USER_CHARGES

@<TRIPOS>ATOM
      1 C           1.9155    4.9222    6.5132 C.ar    1  LIG1       -0.1024
      2 C           1.9251    7.3346   -2.1635 C.ar    1  LIG1       -0.1048
      3 C           3.0470    5.0983    5.7168 C.ar    1  LIG1       -0.0977
      4 C           0.7444    4.4074    5.9570 C.ar    1  LIG1       -0.0961
      5 C           0.8942    6.9049   -1.3280 C.ar    1  LIG1       -0.1030
      6 C           3.1092    6.6017   -2.2438 C.ar    1  LIG1       -0.1034
      7 C           3.0075    4.7598    4.3643 C.ar    1  LIG1       -0.0774
      8 C           0.7049    4.0688    4.6045 C.ar    1  LIG1       -0.0747
      9 C           1.0473    5.7422   -0.5727 C.ar    1  LIG1       -0.0971
     10 C           3.2624    5.4391   -1.4886 C.ar    1  LIG1       -0.0970
     11 C           1.8365    4.2450    3.8081 C.ar    1  LIG1       -0.0344
     12 C           2.2315    5.0093   -0.6531 C.ar    1  LIG1       -0.0822
     13 C           1.7954    3.8928    2.4006 C.2     1  LIG1        0.0118
     14 C          -1.0715    2.5099   -0.3331 C.2     1  LIG1        0.0401
     15 C           0.2733    2.5484   -0.3807 C.2     1  LIG1       -0.0152
     16 C          -1.9038    1.7812   -1.3216 C.2     1  LIG1        0.1470
     17 C           3.0045    4.0748    1.5236 C.3     1  LIG1        0.0333
     18 C           2.3964    3.7634    0.1561 C.3     1  LIG1        0.0254
     19 C           0.9893    1.8191   -1.4890 C.3     1  LIG1        0.0133
     20 C          -5.1588    0.2611   -0.6354 C.3     1  LIG1       -0.0349
     21 C          -3.9660    0.6419   -1.4864 C.3     1  LIG1        0.0226
     22 N           0.7612    3.3852    1.8036 N.2     1  LIG1       -0.3174
     23 N           1.0945    3.2006    0.4970 N.pl3   1  LIG1       -0.3153
     24 O          -1.6170    1.5888   -2.4919 O.2     1  LIG1       -0.4786
     25 O          -3.0334    1.3718   -0.6821 O.3     1  LIG1       -0.3608
     26 H           1.9463    5.1858    7.5663 H       1  LIG1        0.1217
     27 H           1.8052    8.2392   -2.7526 H       1  LIG1        0.1186
     28 H           3.9587    5.4994    6.1500 H       1  LIG1        0.1207
     29 H          -0.1365    4.2699    6.5772 H       1  LIG1        0.1209
     30 H          -0.0284    7.4747   -1.2662 H       1  LIG1        0.1174
     31 H           3.9116    6.9355   -2.8951 H       1  LIG1        0.1189
     32 H           3.8951    4.9011    3.7529 H       1  LIG1        0.1302
     33 H          -0.2130    3.6685    4.1818 H       1  LIG1        0.1361
     34 H           0.2388    5.4150    0.0756 H       1  LIG1        0.1166
     35 H           4.1885    4.8746   -1.5575 H       1  LIG1        0.1213
     36 H          -1.6042    3.0302    0.4588 H       1  LIG1        0.1255
     37 H           3.4306    5.0772    1.6215 H       1  LIG1        0.1035
     38 H           3.7502    3.3238    1.8053 H       1  LIG1        0.1032
     39 H           3.0196    3.0541   -0.3992 H       1  LIG1        0.1404
     40 H           1.1248    2.4794   -2.3525 H       1  LIG1        0.0912
     41 H           1.9797    1.4622   -1.1864 H       1  LIG1        0.0677
     42 H           0.4072    0.9478   -1.8083 H       1  LIG1        0.1016
     43 H          -4.8537   -0.3695    0.2042 H       1  LIG1        0.0473
     44 H          -5.6549    1.1553   -0.2441 H       1  LIG1        0.0471
     45 H          -5.9013   -0.2795   -1.2318 H       1  LIG1        0.0559
     46 H          -4.2780    1.2725   -2.3243 H       1  LIG1        0.0968
     47 H          -3.4710   -0.2527   -1.8759 H       1  LIG1        0.0967
@<TRIPOS>BOND
     1     1     3   ar
     2     1     4   ar
     3     2     5   ar
     4     2     6   ar
     5     3     7   ar
     6     4     8   ar
     7     5     9   ar
     8     6    10   ar
     9     7    11   ar
    10     8    11   ar
    11     9    12   ar
    12    10    12   ar
    13    11    13    1
    14    12    18    1
    15    13    17    1
    16    13    22    2
    17    14    15    2
    18    14    16    1
    19    15    19    1
    20    15    23    1
    21    16    24    2
    22    16    25    1
    23    17    18    1
    24    18    23    1
    25    20    21    1
    26    21    25    1
    27    22    23    1
    28     1    26    1
    29     2    27    1
    30     3    28    1
    31     4    29    1
    32     5    30    1
    33     6    31    1
    34     7    32    1
    35     8    33    1
    36     9    34    1
    37    10    35    1
    38    14    36    1
    39    17    37    1
    40    17    38    1
    41    18    39    1
    42    19    40    1
    43    19    41    1
    44    19    42    1
    45    20    43    1
    46    20    44    1
    47    20    45    1
    48    21    46    1
    49    21    47    1
