@<TRIPOS>MOLECULE
AJ-292/40763188
 52 56 0 0 0
SMALL
USER_CHARGES

@<TRIPOS>ATOM
      1 C           1.0576    3.9252    5.9849 C.ar    1  LIG1       -0.0903
      2 C           1.8749    5.0237    6.2988 C.ar    1  LIG1       -0.0888
      3 C          -0.2718    1.2120   -1.3104 C.ar    1  LIG1       -0.0884
      4 C           0.7173    1.3639   -2.2693 C.ar    1  LIG1       -0.0922
      5 C           1.0304    3.3961    4.6879 C.ar    1  LIG1       -0.0724
      6 C           2.6771    5.6091    5.3216 C.ar    1  LIG1       -0.0679
      7 C           3.5233    6.2449   -1.5379 C.ar    1  LIG1       -0.0870
      8 C           1.4099    5.7392   -0.4821 C.ar    1  LIG1       -0.0906
      9 C           2.8739    7.0996   -2.4286 C.ar    1  LIG1       -0.0935
     10 C           0.7605    6.5939   -1.3728 C.ar    1  LIG1       -0.0963
     11 C          -0.0352    1.6346   -0.0026 C.ar    1  LIG1       -0.0609
     12 C           1.9381    1.9335   -1.9149 C.ar    1  LIG1       -0.0776
     13 C           1.8275    3.9782    3.7122 C.ar    1  LIG1       -0.0213
     14 C           2.6247    5.0616    4.0534 C.ar    1  LIG1        0.0166
     15 C           2.7914    5.5647   -0.5647 C.ar    1  LIG1       -0.0771
     16 C           1.4925    7.2741   -2.3461 C.ar    1  LIG1       -0.1103
     17 C           1.1912    2.2209    0.3848 C.ar    1  LIG1       -0.0500
     18 C           2.1842    2.3735   -0.5995 C.ar    1  LIG1       -0.0307
     19 C           2.0160    3.6588    2.2893 C.2     1  LIG1       -0.0255
     20 C           3.3400    5.4566    2.8544 C.2     1  LIG1        0.1089
     21 C           2.9097    4.5264    1.7732 C.2     1  LIG1        0.0340
     22 C           3.4978    4.6342    0.4058 C.3     1  LIG1        0.0370
     23 C           1.0033    7.7300   -4.7747 C.3     1  LIG1       -0.0620
     24 C           1.3426    9.6470   -3.1790 C.3     1  LIG1       -0.0622
     25 C          -0.7500    8.3062   -3.1087 C.3     1  LIG1       -0.0621
     26 C           0.7989    8.1893   -3.2978 C.3     1  LIG1       -0.0620
     27 N           1.2808    2.6523    1.7245 N.pl3   1  LIG1       -0.3571
     28 O           4.1306    6.3730    2.7655 O.2     1  LIG1       -0.4350
     29 S           3.8373    2.9815   -0.2930 S.3     1  LIG1       -0.1774
     30 H           0.4392    3.4790    6.7594 H       1  LIG1        0.1289
     31 H           1.8804    5.4175    7.3114 H       1  LIG1        0.1266
     32 H          -1.2265    0.7676   -1.5749 H       1  LIG1        0.1312
     33 H           0.5452    1.0338   -3.2894 H       1  LIG1        0.1249
     34 H           0.3924    2.5453    4.4735 H       1  LIG1        0.1401
     35 H           3.3115    6.4564    5.5535 H       1  LIG1        0.1501
     36 H           4.6001    6.1147   -1.6098 H       1  LIG1        0.1245
     37 H           0.8322    5.2142    0.2741 H       1  LIG1        0.1213
     38 H           3.4526    7.6265   -3.1825 H       1  LIG1        0.1189
     39 H          -0.3161    6.7243   -1.3016 H       1  LIG1        0.1195
     40 H          -0.8327    1.5113    0.7291 H       1  LIG1        0.1354
     41 H           2.7024    2.0256   -2.6848 H       1  LIG1        0.1416
     42 H           4.5341    5.0774    0.5194 H       1  LIG1        0.1212
     43 H           0.5028    8.3869   -5.4958 H       1  LIG1        0.0378
     44 H           2.0647    7.7084   -5.0451 H       1  LIG1        0.0393
     45 H           0.6073    6.7172   -4.9152 H       1  LIG1        0.0383
     46 H           0.8356   10.3225   -3.8766 H       1  LIG1        0.0378
     47 H           1.2124   10.0672   -2.1747 H       1  LIG1        0.0380
     48 H           2.4130    9.6728   -3.4152 H       1  LIG1        0.0381
     49 H          -1.2134    8.9895   -3.8306 H       1  LIG1        0.0383
     50 H          -1.2330    7.3301   -3.2339 H       1  LIG1        0.0391
     51 H          -0.9933    8.6821   -2.1080 H       1  LIG1        0.0377
     52 H           0.5907    2.2287    2.3366 H       1  LIG1        0.3137
@<TRIPOS>BOND
     1     1     2   ar
     2     1     5   ar
     3     2     6   ar
     4     3     4   ar
     5     3    11   ar
     6     4    12   ar
     7     5    13   ar
     8     6    14   ar
     9     7     9   ar
    10     7    15   ar
    11     8    10   ar
    12     8    15   ar
    13     9    16   ar
    14    10    16   ar
    15    11    17   ar
    16    12    18   ar
    17    13    14   ar
    18    13    19    1
    19    14    20    1
    20    15    22    1
    21    16    26    1
    22    17    18   ar
    23    17    27    1
    24    18    29    1
    25    19    21    2
    26    19    27    1
    27    20    21    1
    28    20    28    2
    29    21    22    1
    30    22    29    1
    31    23    26    1
    32    24    26    1
    33    25    26    1
    34     1    30    1
    35     2    31    1
    36     3    32    1
    37     4    33    1
    38     5    34    1
    39     6    35    1
    40     7    36    1
    41     8    37    1
    42     9    38    1
    43    10    39    1
    44    11    40    1
    45    12    41    1
    46    22    42    1
    47    23    43    1
    48    23    44    1
    49    23    45    1
    50    24    46    1
    51    24    47    1
    52    24    48    1
    53    25    49    1
    54    25    50    1
    55    25    51    1
    56    27    52    1
