@<TRIPOS>MOLECULE
AN-329/43386037
 42 43 0 0 0
SMALL
USER_CHARGES

@<TRIPOS>ATOM
      1 C           1.1063    0.9923   -1.7922 C.ar    1  LIG1       -0.1127
      2 C          -0.0719    1.4990   -1.1902 C.ar    1  LIG1       -0.1165
      3 C           0.8840    5.3199    5.1262 C.ar    1  LIG1       -0.0938
      4 C           1.1356    5.1365    3.7665 C.ar    1  LIG1       -0.0675
      5 C           2.9069    3.5837    4.3037 C.ar    1  LIG1       -0.0732
      6 C           2.1045    1.9189   -1.5867 C.ar    1  LIG1       -0.0759
      7 C           0.2422    2.7201   -0.6355 C.ar    1  LIG1       -0.0826
      8 C           1.6440    4.6353    6.0747 C.ar    1  LIG1       -0.1156
      9 C           2.6554    3.7672    5.6635 C.ar    1  LIG1       -0.1109
     10 C           2.1471    4.2684    3.3553 C.ar    1  LIG1       -0.0563
     11 C           1.7506    4.6837    0.9031 C.2     1  LIG1        0.1225
     12 C           1.3566    4.8486    7.5246 C.3     1  LIG1       -0.0439
     13 C           3.4802    3.0221    6.6609 C.3     1  LIG1       -0.0413
     14 C           3.1766    6.5333   -1.0608 C.3     1  LIG1       -0.0594
     15 C           0.8952    5.8553   -1.7916 C.3     1  LIG1       -0.0595
     16 C           2.3273    4.2104   -0.4443 C.3     1  LIG1        0.0886
     17 C           2.3158    5.3435   -1.5124 C.3     1  LIG1       -0.0260
     18 N           1.5677    2.9652   -0.8829 N.ar    1  LIG1       -0.3689
     19 N           2.4014    4.0805    1.9760 N.am    1  LIG1       -0.3111
     20 O           0.8516    5.5186    0.9579 O.2     1  LIG1       -0.4603
     21 H           1.2162    0.0548   -2.3189 H       1  LIG1        0.1037
     22 H          -1.0435    1.0263   -1.1636 H       1  LIG1        0.1058
     23 H           0.0944    5.9992    5.4367 H       1  LIG1        0.1237
     24 H           0.5377    5.6763    3.0367 H       1  LIG1        0.1346
     25 H           3.6961    2.9065    3.9840 H       1  LIG1        0.1235
     26 H           3.1451    1.9196   -1.8824 H       1  LIG1        0.1720
     27 H          -0.3647    3.4292   -0.0887 H       1  LIG1        0.1641
     28 H           0.6090    4.1269    7.8739 H       1  LIG1        0.0557
     29 H           2.2641    4.7323    8.1299 H       1  LIG1        0.0521
     30 H           0.9775    5.8615    7.7087 H       1  LIG1        0.0554
     31 H           4.3654    3.6076    6.9349 H       1  LIG1        0.0578
     32 H           2.9057    2.8100    7.5711 H       1  LIG1        0.0581
     33 H           3.8105    2.0560    6.2594 H       1  LIG1        0.0528
     34 H           2.8186    6.9574   -0.1181 H       1  LIG1        0.0372
     35 H           4.2148    6.2216   -0.9015 H       1  LIG1        0.0434
     36 H           3.1762    7.3299   -1.8128 H       1  LIG1        0.0378
     37 H           0.4264    6.2397   -0.8792 H       1  LIG1        0.0409
     38 H           0.2545    5.0671   -2.1984 H       1  LIG1        0.0414
     39 H           0.9128    6.6659   -2.5285 H       1  LIG1        0.0367
     40 H           3.3801    3.9382   -0.2805 H       1  LIG1        0.1755
     41 H           2.7322    4.9731   -2.4578 H       1  LIG1        0.0695
     42 H           3.1550    3.4315    1.7605 H       1  LIG1        0.3225
@<TRIPOS>BOND
     1     1     2   ar
     2     1     6   ar
     3     2     7   ar
     4     3     4   ar
     5     3     8   ar
     6     4    10   ar
     7     5     9   ar
     8     5    10   ar
     9     6    18   ar
    10     7    18   ar
    11     8     9   ar
    12     8    12    1
    13     9    13    1
    14    10    19    1
    15    11    16    1
    16    11    19   am
    17    11    20    2
    18    14    17    1
    19    15    17    1
    20    16    17    1
    21    16    18    1
    22     1    21    1
    23     2    22    1
    24     3    23    1
    25     4    24    1
    26     5    25    1
    27     6    26    1
    28     7    27    1
    29    12    28    1
    30    12    29    1
    31    12    30    1
    32    13    31    1
    33    13    32    1
    34    13    33    1
    35    14    34    1
    36    14    35    1
    37    14    36    1
    38    15    37    1
    39    15    38    1
    40    15    39    1
    41    16    40    1
    42    17    41    1
    43    19    42    1
