@<TRIPOS>MOLECULE
AO-988/15201001
 44 48 0 0 0
SMALL
USER_CHARGES

@<TRIPOS>ATOM
      1 C           0.4075    0.6520   -1.8329 C.ar    1  LIG1       -0.1027
      2 C           1.5534    1.2721   -2.3309 C.ar    1  LIG1       -0.1030
      3 C          -0.2192    1.1565   -0.6934 C.ar    1  LIG1       -0.0974
      4 C           2.1786    3.1761    4.6862 C.ar    1  LIG1       -0.0584
      5 C           1.7124    5.5291    4.3980 C.ar    1  LIG1       -0.0509
      6 C           2.0727    2.3967   -1.6894 C.ar    1  LIG1       -0.0894
      7 C           0.3000    2.2810   -0.0519 C.ar    1  LIG1       -0.0800
      8 C           0.9706    6.9757   -2.2304 C.ar    1  LIG1       -0.0520
      9 C           1.9548    3.2998    6.0575 C.ar    1  LIG1       -0.0617
     10 C           1.4886    5.6528    5.7693 C.ar    1  LIG1       -0.0571
     11 C           2.2060    7.4388   -2.6742 C.ar    1  LIG1       -0.0599
     12 C           3.3071    5.8860   -1.1911 C.ar    1  LIG1       -0.0383
     13 C           2.0574    4.2908    3.8565 C.ar    1  LIG1        0.0092
     14 C           1.4459    2.9011   -0.5499 C.ar    1  LIG1       -0.0317
     15 C           2.0700    5.3880   -0.7349 C.ar    1  LIG1        0.0161
     16 C           0.8941    5.9904   -1.2343 C.ar    1  LIG1       -0.0229
     17 C           1.6098    4.5380    6.5989 C.ar    1  LIG1       -0.0057
     18 C           3.3735    6.9062   -2.1423 C.ar    1  LIG1       -0.0028
     19 C           2.2930    4.1606    2.4101 C.2     1  LIG1        0.0748
     20 C          -0.7595    5.1250    0.4222 C.2     1  LIG1        0.1221
     21 C           0.2292    5.3110    1.5490 C.3     1  LIG1        0.1053
     22 C           2.0169    4.1386    0.1569 C.3     1  LIG1        0.1284
     23 N           3.4562    3.7558    1.9688 N.2     1  LIG1       -0.2274
     24 N          -0.4007    5.6243   -0.8116 N.am    1  LIG1       -0.2971
     25 N           1.3695    4.4299    1.4283 N.pl3   1  LIG1       -0.3034
     26 O          -1.8732    4.6413    0.6356 O.2     1  LIG1       -0.4687
     27 O           3.3617    3.7330    0.5438 O.2     1  LIG1       -0.2942
     28 CL          1.3324    4.6902    8.2903 Cl      1  LIG1       -0.1309
     29 CL          4.9028    7.5196   -2.6445 Cl      1  LIG1       -0.1378
     30 H           0.0026   -0.2228   -2.3333 H       1  LIG1        0.1217
     31 H           2.0409    0.8802   -3.2188 H       1  LIG1        0.1193
     32 H          -1.1120    0.6746   -0.3061 H       1  LIG1        0.1228
     33 H           2.4474    2.2065    4.2749 H       1  LIG1        0.1407
     34 H           1.6149    6.4043    3.7608 H       1  LIG1        0.1554
     35 H           2.9660    2.8732   -2.0844 H       1  LIG1        0.1120
     36 H          -0.1949    2.6669    0.8354 H       1  LIG1        0.1344
     37 H           0.0805    7.3866   -2.6832 H       1  LIG1        0.1376
     38 H           2.0521    2.4227    6.6922 H       1  LIG1        0.1428
     39 H           1.2207    6.6241    6.1770 H       1  LIG1        0.1441
     40 H           2.2435    8.2166   -3.4335 H       1  LIG1        0.1498
     41 H           4.2337    5.4896   -0.7953 H       1  LIG1        0.1575
     42 H           0.5690    6.3659    1.5569 H       1  LIG1        0.1846
     43 H          -0.3037    5.1670    2.5113 H       1  LIG1        0.1706
     44 H          -1.1250    5.7349   -1.4605 H       1  LIG1        0.3233
@<TRIPOS>BOND
     1     1     2   ar
     2     1     3   ar
     3     2     6   ar
     4     3     7   ar
     5     4     9   ar
     6     4    13   ar
     7     5    10   ar
     8     5    13   ar
     9     6    14   ar
    10     7    14   ar
    11     8    11   ar
    12     8    16   ar
    13     9    17   ar
    14    10    17   ar
    15    11    18   ar
    16    12    15   ar
    17    12    18   ar
    18    13    19    1
    19    14    22    1
    20    15    16   ar
    21    15    22    1
    22    16    24    1
    23    17    28    1
    24    18    29    1
    25    19    23    2
    26    19    25    1
    27    20    21    1
    28    20    24   am
    29    20    26    2
    30    21    25    1
    31    22    25    1
    32    22    27    1
    33    23    27    1
    34     1    30    1
    35     2    31    1
    36     3    32    1
    37     4    33    1
    38     5    34    1
    39     6    35    1
    40     7    36    1
    41     8    37    1
    42     9    38    1
    43    10    39    1
    44    11    40    1
    45    12    41    1
    46    21    42    1
    47    21    43    1
    48    24    44    1
