@<TRIPOS>MOLECULE
AE-848/33224026
 49 51 0 0 0
SMALL
USER_CHARGES

@<TRIPOS>ATOM
      1 C           0.5019    0.4369   -1.5121 C.ar    1  LIG1       -0.1085
      2 C           2.3961    7.7101   -2.2096 C.ar    1  LIG1       -0.1015
      3 C          -0.3089    1.5606   -1.6706 C.ar    1  LIG1       -0.1010
      4 C           1.7258    0.5473   -0.8522 C.ar    1  LIG1       -0.0987
      5 C           2.5986    6.4665   -2.8078 C.ar    1  LIG1       -0.0945
      6 C           1.9813    7.7854   -0.8800 C.ar    1  LIG1       -0.0961
      7 C           0.1043    2.7951   -1.1695 C.ar    1  LIG1       -0.0621
      8 C           2.1390    1.7817   -0.3510 C.ar    1  LIG1       -0.0577
      9 C           2.3860    5.2979   -2.0763 C.ar    1  LIG1       -0.0660
     10 C           1.7687    6.6169   -0.1485 C.ar    1  LIG1       -0.0685
     11 C           2.8593    4.2022    4.0873 C.ar    1  LIG1       -0.0367
     12 C           0.5225    4.6096    4.5453 C.ar    1  LIG1       -0.0342
     13 C           1.5547    4.3933    3.6324 C.ar    1  LIG1       -0.0354
     14 C           1.3283    2.9057   -0.5097 C.ar    1  LIG1       -0.0207
     15 C           1.9711    5.3731   -0.7466 C.ar    1  LIG1       -0.0309
     16 C           3.1318    4.2272    5.4551 C.ar    1  LIG1        0.0454
     17 C           0.7949    4.6347    5.9131 C.ar    1  LIG1        0.0465
     18 C           2.0996    4.4435    6.3679 C.ar    1  LIG1        0.0829
     19 C           1.2695    4.3646    2.2066 C.2     1  LIG1        0.0206
     20 C           4.8121    2.6966    6.1548 C.3     1  LIG1        0.0284
     21 C          -1.5260    5.0326    6.2462 C.3     1  LIG1        0.0284
     22 C           1.7013    3.5037    8.5159 C.3     1  LIG1        0.0188
     23 N           2.1930    4.1553    1.3070 N.2     1  LIG1       -0.3106
     24 N           1.7528    4.1729    0.0051 N.pl3   1  LIG1       -0.3001
     25 O           4.4102    4.0384    5.8863 O.3     1  LIG1       -0.4021
     26 O          -0.2225    4.8462    6.7941 O.3     1  LIG1       -0.4021
     27 O           2.3665    4.4691    7.7048 O.3     1  LIG1       -0.4098
     28 H           0.1802   -0.5243   -1.9026 H       1  LIG1        0.1077
     29 H           2.5614    8.6201   -2.7794 H       1  LIG1        0.1208
     30 H          -1.2616    1.4745   -2.1845 H       1  LIG1        0.1232
     31 H           2.3572   -0.3280   -0.7288 H       1  LIG1        0.1229
     32 H           2.9214    6.4081   -3.8428 H       1  LIG1        0.1255
     33 H           1.8237    8.7541   -0.4143 H       1  LIG1        0.1251
     34 H          -0.5348    3.6647   -1.2984 H       1  LIG1        0.1186
     35 H           3.0948    1.8558    0.1616 H       1  LIG1        0.1278
     36 H           2.5463    4.3337   -2.5517 H       1  LIG1        0.1291
     37 H           1.4457    6.6878    0.8870 H       1  LIG1        0.1241
     38 H           3.6673    4.0315    3.3795 H       1  LIG1        0.1252
     39 H          -0.4962    4.7598    4.1950 H       1  LIG1        0.1313
     40 H           0.2126    4.5221    1.8899 H       1  LIG1        0.1922
     41 H           5.8521    2.6872    6.4906 H       1  LIG1        0.0914
     42 H           4.7052    2.0951    5.2486 H       1  LIG1        0.0904
     43 H           4.1743    2.2850    6.9405 H       1  LIG1        0.1242
     44 H          -2.2430    5.1911    7.0554 H       1  LIG1        0.0908
     45 H          -1.8067    4.1513    5.6638 H       1  LIG1        0.0917
     46 H          -1.5157    5.9094    5.5945 H       1  LIG1        0.1243
     47 H           2.0019    3.6333    9.5585 H       1  LIG1        0.0816
     48 H           1.9595    2.4985    8.1734 H       1  LIG1        0.1168
     49 H           0.6220    3.6499    8.4296 H       1  LIG1        0.0815
@<TRIPOS>BOND
     1     1     3   ar
     2     1     4   ar
     3     2     5   ar
     4     2     6   ar
     5     3     7   ar
     6     4     8   ar
     7     5     9   ar
     8     6    10   ar
     9     7    14   ar
    10     8    14   ar
    11     9    15   ar
    12    10    15   ar
    13    11    13   ar
    14    11    16   ar
    15    12    13   ar
    16    12    17   ar
    17    13    19    1
    18    14    24    1
    19    15    24    1
    20    16    18   ar
    21    16    25    1
    22    17    18   ar
    23    17    26    1
    24    18    27    1
    25    19    23    2
    26    20    25    1
    27    21    26    1
    28    22    27    1
    29    23    24    1
    30     1    28    1
    31     2    29    1
    32     3    30    1
    33     4    31    1
    34     5    32    1
    35     6    33    1
    36     7    34    1
    37     8    35    1
    38     9    36    1
    39    10    37    1
    40    11    38    1
    41    12    39    1
    42    19    40    1
    43    20    41    1
    44    20    42    1
    45    20    43    1
    46    21    44    1
    47    21    45    1
    48    21    46    1
    49    22    47    1
    50    22    48    1
    51    22    49    1
