@<TRIPOS>MOLECULE
AG-205/37023031
 43 45 0 0 0
SMALL
USER_CHARGES

@<TRIPOS>ATOM
      1 C           0.5298    4.7611    5.2241 C.ar    1  LIG1       -0.0842
      2 C           0.9781    4.8636    3.9073 C.ar    1  LIG1       -0.0571
      3 C           1.0601    5.7420   -0.8652 C.ar    1  LIG1       -0.0896
      4 C           3.3747    5.8256   -1.5531 C.ar    1  LIG1       -0.0852
      5 C           0.8186    6.9431   -1.5321 C.ar    1  LIG1       -0.0975
      6 C           3.1331    7.0266   -2.2201 C.ar    1  LIG1       -0.0956
      7 C           1.4299    4.4583    6.2458 C.ar    1  LIG1       -0.0756
      8 C           3.2268    4.3605    4.6337 C.ar    1  LIG1       -0.0423
      9 C           2.3266    4.6634    3.6122 C.ar    1  LIG1        0.0493
     10 C           2.3383    5.1834   -0.8756 C.ar    1  LIG1       -0.0499
     11 C           1.8550    7.5853   -2.2095 C.ar    1  LIG1       -0.1113
     12 C           2.7784    4.2581    5.9506 C.ar    1  LIG1       -0.0290
     13 C           1.1390    2.2240    0.5739 C.2     1  LIG1        0.1440
     14 C           2.7999    4.7723    2.2184 C.2     1  LIG1        0.1743
     15 C           1.7379    2.7385   -0.7006 C.3     1  LIG1        0.0808
     16 C           2.6023    3.8741   -0.1493 C.3     1  LIG1        0.0818
     17 C           1.1712    8.6506   -4.3738 C.3     1  LIG1       -0.0628
     18 C           1.5955    8.8687   -2.9238 C.3     1  LIG1       -0.0473
     19 C           0.2507    1.0253    0.5733 C.3     1  LIG1        0.4018
     20 N           1.4193    2.8889    1.6488 N.2     1  LIG1       -0.2746
     21 N           2.2492    3.9099    1.2800 N.am    1  LIG1       -0.2176
     22 O           3.6567    5.6206    1.9762 O.2     1  LIG1       -0.4370
     23 O           3.9732    3.4877   -0.2382 O.3     1  LIG1       -0.4380
     24 F           0.0978    0.5320   -0.6745 F       1  LIG1       -0.1605
     25 F           0.7587    0.0392    1.3437 F       1  LIG1       -0.1598
     26 F          -0.9780    1.3233    1.0486 F       1  LIG1       -0.1597
     27 BR          3.9975    3.8476    7.3351 Br      1  LIG1       -0.1064
     28 H          -0.5201    4.9171    5.4538 H       1  LIG1        0.1325
     29 H           0.2675    5.1000    3.1196 H       1  LIG1        0.1672
     30 H           0.2466    5.2487   -0.3397 H       1  LIG1        0.1165
     31 H           4.3731    5.3965   -1.5674 H       1  LIG1        0.1318
     32 H          -0.1807    7.3700   -1.5199 H       1  LIG1        0.1209
     33 H           3.9462    7.5207   -2.7454 H       1  LIG1        0.1233
     34 H           1.0640    4.3820    7.2665 H       1  LIG1        0.1453
     35 H           4.2775    4.2053    4.3981 H       1  LIG1        0.1586
     36 H           2.3140    1.9490   -1.1915 H       1  LIG1        0.1328
     37 H           0.9245    3.0736   -1.3524 H       1  LIG1        0.1350
     38 H           1.9265    8.0774   -4.9223 H       1  LIG1        0.0344
     39 H           1.0347    9.6084   -4.8858 H       1  LIG1        0.0375
     40 H           0.2264    8.0994   -4.4279 H       1  LIG1        0.0340
     41 H           0.8151    9.4468   -2.4036 H       1  LIG1        0.0624
     42 H           2.4931    9.5076   -2.9036 H       1  LIG1        0.0616
     43 H           4.4934    4.1993    0.1700 H       1  LIG1        0.3555
@<TRIPOS>BOND
     1     1     2   ar
     2     1     7   ar
     3     2     9   ar
     4     3     5   ar
     5     3    10   ar
     6     4     6   ar
     7     4    10   ar
     8     5    11   ar
     9     6    11   ar
    10     7    12   ar
    11     8     9   ar
    12     8    12   ar
    13     9    14    1
    14    10    16    1
    15    11    18    1
    16    12    27    1
    17    13    15    1
    18    13    19    1
    19    13    20    2
    20    14    21   am
    21    14    22    2
    22    15    16    1
    23    16    21    1
    24    16    23    1
    25    17    18    1
    26    19    24    1
    27    19    25    1
    28    19    26    1
    29    20    21    1
    30     1    28    1
    31     2    29    1
    32     3    30    1
    33     4    31    1
    34     5    32    1
    35     6    33    1
    36     7    34    1
    37     8    35    1
    38    15    36    1
    39    15    37    1
    40    17    38    1
    41    17    39    1
    42    17    40    1
    43    18    41    1
    44    18    42    1
    45    23    43    1
