@<TRIPOS>MOLECULE
AP-520/40788846
 38 41 0 0 0
SMALL
USER_CHARGES

@<TRIPOS>ATOM
      1 C           2.9015    4.0495    4.0192 C.ar    1  LIG1       -0.1049
      2 C           0.0419    0.7704   -1.7495 C.ar    1  LIG1       -0.1057
      3 C           2.6517    2.8354    3.3796 C.ar    1  LIG1       -0.1015
      4 C           3.0902    5.2086    3.2664 C.ar    1  LIG1       -0.1026
      5 C          -0.4510    1.7944   -0.9409 C.ar    1  LIG1       -0.1028
      6 C           1.3926    0.7449   -2.0969 C.ar    1  LIG1       -0.1032
      7 C           0.9239    7.1210   -1.4786 C.ar    1  LIG1       -0.0826
      8 C           1.8932    7.6144   -2.3620 C.ar    1  LIG1       -0.0789
      9 C           2.5908    2.7802    1.9872 C.ar    1  LIG1       -0.0891
     10 C           3.0292    5.1535    1.8740 C.ar    1  LIG1       -0.0914
     11 C           0.4066    2.7931   -0.4798 C.ar    1  LIG1       -0.0906
     12 C           2.2503    1.7436   -1.6357 C.ar    1  LIG1       -0.0916
     13 C           1.1294    5.9199   -0.7889 C.ar    1  LIG1       -0.0716
     14 C           3.0776    6.9133   -2.5681 C.ar    1  LIG1        0.0052
     15 C           2.7795    3.9393    1.2343 C.ar    1  LIG1       -0.0653
     16 C           1.7573    2.7678   -0.8272 C.ar    1  LIG1       -0.0667
     17 C           2.3127    5.2075   -0.9806 C.ar    1  LIG1        0.0290
     18 C           3.2493    5.7294   -1.8727 C.ar    1  LIG1        0.3045
     19 C           2.7120    3.8787   -0.3146 C.3     1  LIG1        0.0805
     20 N           4.1660    3.6145   -0.7860 N.3     1  LIG1       -0.1301
     21 O           4.5849    4.0713   -3.3194 O.2     1  LIG1       -0.0818
     22 O           5.8059    5.4690   -1.5795 O.2     1  LIG1       -0.0818
     23 S           4.6522    4.7184   -2.0267 S.O2    1  LIG1       -0.0385
     24 H           2.9476    4.0925    5.1034 H       1  LIG1        0.1186
     25 H          -0.6257   -0.0079   -2.1074 H       1  LIG1        0.1175
     26 H           2.5036    1.9331    3.9656 H       1  LIG1        0.1176
     27 H           3.2836    6.1542    3.7641 H       1  LIG1        0.1183
     28 H          -1.5025    1.8138   -0.6694 H       1  LIG1        0.1187
     29 H           1.7771   -0.0528   -2.7255 H       1  LIG1        0.1175
     30 H           0.0038    7.6782   -1.3245 H       1  LIG1        0.1422
     31 H           1.7188    8.5495   -2.8858 H       1  LIG1        0.1348
     32 H           2.3958    1.8299    1.4974 H       1  LIG1        0.1253
     33 H           3.1776    6.0616    1.2956 H       1  LIG1        0.1205
     34 H           0.0136    3.5872    0.1497 H       1  LIG1        0.1261
     35 H           3.3012    1.7158   -1.9116 H       1  LIG1        0.1216
     36 H           0.3628    5.5538   -0.1100 H       1  LIG1        0.1361
     37 H           3.8324    7.2879   -3.2512 H       1  LIG1        0.1535
     38 H           4.8232    3.5282    0.0047 H       1  LIG1        0.3844
@<TRIPOS>BOND
     1     1     3   ar
     2     1     4   ar
     3     2     5   ar
     4     2     6   ar
     5     3     9   ar
     6     4    10   ar
     7     5    11   ar
     8     6    12   ar
     9     7     8   ar
    10     7    13   ar
    11     8    14   ar
    12     9    15   ar
    13    10    15   ar
    14    11    16   ar
    15    12    16   ar
    16    13    17   ar
    17    14    18   ar
    18    15    19    1
    19    16    19    1
    20    17    18   ar
    21    17    19    1
    22    18    23    1
    23    19    20    1
    24    20    23    1
    25    21    23    2
    26    22    23    2
    27     1    24    1
    28     2    25    1
    29     3    26    1
    30     4    27    1
    31     5    28    1
    32     6    29    1
    33     7    30    1
    34     8    31    1
    35     9    32    1
    36    10    33    1
    37    11    34    1
    38    12    35    1
    39    13    36    1
    40    14    37    1
    41    20    38    1
