@<TRIPOS>MOLECULE
AO-081/40801142
 56 61 0 0 0
SMALL
USER_CHARGES

@<TRIPOS>ATOM
      1 C           1.4642    6.9453   -2.4990 C.ar    1  LIG1       -0.1045
      2 C           4.0708    9.1125    3.7771 C.ar    1  LIG1       -0.1038
      3 C           1.5390    4.7187    6.3814 C.ar    1  LIG1       -0.1043
      4 C           2.7914    6.5850   -2.2658 C.ar    1  LIG1       -0.1018
      5 C           0.5432    6.9310   -1.4516 C.ar    1  LIG1       -0.0996
      6 C           2.7659    9.0948    3.2845 C.ar    1  LIG1       -0.1013
      7 C           4.9328    8.0497    3.5068 C.ar    1  LIG1       -0.1014
      8 C           2.4617    3.8512    5.7967 C.ar    1  LIG1       -0.1000
      9 C           0.7721    5.5645    5.5800 C.ar    1  LIG1       -0.1015
     10 C           3.1975    6.2102   -0.9850 C.ar    1  LIG1       -0.0912
     11 C           0.9493    6.5561   -0.1708 C.ar    1  LIG1       -0.0885
     12 C           2.3230    8.0141    2.5216 C.ar    1  LIG1       -0.0946
     13 C           4.4899    6.9691    2.7441 C.ar    1  LIG1       -0.0943
     14 C           2.6177    3.8297    4.4107 C.ar    1  LIG1       -0.0900
     15 C           0.9281    5.5430    4.1941 C.ar    1  LIG1       -0.0929
     16 C           1.8003    0.0141   -1.7409 C.ar    1  LIG1       -0.0889
     17 C          -0.3596    1.0967   -1.7532 C.ar    1  LIG1       -0.0895
     18 C           2.2841    0.9893   -0.8689 C.ar    1  LIG1       -0.0602
     19 C           0.1243    2.0718   -0.8811 C.ar    1  LIG1       -0.0611
     20 C           2.2764    6.1958    0.0625 C.ar    1  LIG1       -0.0799
     21 C           3.1851    6.9513    2.2515 C.ar    1  LIG1       -0.0863
     22 C           1.8508    4.6757    3.6094 C.ar    1  LIG1       -0.0708
     23 C           0.4784    0.0677   -2.1831 C.ar    1  LIG1       -0.1104
     24 C           1.4461    2.0181   -0.4390 C.ar    1  LIG1       -0.0106
     25 C           3.2728    3.4369    0.4969 C.2     1  LIG1        0.1529
     26 C           1.1514    3.7044    1.3793 C.2     1  LIG1        0.1622
     27 C           3.4054    4.4669    1.5597 C.3     1  LIG1        0.1105
     28 C           2.7110    5.7931    1.4356 C.3     1  LIG1        0.0340
     29 C           2.0179    4.6539    2.1266 C.3     1  LIG1        0.1123
     30 C          -0.0388   -0.9749   -3.1155 C.3     1  LIG1       -0.0406
     31 N           1.9432    3.0206    0.4577 N.am    1  LIG1       -0.2091
     32 O           4.2334    3.1310   -0.1899 O.2     1  LIG1       -0.4294
     33 O          -0.0320    3.6014    1.6572 O.2     1  LIG1       -0.4232
     34 H           1.1481    7.2372   -3.4962 H       1  LIG1        0.1176
     35 H           4.4156    9.9540    4.3707 H       1  LIG1        0.1197
     36 H           1.4174    4.7352    7.4605 H       1  LIG1        0.1181
     37 H           3.5089    6.5962   -3.0812 H       1  LIG1        0.1182
     38 H          -0.4903    7.2114   -1.6335 H       1  LIG1        0.1183
     39 H           2.0944    9.9222    3.4945 H       1  LIG1        0.1198
     40 H           5.9488    8.0637    3.8907 H       1  LIG1        0.1200
     41 H           3.0589    3.1923    6.4205 H       1  LIG1        0.1193
     42 H           0.0538    6.2401    6.0355 H       1  LIG1        0.1185
     43 H           4.2335    5.9306   -0.8134 H       1  LIG1        0.1231
     44 H           0.2235    6.5477    0.6383 H       1  LIG1        0.1250
     45 H           1.3045    8.0091    2.1429 H       1  LIG1        0.1217
     46 H           5.1695    6.1457    2.5399 H       1  LIG1        0.1236
     47 H           3.3396    3.1509    3.9647 H       1  LIG1        0.1283
     48 H           0.3261    6.2067    3.5788 H       1  LIG1        0.1203
     49 H           2.4609   -0.7828   -2.0725 H       1  LIG1        0.1273
     50 H          -1.3906    1.1466   -2.0933 H       1  LIG1        0.1275
     51 H           3.3159    0.9374   -0.5303 H       1  LIG1        0.1344
     52 H          -0.5371    2.8699   -0.5532 H       1  LIG1        0.1335
     53 H           4.2404    4.3596    2.2421 H       1  LIG1        0.1519
     54 H          -0.4630   -1.8149   -2.5518 H       1  LIG1        0.0597
     55 H          -0.8176   -0.5695   -3.7744 H       1  LIG1        0.0560
     56 H           0.7584   -1.3592   -3.7653 H       1  LIG1        0.0560
@<TRIPOS>BOND
     1     1     4   ar
     2     1     5   ar
     3     2     6   ar
     4     2     7   ar
     5     3     8   ar
     6     3     9   ar
     7     4    10   ar
     8     5    11   ar
     9     6    12   ar
    10     7    13   ar
    11     8    14   ar
    12     9    15   ar
    13    10    20   ar
    14    11    20   ar
    15    12    21   ar
    16    13    21   ar
    17    14    22   ar
    18    15    22   ar
    19    16    18   ar
    20    16    23   ar
    21    17    19   ar
    22    17    23   ar
    23    18    24   ar
    24    19    24   ar
    25    20    28    1
    26    21    28    1
    27    22    29    1
    28    23    30    1
    29    24    31    1
    30    25    27    1
    31    25    31   am
    32    25    32    2
    33    26    29    1
    34    26    31   am
    35    26    33    2
    36    27    28    1
    37    27    29    1
    38    28    29    1
    39     1    34    1
    40     2    35    1
    41     3    36    1
    42     4    37    1
    43     5    38    1
    44     6    39    1
    45     7    40    1
    46     8    41    1
    47     9    42    1
    48    10    43    1
    49    11    44    1
    50    12    45    1
    51    13    46    1
    52    14    47    1
    53    15    48    1
    54    16    49    1
    55    17    50    1
    56    18    51    1
    57    19    52    1
    58    27    53    1
    59    30    54    1
    60    30    55    1
    61    30    56    1
