@<TRIPOS>MOLECULE
AK-968/15603415
 52 55 0 0 0
SMALL
USER_CHARGES

@<TRIPOS>ATOM
      1 C           1.6851    0.7525   -2.1098 C.ar    1  LIG1       -0.1051
      2 C          -0.4666    1.6837   -1.5261 C.ar    1  LIG1       -0.1034
      3 C           2.3079    1.9275   -1.6888 C.ar    1  LIG1       -0.0978
      4 C           0.1562    2.8587   -1.1051 C.ar    1  LIG1       -0.0951
      5 C           0.2978    0.6307   -2.0286 C.ar    1  LIG1       -0.1187
      6 C           1.5434    2.9805   -1.1864 C.ar    1  LIG1       -0.0871
      7 C           2.8674    3.8788    1.6435 C.2     1  LIG1        0.0739
      8 C           1.6735    3.3316    5.7535 C.3     1  LIG1       -0.0681
      9 C           3.1328    5.3708    5.6938 C.3     1  LIG1       -0.0680
     10 C           0.7239    5.5328    5.0154 C.3     1  LIG1       -0.0680
     11 C           3.4809    3.5307    4.0263 C.3     1  LIG1       -0.0388
     12 C           1.0678    3.6930    3.3467 C.3     1  LIG1       -0.0407
     13 C           2.5299    5.7345    3.2862 C.3     1  LIG1       -0.0407
     14 C           3.0974    3.8471    5.4823 C.3     1  LIG1       -0.0678
     15 C           0.6747    4.0101    4.8002 C.3     1  LIG1       -0.0688
     16 C           2.1425    6.0607    4.7394 C.3     1  LIG1       -0.0688
     17 C           2.4913    4.2105    3.0589 C.3     1  LIG1        0.0318
     18 C          -0.3687   -0.6253   -2.4781 C.3     1  LIG1       -0.0443
     19 C           2.4026    6.7716   -1.0813 C.3     1  LIG1       -0.0638
     20 C           1.7356    5.4766   -1.5285 C.3     1  LIG1       -0.0436
     21 C           2.2208    4.2560   -0.7276 C.3     1  LIG1       -0.0167
     22 N           2.0384    4.4446    0.6938 N.am    1  LIG1       -0.3472
     23 O           3.8389    3.1635    1.4282 O.2     1  LIG1       -0.4888
     24 H           2.2886   -0.0627   -2.5002 H       1  LIG1        0.1167
     25 H          -1.5478    1.5966   -1.4580 H       1  LIG1        0.1179
     26 H           3.3892    2.0128   -1.7542 H       1  LIG1        0.1150
     27 H          -0.4467    3.6745   -0.7148 H       1  LIG1        0.1212
     28 H           1.6377    2.2433    5.6208 H       1  LIG1        0.0461
     29 H           1.3941    3.5348    6.7946 H       1  LIG1        0.0453
     30 H           2.8787    5.6101    6.7339 H       1  LIG1        0.0453
     31 H           4.1472    5.7497    5.5188 H       1  LIG1        0.0461
     32 H           0.0045    6.0283    4.3518 H       1  LIG1        0.0452
     33 H           0.4278    5.7751    6.0436 H       1  LIG1        0.0471
     34 H           4.5053    3.8721    3.8261 H       1  LIG1        0.0582
     35 H           3.4844    2.4439    3.8698 H       1  LIG1        0.0581
     36 H           1.0112    2.6103    3.1733 H       1  LIG1        0.0542
     37 H           0.3483    4.1518    2.6557 H       1  LIG1        0.0519
     38 H           1.8445    6.2416    2.5944 H       1  LIG1        0.0517
     39 H           3.5317    6.1280    3.0695 H       1  LIG1        0.0544
     40 H           3.8035    3.3620    6.1652 H       1  LIG1        0.0554
     41 H          -0.3372    3.6404    4.9993 H       1  LIG1        0.0555
     42 H           2.1713    7.1446    4.8960 H       1  LIG1        0.0556
     43 H          -0.4498   -1.3341   -1.6448 H       1  LIG1        0.0563
     44 H          -1.3767   -0.4254   -2.8642 H       1  LIG1        0.0531
     45 H           0.1928   -1.1058   -3.2901 H       1  LIG1        0.0533
     46 H           3.4921    6.6976   -1.1560 H       1  LIG1        0.0334
     47 H           2.0755    7.6015   -1.7158 H       1  LIG1        0.0362
     48 H           2.1434    7.0180   -0.0470 H       1  LIG1        0.0270
     49 H           0.6483    5.5933   -1.4379 H       1  LIG1        0.0569
     50 H           1.9508    5.3281   -2.5944 H       1  LIG1        0.0511
     51 H           3.3041    4.1562   -0.8697 H       1  LIG1        0.1313
     52 H           1.2639    5.0204    1.0096 H       1  LIG1        0.2960
@<TRIPOS>BOND
     1     1     3   ar
     2     1     5   ar
     3     2     4   ar
     4     2     5   ar
     5     3     6   ar
     6     4     6   ar
     7     5    18    1
     8     6    21    1
     9     7    17    1
    10     7    22   am
    11     7    23    2
    12     8    14    1
    13     8    15    1
    14     9    14    1
    15     9    16    1
    16    10    15    1
    17    10    16    1
    18    11    14    1
    19    11    17    1
    20    12    15    1
    21    12    17    1
    22    13    16    1
    23    13    17    1
    24    19    20    1
    25    20    21    1
    26    21    22    1
    27     1    24    1
    28     2    25    1
    29     3    26    1
    30     4    27    1
    31     8    28    1
    32     8    29    1
    33     9    30    1
    34     9    31    1
    35    10    32    1
    36    10    33    1
    37    11    34    1
    38    11    35    1
    39    12    36    1
    40    12    37    1
    41    13    38    1
    42    13    39    1
    43    14    40    1
    44    15    41    1
    45    16    42    1
    46    18    43    1
    47    18    44    1
    48    18    45    1
    49    19    46    1
    50    19    47    1
    51    19    48    1
    52    20    49    1
    53    20    50    1
    54    21    51    1
    55    22    52    1
