@<TRIPOS>MOLECULE
AG-690/36941004
 37 40 0 0 0
SMALL
USER_CHARGES

@<TRIPOS>ATOM
      1 C           2.1483    6.7998   -2.7938 C.ar    1  LIG1       -0.0976
      2 C           2.2097    5.2120    5.8155 C.ar    1  LIG1       -0.0883
      3 C          -0.2919    1.4342   -1.3634 C.ar    1  LIG1       -0.0843
      4 C           1.6404    3.9426    5.8810 C.ar    1  LIG1       -0.0824
      5 C           0.9183    6.3952   -2.2755 C.ar    1  LIG1       -0.0879
      6 C           3.3165    6.5929   -2.0602 C.ar    1  LIG1       -0.0917
      7 C           0.7476    1.1486   -2.2487 C.ar    1  LIG1       -0.0853
      8 C           2.4500    5.8050    4.5770 C.ar    1  LIG1       -0.0624
      9 C          -0.0610    2.2520   -0.2573 C.ar    1  LIG1       -0.0507
     10 C           1.3131    3.2634    4.7066 C.ar    1  LIG1       -0.0497
     11 C           0.8564    5.7836   -1.0233 C.ar    1  LIG1       -0.0590
     12 C           3.2546    5.9813   -0.8081 C.ar    1  LIG1       -0.0638
     13 C           2.0178    1.6808   -2.0277 C.ar    1  LIG1       -0.0368
     14 C           2.1196    5.1198    3.4016 C.ar    1  LIG1        0.0571
     15 C           1.2092    2.7842   -0.0364 C.ar    1  LIG1        0.0667
     16 C           1.5492    3.8458    3.4557 C.ar    1  LIG1       -0.0031
     17 C           2.0245    5.5766   -0.2897 C.ar    1  LIG1       -0.0126
     18 C           2.2486    2.4987   -0.9216 C.ar    1  LIG1        0.1035
     19 C           1.4500    3.6531    1.1409 C.ar    1  LIG1        0.0845
     20 C           2.3386    5.7487    2.0805 C.ar    1  LIG1        0.1561
     21 N           1.2302    3.1174    2.3032 N.ar    1  LIG1       -0.3411
     22 N           1.9616    4.9560    0.9805 N.ar    1  LIG1       -0.2293
     23 O           2.7655    6.8999    2.0438 O.2     1  LIG1       -0.4510
     24 F           3.4740    3.0043   -0.7194 F       1  LIG1       -0.2518
     25 H           2.1971    7.2753   -3.7691 H       1  LIG1        0.1253
     26 H           2.4644    5.7407    6.7294 H       1  LIG1        0.1259
     27 H          -1.2808    1.0196   -1.5354 H       1  LIG1        0.1301
     28 H           1.4529    3.4799    6.8455 H       1  LIG1        0.1382
     29 H           0.0087    6.5553   -2.8467 H       1  LIG1        0.1273
     30 H           4.2743    6.9072   -2.4646 H       1  LIG1        0.1261
     31 H           0.5679    0.5119   -3.1100 H       1  LIG1        0.1405
     32 H           2.8892    6.7983    4.5469 H       1  LIG1        0.1467
     33 H          -0.8788    2.4676    0.4255 H       1  LIG1        0.1510
     34 H           0.8740    2.2706    4.7733 H       1  LIG1        0.1461
     35 H          -0.1079    5.4722   -0.6294 H       1  LIG1        0.1361
     36 H           4.1717    5.8251   -0.2453 H       1  LIG1        0.1309
     37 H           2.8272    1.4587   -2.7168 H       1  LIG1        0.1371
@<TRIPOS>BOND
     1     1     5   ar
     2     1     6   ar
     3     2     4   ar
     4     2     8   ar
     5     3     7   ar
     6     3     9   ar
     7     4    10   ar
     8     5    11   ar
     9     6    12   ar
    10     7    13   ar
    11     8    14   ar
    12     9    15   ar
    13    10    16   ar
    14    11    17   ar
    15    12    17   ar
    16    13    18   ar
    17    14    16   ar
    18    14    20   ar
    19    15    18   ar
    20    15    19    1
    21    16    21   ar
    22    17    22    1
    23    18    24    1
    24    19    21   ar
    25    19    22   ar
    26    20    22   ar
    27    20    23    2
    28     1    25    1
    29     2    26    1
    30     3    27    1
    31     4    28    1
    32     5    29    1
    33     6    30    1
    34     7    31    1
    35     8    32    1
    36     9    33    1
    37    10    34    1
    38    11    35    1
    39    12    36    1
    40    13    37    1
