@<TRIPOS>MOLECULE
AP-065/43441403
 45 48 0 0 0
SMALL
USER_CHARGES

@<TRIPOS>ATOM
      1 C           2.0815    7.5979   -2.2677 C.ar    1  LIG1       -0.1076
      2 C           0.2180    0.6389   -1.7882 C.ar    1  LIG1       -0.1079
      3 C           2.6417    6.4591   -2.8462 C.ar    1  LIG1       -0.1061
      4 C           1.6137    7.5548   -0.9543 C.ar    1  LIG1       -0.1031
      5 C          -0.4652    1.7964   -1.4155 C.ar    1  LIG1       -0.1027
      6 C           1.5941    0.5437   -1.5805 C.ar    1  LIG1       -0.1054
      7 C           2.7341    5.2770   -2.1116 C.ar    1  LIG1       -0.0935
      8 C           1.7059    6.3727   -0.2196 C.ar    1  LIG1       -0.0889
      9 C           0.2277    2.8589   -0.8353 C.ar    1  LIG1       -0.0854
     10 C           2.2869    1.6062   -1.0002 C.ar    1  LIG1       -0.0906
     11 C           3.2730    4.1200    3.5912 C.ar    1  LIG1       -0.0508
     12 C           0.8527    4.1113    2.1489 C.ar    1  LIG1       -0.0436
     13 C           2.2661    5.2337   -0.7982 C.ar    1  LIG1       -0.0566
     14 C           1.6038    2.7638   -0.6276 C.ar    1  LIG1       -0.0526
     15 C           3.2602    4.0282    2.2097 C.ar    1  LIG1       -0.0719
     16 C           2.0725    4.0334    1.4884 C.ar    1  LIG1       -0.0542
     17 C           2.0519    4.2038    4.2603 C.ar    1  LIG1        0.0390
     18 C           0.8478    4.1978    3.5431 C.ar    1  LIG1        0.0402
     19 C           4.4062    3.9289    1.2823 C.3     1  LIG1        0.0381
     20 C           2.3670    3.9331    0.0109 C.3     1  LIG1        0.0645
     21 C           2.0788    5.5997    6.1856 C.3     1  LIG1        0.0260
     22 C          -0.9509    3.0494    4.5928 C.3     1  LIG1        0.0259
     23 O           3.8030    3.6156    0.0085 O.3     1  LIG1       -0.4144
     24 O           2.0417    4.2911    5.6207 O.3     1  LIG1       -0.4061
     25 O          -0.3441    4.2784    4.2006 O.3     1  LIG1       -0.4062
     26 H           2.0111    8.5187   -2.8394 H       1  LIG1        0.1155
     27 H          -0.3219   -0.1889   -2.2388 H       1  LIG1        0.1150
     28 H           3.0072    6.4929   -3.8686 H       1  LIG1        0.1149
     29 H           1.1785    8.4416   -0.5031 H       1  LIG1        0.1165
     30 H          -1.5368    1.8704   -1.5763 H       1  LIG1        0.1165
     31 H           2.1261   -0.3578   -1.8695 H       1  LIG1        0.1155
     32 H           3.1718    4.3945   -2.5707 H       1  LIG1        0.1175
     33 H           1.3386    6.3482    0.8030 H       1  LIG1        0.1267
     34 H          -0.3128    3.7571   -0.5482 H       1  LIG1        0.1300
     35 H           3.3589    1.5232   -0.8423 H       1  LIG1        0.1166
     36 H           4.2099    4.1222    4.1387 H       1  LIG1        0.1332
     37 H          -0.0797    4.1102    1.5927 H       1  LIG1        0.1339
     38 H           4.9423    4.8783    1.1947 H       1  LIG1        0.1375
     39 H           5.0943    3.1221    1.5475 H       1  LIG1        0.1222
     40 H           2.0662    5.5273    7.2759 H       1  LIG1        0.0892
     41 H           1.2153    6.1724    5.8378 H       1  LIG1        0.0893
     42 H           2.9970    6.0988    5.8666 H       1  LIG1        0.1232
     43 H          -1.8933    3.2551    5.1062 H       1  LIG1        0.1237
     44 H          -0.2746    2.5030    5.2550 H       1  LIG1        0.0892
     45 H          -1.1479    2.4497    3.7010 H       1  LIG1        0.0881
@<TRIPOS>BOND
     1     1     3   ar
     2     1     4   ar
     3     2     5   ar
     4     2     6   ar
     5     3     7   ar
     6     4     8   ar
     7     5     9   ar
     8     6    10   ar
     9     7    13   ar
    10     8    13   ar
    11     9    14   ar
    12    10    14   ar
    13    11    15   ar
    14    11    17   ar
    15    12    16   ar
    16    12    18   ar
    17    13    20    1
    18    14    20    1
    19    15    16   ar
    20    15    19    1
    21    16    20    1
    22    17    18   ar
    23    17    24    1
    24    18    25    1
    25    19    23    1
    26    20    23    1
    27    21    24    1
    28    22    25    1
    29     1    26    1
    30     2    27    1
    31     3    28    1
    32     4    29    1
    33     5    30    1
    34     6    31    1
    35     7    32    1
    36     8    33    1
    37     9    34    1
    38    10    35    1
    39    11    36    1
    40    12    37    1
    41    19    38    1
    42    19    39    1
    43    21    40    1
    44    21    41    1
    45    21    42    1
    46    22    43    1
    47    22    44    1
    48    22    45    1
