@<TRIPOS>MOLECULE
AN-329/42955518
 50 52 0 0 0
SMALL
USER_CHARGES

@<TRIPOS>ATOM
      1 C           1.0437    4.6776    6.6949 C.ar    1  LIG1       -0.1068
      2 C           3.0702    6.5178   -2.2595 C.ar    1  LIG1       -0.0916
      3 C           2.0735    5.5844    6.4442 C.ar    1  LIG1       -0.1049
      4 C           0.8396    3.5987    5.8347 C.ar    1  LIG1       -0.1050
      5 C           1.6975    6.7481   -2.3487 C.ar    1  LIG1       -0.0845
      6 C           3.5807    5.7392   -1.2207 C.ar    1  LIG1       -0.0633
      7 C          -0.1198    2.7338   -1.5302 C.ar    1  LIG1       -0.0725
      8 C           1.6908    1.6952   -0.3136 C.ar    1  LIG1       -0.0571
      9 C           2.8991    5.4123    5.3331 C.ar    1  LIG1       -0.0985
     10 C           1.6652    3.4266    4.7237 C.ar    1  LIG1       -0.0986
     11 C           0.8351    6.2002   -1.3992 C.ar    1  LIG1       -0.0491
     12 C           0.1635    1.9323   -2.6361 C.ar    1  LIG1       -0.0666
     13 C           1.9741    0.8937   -1.4193 C.ar    1  LIG1       -0.0490
     14 C           0.6439    2.6153   -0.3690 C.ar    1  LIG1        0.0280
     15 C           2.7183    5.1911   -0.2712 C.ar    1  LIG1        0.0567
     16 C           2.6950    4.3334    4.4729 C.ar    1  LIG1       -0.0891
     17 C           1.3455    5.4216   -0.3604 C.ar    1  LIG1       -0.0009
     18 C           1.2105    1.0121   -2.5807 C.ar    1  LIG1       -0.0111
     19 C           0.3485    3.4508    0.7842 C.2     1  LIG1        0.1295
     20 C           3.2842    4.3825    0.8015 C.2     1  LIG1        0.1115
     21 C          -0.4090    5.7606    1.4258 C.3     1  LIG1       -0.0005
     22 C           2.5713   -0.6892   -3.5342 C.3     1  LIG1        0.0252
     23 C           3.5831    4.1477    3.2766 C.3     1  LIG1       -0.0093
     24 N           3.0673    4.8263    2.1095 N.am    1  LIG1       -0.3397
     25 N           0.4299    4.8642    0.6158 N.am    1  LIG1       -0.3048
     26 O           0.0552    2.9343    1.8712 O.2     1  LIG1       -0.4646
     27 O           3.9423    3.3623    0.5386 O.2     1  LIG1       -0.4704
     28 O           1.4874    0.2301   -3.6596 O.3     1  LIG1       -0.4148
     29 H           0.4018    4.8110    7.5609 H       1  LIG1        0.1174
     30 H           3.7416    6.9449   -2.9988 H       1  LIG1        0.1262
     31 H           2.2334    6.4239    7.1145 H       1  LIG1        0.1165
     32 H           0.0386    2.8919    6.0302 H       1  LIG1        0.1164
     33 H           1.3005    7.3543   -3.1579 H       1  LIG1        0.1357
     34 H           4.6524    5.5669   -1.1623 H       1  LIG1        0.1336
     35 H          -0.9382    3.4470   -1.5850 H       1  LIG1        0.1389
     36 H           2.2915    1.5951    0.5868 H       1  LIG1        0.1516
     37 H           3.6989    6.1239    5.1455 H       1  LIG1        0.1208
     38 H           1.4986    2.5831    4.0588 H       1  LIG1        0.1204
     39 H          -0.2328    6.3871   -1.4799 H       1  LIG1        0.1390
     40 H          -0.4348    2.0293   -3.5379 H       1  LIG1        0.1127
     41 H           2.7911    0.1790   -1.3704 H       1  LIG1        0.1331
     42 H          -1.3590    5.9468    0.9181 H       1  LIG1        0.1070
     43 H           0.0998    6.7157    1.5818 H       1  LIG1        0.1025
     44 H          -0.6133    5.3089    2.4003 H       1  LIG1        0.0957
     45 H           2.6841   -1.2500   -4.4653 H       1  LIG1        0.0898
     46 H           2.3754   -1.3741   -2.7053 H       1  LIG1        0.0901
     47 H           3.4892   -0.1313   -3.3342 H       1  LIG1        0.1229
     48 H           4.5871    4.5373    3.4771 H       1  LIG1        0.1164
     49 H           3.6897    3.0868    3.0273 H       1  LIG1        0.1168
     50 H           2.5760    5.7008    2.2636 H       1  LIG1        0.2985
@<TRIPOS>BOND
     1     1     3   ar
     2     1     4   ar
     3     2     5   ar
     4     2     6   ar
     5     3     9   ar
     6     4    10   ar
     7     5    11   ar
     8     6    15   ar
     9     7    12   ar
    10     7    14   ar
    11     8    13   ar
    12     8    14   ar
    13     9    16   ar
    14    10    16   ar
    15    11    17   ar
    16    12    18   ar
    17    13    18   ar
    18    14    19    1
    19    15    17   ar
    20    15    20    1
    21    16    23    1
    22    17    25    1
    23    18    28    1
    24    19    25   am
    25    19    26    2
    26    20    24   am
    27    20    27    2
    28    21    25    1
    29    22    28    1
    30    23    24    1
    31     1    29    1
    32     2    30    1
    33     3    31    1
    34     4    32    1
    35     5    33    1
    36     6    34    1
    37     7    35    1
    38     8    36    1
    39     9    37    1
    40    10    38    1
    41    11    39    1
    42    12    40    1
    43    13    41    1
    44    21    42    1
    45    21    43    1
    46    21    44    1
    47    22    45    1
    48    22    46    1
    49    22    47    1
    50    23    48    1
    51    23    49    1
    52    24    50    1
