@<TRIPOS>MOLECULE
AG-690/33066026
 44 47 0 0 0
SMALL
USER_CHARGES

@<TRIPOS>ATOM
      1 C           0.8005    1.3345   -2.4120 C.ar    1  LIG1       -0.1072
      2 C           1.5502    6.9500   -1.6551 C.ar    1  LIG1       -0.0842
      3 C           2.9037    6.5650   -1.7093 C.ar    1  LIG1       -0.0842
      4 C          -0.3087    1.8379   -1.7324 C.ar    1  LIG1       -0.1066
      5 C           2.0125    1.1679   -1.7419 C.ar    1  LIG1       -0.1066
      6 C           0.6865    6.4029   -0.7023 C.ar    1  LIG1       -0.0683
      7 C           3.4189    5.6261   -0.8115 C.ar    1  LIG1       -0.0683
      8 C           0.5848    4.1015    4.2305 C.ar    1  LIG1       -0.0877
      9 C           2.9374    4.5281    3.8832 C.ar    1  LIG1       -0.0927
     10 C          -0.2061    2.1746   -0.3827 C.ar    1  LIG1       -0.1067
     11 C           2.1151    1.5047   -0.3921 C.ar    1  LIG1       -0.1069
     12 C           0.7274    4.4153    5.5821 C.ar    1  LIG1       -0.0566
     13 C           3.0800    4.8420    5.2348 C.ar    1  LIG1       -0.0671
     14 C           1.2128    5.4753    0.1756 C.ar    1  LIG1        0.0193
     15 C           2.5502    5.0951    0.1222 C.ar    1  LIG1        0.0193
     16 C           1.6899    4.1578    3.3810 C.ar    1  LIG1       -0.0645
     17 C           1.0059    2.0080    0.2874 C.ar    1  LIG1       -0.1116
     18 C           1.9750    4.7856    6.0842 C.ar    1  LIG1       -0.0129
     19 C           0.5303    4.7650    1.2603 C.2     1  LIG1        0.1258
     20 C           2.8360    4.1099    1.1683 C.2     1  LIG1        0.1257
     21 C           1.5372    3.8226    1.9341 C.3     1  LIG1        0.1408
     22 C           0.9426    5.0159    8.2142 C.3     1  LIG1        0.0239
     23 C           1.1174    2.3715    1.7444 C.3     1  LIG1        0.0074
     24 O          -0.6418    4.9200    1.5505 O.2     1  LIG1       -0.4262
     25 O           3.9324    3.6197    1.3673 O.2     1  LIG1       -0.4263
     26 O           2.1137    5.0930    7.4029 O.3     1  LIG1       -0.4174
     27 H           0.7201    1.0711   -3.4626 H       1  LIG1        0.1157
     28 H           1.1739    7.6826   -2.3642 H       1  LIG1        0.1366
     29 H           3.5540    7.0065   -2.4599 H       1  LIG1        0.1366
     30 H          -1.2528    1.9667   -2.2538 H       1  LIG1        0.1164
     31 H           2.8760    0.7750   -2.2702 H       1  LIG1        0.1164
     32 H          -0.3548    6.7017   -0.6624 H       1  LIG1        0.1429
     33 H           4.4619    5.3342   -0.8547 H       1  LIG1        0.1429
     34 H          -0.3908    3.8140    3.8479 H       1  LIG1        0.1283
     35 H           3.8039    4.5747    3.2287 H       1  LIG1        0.1361
     36 H          -1.0756    2.5664    0.1387 H       1  LIG1        0.1176
     37 H           3.0635    1.3715    0.1219 H       1  LIG1        0.1171
     38 H          -0.1373    4.3698    6.2388 H       1  LIG1        0.1325
     39 H           4.0542    5.1300    5.6197 H       1  LIG1        0.1167
     40 H           1.1928    5.2860    9.2431 H       1  LIG1        0.0897
     41 H           0.5409    4.0000    8.1801 H       1  LIG1        0.0897
     42 H           0.1960    5.7139    7.8280 H       1  LIG1        0.1223
     43 H           0.1575    2.1968    2.2442 H       1  LIG1        0.0914
     44 H           1.8408    1.7107    2.2364 H       1  LIG1        0.0912
@<TRIPOS>BOND
     1     1     4   ar
     2     1     5   ar
     3     2     3   ar
     4     2     6   ar
     5     3     7   ar
     6     4    10   ar
     7     5    11   ar
     8     6    14   ar
     9     7    15   ar
    10     8    12   ar
    11     8    16   ar
    12     9    13   ar
    13     9    16   ar
    14    10    17   ar
    15    11    17   ar
    16    12    18   ar
    17    13    18   ar
    18    14    15   ar
    19    14    19    1
    20    15    20    1
    21    16    21    1
    22    17    23    1
    23    18    26    1
    24    19    21    1
    25    19    24    2
    26    20    21    1
    27    20    25    2
    28    21    23    1
    29    22    26    1
    30     1    27    1
    31     2    28    1
    32     3    29    1
    33     4    30    1
    34     5    31    1
    35     6    32    1
    36     7    33    1
    37     8    34    1
    38     9    35    1
    39    10    36    1
    40    11    37    1
    41    12    38    1
    42    13    39    1
    43    22    40    1
    44    22    41    1
    45    22    42    1
    46    23    43    1
    47    23    44    1
