@<TRIPOS>MOLECULE
AO-476/40163486
 51 54 0 0 0
SMALL
USER_CHARGES

@<TRIPOS>ATOM
      1 C           0.6238    0.7854   -2.4603 C.ar    1  LIG1       -0.1073
      2 C           2.3169    7.2557   -2.8578 C.ar    1  LIG1       -0.1036
      3 C           1.9255    0.9222   -1.9783 C.ar    1  LIG1       -0.1017
      4 C          -0.4096    1.5375   -1.9013 C.ar    1  LIG1       -0.1006
      5 C           3.1043    6.1170   -2.6878 C.ar    1  LIG1       -0.0966
      6 C           1.3524    7.5852   -1.9055 C.ar    1  LIG1       -0.1015
      7 C           2.1940    1.8109   -0.9374 C.ar    1  LIG1       -0.0796
      8 C          -0.1411    2.4263   -0.8603 C.ar    1  LIG1       -0.0776
      9 C           2.9273    5.3078   -1.5656 C.ar    1  LIG1       -0.0786
     10 C           1.1754    6.7759   -0.7832 C.ar    1  LIG1       -0.0855
     11 C           2.9912    4.1239    4.7584 C.ar    1  LIG1       -0.0196
     12 C           0.6565    4.7401    4.8359 C.ar    1  LIG1       -0.0309
     13 C           1.1608    2.5631   -0.3784 C.ar    1  LIG1       -0.0410
     14 C           1.9628    5.6372   -0.6132 C.ar    1  LIG1       -0.0525
     15 C           1.7826    4.3628    4.1044 C.ar    1  LIG1       -0.0115
     16 C           3.0737    4.2621    6.1440 C.ar    1  LIG1        0.0515
     17 C           0.7390    4.8785    6.2215 C.ar    1  LIG1        0.0456
     18 C           1.9476    4.6394    6.8755 C.ar    1  LIG1        0.0847
     19 C           1.4369    3.4780    0.6935 C.ar    1  LIG1        0.0016
     20 C           1.7806    4.8012    0.5471 C.ar    1  LIG1       -0.0164
     21 C           1.6975    4.2204    2.6713 C.ar    1  LIG1        0.0228
     22 C           5.3617    3.6434    5.9495 C.3     1  LIG1        0.0296
     23 C          -1.5635    5.4726    6.1797 C.3     1  LIG1        0.0288
     24 C           2.3847    6.0602    8.7320 C.3     1  LIG1        0.0190
     25 N           1.3866    3.1227    2.0182 N.ar    1  LIG1       -0.3572
     26 N           1.9439    5.2635    1.8225 N.ar    1  LIG1       -0.3231
     27 O           4.2599    4.0248    6.7707 O.3     1  LIG1       -0.4001
     28 O          -0.3681    5.2475    6.9244 O.3     1  LIG1       -0.4012
     29 O           2.0282    4.7742    8.2299 O.3     1  LIG1       -0.4097
     30 H           0.4146    0.0942   -3.2715 H       1  LIG1        0.1146
     31 H           2.4552    7.8861   -3.7313 H       1  LIG1        0.1194
     32 H           2.7303    0.3377   -2.4143 H       1  LIG1        0.1158
     33 H          -1.4228    1.4318   -2.2776 H       1  LIG1        0.1162
     34 H           3.8552    5.8604   -3.4296 H       1  LIG1        0.1218
     35 H           0.7400    8.4724   -2.0372 H       1  LIG1        0.1187
     36 H           3.2141    1.9063   -0.5726 H       1  LIG1        0.1238
     37 H          -0.9576    3.0054   -0.4352 H       1  LIG1        0.1287
     38 H           3.5508    4.4249   -1.4461 H       1  LIG1        0.1312
     39 H           0.4186    7.0457   -0.0505 H       1  LIG1        0.1191
     40 H           3.8746    3.8290    4.1961 H       1  LIG1        0.1404
     41 H          -0.2904    4.9287    4.3341 H       1  LIG1        0.1150
     42 H           6.2446    3.4849    6.5736 H       1  LIG1        0.1248
     43 H           5.5582    4.4281    5.2144 H       1  LIG1        0.0931
     44 H           5.1137    2.7146    5.4305 H       1  LIG1        0.0921
     45 H          -2.3687    5.7606    6.8599 H       1  LIG1        0.0895
     46 H          -1.8354    4.5613    5.6412 H       1  LIG1        0.0903
     47 H          -1.3893    6.2787    5.4630 H       1  LIG1        0.1256
     48 H           2.4131    6.0307    9.8240 H       1  LIG1        0.1172
     49 H           1.6530    6.7992    8.3958 H       1  LIG1        0.0822
     50 H           3.3727    6.3291    8.3511 H       1  LIG1        0.0813
     51 H           2.2008    6.2052    2.0899 H       1  LIG1        0.3514
@<TRIPOS>BOND
     1     1     3   ar
     2     1     4   ar
     3     2     5   ar
     4     2     6   ar
     5     3     7   ar
     6     4     8   ar
     7     5     9   ar
     8     6    10   ar
     9     7    13   ar
    10     8    13   ar
    11     9    14   ar
    12    10    14   ar
    13    11    15   ar
    14    11    16   ar
    15    12    15   ar
    16    12    17   ar
    17    13    19    1
    18    14    20    1
    19    15    21    1
    20    16    18   ar
    21    16    27    1
    22    17    18   ar
    23    17    28    1
    24    18    29    1
    25    19    20   ar
    26    19    25   ar
    27    20    26   ar
    28    21    25   ar
    29    21    26   ar
    30    22    27    1
    31    23    28    1
    32    24    29    1
    33     1    30    1
    34     2    31    1
    35     3    32    1
    36     4    33    1
    37     5    34    1
    38     6    35    1
    39     7    36    1
    40     8    37    1
    41     9    38    1
    42    10    39    1
    43    11    40    1
    44    12    41    1
    45    22    42    1
    46    22    43    1
    47    22    44    1
    48    23    45    1
    49    23    46    1
    50    23    47    1
    51    24    48    1
    52    24    49    1
    53    24    50    1
    54    26    51    1
