@<TRIPOS>MOLECULE
AI-346/37002002
 55 58 0 0 0
SMALL
USER_CHARGES

@<TRIPOS>ATOM
      1 C           2.3725    2.1186   -1.2076 C.ar    1  LIG1       -0.0847
      2 C           0.3077    2.9503   -0.2684 C.ar    1  LIG1       -0.0941
      3 C           2.3895    3.4250    5.8547 C.ar    1  LIG1       -0.0922
      4 C           1.6778    1.0648   -1.8016 C.ar    1  LIG1       -0.0563
      5 C          -0.3870    1.8966   -0.8624 C.ar    1  LIG1       -0.0694
      6 C           1.5871    4.2921    6.5986 C.ar    1  LIG1       -0.0671
      7 C           0.9922    5.4874    4.5842 C.ar    1  LIG1       -0.0259
      8 C           1.8006    4.6217    3.8428 C.ar    1  LIG1       -0.0178
      9 C           1.6874    3.0613   -0.4410 C.ar    1  LIG1       -0.0779
     10 C           2.4963    3.5701    4.4654 C.ar    1  LIG1       -0.0812
     11 C           0.2981    0.9540   -1.6291 C.ar    1  LIG1       -0.0140
     12 C           0.8881    5.3183    5.9640 C.ar    1  LIG1       -0.0049
     13 C           1.9258    4.7891    2.3875 C.2     1  LIG1        0.0221
     14 C           0.0647    6.9331   -0.6960 C.2     1  LIG1       -0.0141
     15 C           1.2040    6.2183   -0.6526 C.2     1  LIG1       -0.0304
     16 C          -0.3346    7.8120   -1.8358 C.2     1  LIG1        0.0311
     17 C           3.3838    2.6280    3.6853 C.3     1  LIG1       -0.0349
     18 C           3.0008    2.5620    2.2032 C.3     1  LIG1       -0.0352
     19 C           2.4428    4.2078    0.2047 C.3     1  LIG1        0.0248
     20 C           2.9399    3.9711    1.6377 C.3     1  LIG1        0.0274
     21 C           2.1590    6.2901   -1.8170 C.3     1  LIG1        0.0100
     22 C          -1.6297    7.4573   -2.5172 C.3     1  LIG1        0.0201
     23 C          -1.7888   -0.1270   -1.9926 C.3     1  LIG1        0.0238
     24 C          -0.5814    7.1881    5.9838 C.3     1  LIG1        0.0237
     25 N           1.2387    5.6165    1.6649 N.2     1  LIG1       -0.3108
     26 N           1.6060    5.4068    0.3619 N.pl3   1  LIG1       -0.3160
     27 O           0.3494    8.7575   -2.2165 O.2     1  LIG1       -0.5064
     28 O          -0.3797   -0.0736   -2.2098 O.3     1  LIG1       -0.4177
     29 O           0.1064    6.1600    6.6947 O.3     1  LIG1       -0.4173
     30 H           3.4472    2.1972   -1.3474 H       1  LIG1        0.1304
     31 H          -0.2343    3.6802    0.3274 H       1  LIG1        0.1299
     32 H           2.9289    2.6320    6.3668 H       1  LIG1        0.1304
     33 H           2.2172    0.3337   -2.3980 H       1  LIG1        0.1288
     34 H          -1.4615    1.8159   -0.7246 H       1  LIG1        0.1138
     35 H           1.5112    4.1620    7.6748 H       1  LIG1        0.1169
     36 H           0.4471    6.2958    4.1039 H       1  LIG1        0.1482
     37 H          -0.6378    6.8956    0.1322 H       1  LIG1        0.1011
     38 H           4.4223    2.9662    3.7870 H       1  LIG1        0.0718
     39 H           3.3192    1.6181    4.1075 H       1  LIG1        0.0708
     40 H           3.7320    1.9573    1.6555 H       1  LIG1        0.0610
     41 H           2.0270    2.0628    2.1172 H       1  LIG1        0.0640
     42 H           3.3205    4.4364   -0.4532 H       1  LIG1        0.1428
     43 H           3.9082    4.4759    1.7650 H       1  LIG1        0.1104
     44 H           2.8983    7.0906   -1.7056 H       1  LIG1        0.0888
     45 H           2.7059    5.3463   -1.9182 H       1  LIG1        0.0688
     46 H           1.6105    6.4737   -2.7473 H       1  LIG1        0.0990
     47 H          -2.4631    7.9791   -2.0390 H       1  LIG1        0.0641
     48 H          -1.5885    7.7711   -3.5644 H       1  LIG1        0.0706
     49 H          -1.7845    6.3763   -2.4740 H       1  LIG1        0.0713
     50 H          -2.2055   -0.9942   -2.5106 H       1  LIG1        0.1222
     51 H          -2.2509    0.7904   -2.3655 H       1  LIG1        0.0896
     52 H          -1.9800   -0.2192   -0.9208 H       1  LIG1        0.0893
     53 H          -1.1678    7.7871    6.6847 H       1  LIG1        0.0895
     54 H          -1.2378    6.7378    5.2348 H       1  LIG1        0.1225
     55 H           0.1515    7.8274    5.4860 H       1  LIG1        0.0894
@<TRIPOS>BOND
     1     1     4   ar
     2     1     9   ar
     3     2     5   ar
     4     2     9   ar
     5     3     6   ar
     6     3    10   ar
     7     4    11   ar
     8     5    11   ar
     9     6    12   ar
    10     7     8   ar
    11     7    12   ar
    12     8    10   ar
    13     8    13    1
    14     9    19    1
    15    10    17    1
    16    11    28    1
    17    12    29    1
    18    13    20    1
    19    13    25    2
    20    14    15    2
    21    14    16    1
    22    15    21    1
    23    15    26    1
    24    16    22    1
    25    16    27    2
    26    17    18    1
    27    18    20    1
    28    19    20    1
    29    19    26    1
    30    23    28    1
    31    24    29    1
    32    25    26    1
    33     1    30    1
    34     2    31    1
    35     3    32    1
    36     4    33    1
    37     5    34    1
    38     6    35    1
    39     7    36    1
    40    14    37    1
    41    17    38    1
    42    17    39    1
    43    18    40    1
    44    18    41    1
    45    19    42    1
    46    20    43    1
    47    21    44    1
    48    21    45    1
    49    21    46    1
    50    22    47    1
    51    22    48    1
    52    22    49    1
    53    23    50    1
    54    23    51    1
    55    23    52    1
    56    24    53    1
    57    24    54    1
    58    24    55    1
