@<TRIPOS>MOLECULE
AG-205/37023093
 40 42 0 0 0
SMALL
USER_CHARGES

@<TRIPOS>ATOM
      1 C           0.5296    4.7610    5.2244 C.ar    1  LIG1       -0.0965
      2 C           0.9775    4.8633    3.9074 C.ar    1  LIG1       -0.0671
      3 C           1.3532    6.0533   -0.4094 C.ar    1  LIG1       -0.0736
      4 C           3.0818    5.5143   -2.0090 C.ar    1  LIG1       -0.0774
      5 C           1.4302    4.4586    6.2458 C.ar    1  LIG1       -0.0992
      6 C           1.1112    7.2546   -1.0758 C.ar    1  LIG1       -0.0742
      7 C           2.8397    6.7156   -2.6754 C.ar    1  LIG1       -0.0755
      8 C           3.2265    4.3607    4.6331 C.ar    1  LIG1       -0.0656
      9 C           2.3259    4.6632    3.6118 C.ar    1  LIG1        0.0384
     10 C           2.3387    5.1832   -0.8760 C.ar    1  LIG1       -0.0407
     11 C           2.7786    4.2584    5.9501 C.ar    1  LIG1       -0.1064
     12 C           1.8543    7.5857   -2.2088 C.ar    1  LIG1       -0.0362
     13 C           1.1390    2.2239    0.5732 C.2     1  LIG1        0.1444
     14 C           2.7996    4.7721    2.2181 C.2     1  LIG1        0.1702
     15 C           1.7381    2.7384   -0.7011 C.3     1  LIG1        0.0813
     16 C           2.6025    3.8739   -0.1496 C.3     1  LIG1        0.0850
     17 C           3.7417    3.9349    7.0423 C.3     1  LIG1       -0.0422
     18 C           0.2505    1.0253    0.5724 C.3     1  LIG1        0.4016
     19 N           1.4190    2.8888    1.6482 N.2     1  LIG1       -0.2735
     20 N           2.2491    3.9098    1.2795 N.am    1  LIG1       -0.2174
     21 O           3.6565    5.6203    1.9761 O.2     1  LIG1       -0.4397
     22 O           3.9734    3.4875   -0.2382 O.3     1  LIG1       -0.4368
     23 F           0.0980    0.5319   -0.6755 F       1  LIG1       -0.1604
     24 F           0.7583    0.0391    1.3429 F       1  LIG1       -0.1601
     25 F          -0.9782    1.3233    1.0474 F       1  LIG1       -0.1598
     26 BR          1.5261    9.2135   -3.1107 Br      1  LIG1       -0.1047
     27 H          -0.5205    4.9158    5.4544 H       1  LIG1        0.1211
     28 H           0.2672    5.1000    3.1193 H       1  LIG1        0.1560
     29 H           0.7692    5.8034    0.4724 H       1  LIG1        0.1425
     30 H           3.8522    4.8430   -2.3791 H       1  LIG1        0.1274
     31 H           1.0725    4.3815    7.2693 H       1  LIG1        0.1280
     32 H           0.3403    7.9218   -0.6985 H       1  LIG1        0.1399
     33 H           3.4274    6.9586   -3.5567 H       1  LIG1        0.1379
     34 H           4.2781    4.2032    4.4042 H       1  LIG1        0.1416
     35 H           2.3143    1.9489   -1.1919 H       1  LIG1        0.1361
     36 H           0.9249    3.0735   -1.3532 H       1  LIG1        0.1323
     37 H           3.8088    2.8492    7.1828 H       1  LIG1        0.0578
     38 H           4.7446    4.3192    6.8157 H       1  LIG1        0.0553
     39 H           3.4340    4.3906    7.9924 H       1  LIG1        0.0547
     40 H           4.4935    4.1991    0.1701 H       1  LIG1        0.3553
@<TRIPOS>BOND
     1     1     2   ar
     2     1     5   ar
     3     2     9   ar
     4     3     6   ar
     5     3    10   ar
     6     4     7   ar
     7     4    10   ar
     8     5    11   ar
     9     6    12   ar
    10     7    12   ar
    11     8     9   ar
    12     8    11   ar
    13     9    14    1
    14    10    16    1
    15    11    17    1
    16    12    26    1
    17    13    15    1
    18    13    18    1
    19    13    19    2
    20    14    20   am
    21    14    21    2
    22    15    16    1
    23    16    20    1
    24    16    22    1
    25    18    23    1
    26    18    24    1
    27    18    25    1
    28    19    20    1
    29     1    27    1
    30     2    28    1
    31     3    29    1
    32     4    30    1
    33     5    31    1
    34     6    32    1
    35     7    33    1
    36     8    34    1
    37    15    35    1
    38    15    36    1
    39    17    37    1
    40    17    38    1
    41    17    39    1
    42    22    40    1
