@<TRIPOS>MOLECULE
AO-080/42573748
 50 52 0 0 0
SMALL
USER_CHARGES

@<TRIPOS>ATOM
      1 C           0.9742    0.4419   -1.9236 C.ar    1  LIG1       -0.1069
      2 C           2.8064    7.4091   -2.0731 C.ar    1  LIG1       -0.1091
      3 C           1.0814    4.7396    6.1595 C.ar    1  LIG1       -0.0973
      4 C           2.0570    1.3194   -1.9785 C.ar    1  LIG1       -0.1054
      5 C          -0.1842    0.8055   -1.2368 C.ar    1  LIG1       -0.1034
      6 C           1.4938    7.0864   -2.4175 C.ar    1  LIG1       -0.1067
      7 C           3.4495    6.7147   -1.0485 C.ar    1  LIG1       -0.1049
      8 C           2.4175    4.3592    6.2849 C.ar    1  LIG1       -0.0996
      9 C           0.5254    4.9271    4.8939 C.ar    1  LIG1       -0.0639
     10 C           1.9817    2.5605   -1.3464 C.ar    1  LIG1       -0.0950
     11 C          -0.2596    2.0467   -0.6047 C.ar    1  LIG1       -0.0917
     12 C           0.8242    6.0694   -1.7370 C.ar    1  LIG1       -0.0945
     13 C           2.7799    5.6978   -0.3680 C.ar    1  LIG1       -0.0921
     14 C           3.1978    4.1664    5.1449 C.ar    1  LIG1       -0.0592
     15 C           1.3057    4.7343    3.7539 C.ar    1  LIG1        0.0667
     16 C           0.8233    2.9242   -0.6595 C.ar    1  LIG1       -0.0733
     17 C           1.4672    5.3750   -0.7123 C.ar    1  LIG1       -0.0722
     18 C           2.6418    4.3539    3.8793 C.ar    1  LIG1        0.0371
     19 C           0.7057    4.9354    2.4423 C.2     1  LIG1        0.1187
     20 C           4.7386    2.5636    1.5291 C.2     1  LIG1        0.1126
     21 C           6.1565    2.8555   -0.4958 C.3     1  LIG1       -0.0314
     22 C           4.4653    3.2066    2.8721 C.3     1  LIG1        0.1400
     23 C           0.7409    4.2709    0.0269 C.3     1  LIG1        0.0141
     24 N           1.2146    4.1690    1.3886 N.am    1  LIG1       -0.3290
     25 N           5.7061    3.2557    0.8175 N.am    1  LIG1       -0.3563
     26 O          -0.2014    5.7706    2.2866 O.2     1  LIG1       -0.4594
     27 O           4.1572    1.5518    1.1467 O.2     1  LIG1       -0.4665
     28 O           3.4266    4.1571    2.7677 O.3     1  LIG1       -0.3607
     29 H           1.0327   -0.5239   -2.4170 H       1  LIG1        0.1155
     30 H           3.3281    8.2002   -2.6040 H       1  LIG1        0.1128
     31 H           0.4740    4.8897    7.0475 H       1  LIG1        0.1155
     32 H           2.9587    1.0368   -2.5140 H       1  LIG1        0.1167
     33 H          -1.0278    0.1231   -1.1949 H       1  LIG1        0.1181
     34 H           0.9932    7.6262   -3.2160 H       1  LIG1        0.1126
     35 H           4.4718    6.9650   -0.7808 H       1  LIG1        0.1153
     36 H           2.8498    4.2139    7.2705 H       1  LIG1        0.1339
     37 H          -0.5170    5.2231    4.8082 H       1  LIG1        0.1384
     38 H           2.8304    3.2377   -1.3941 H       1  LIG1        0.1144
     39 H          -1.1660    2.3214   -0.0718 H       1  LIG1        0.1222
     40 H          -0.1984    5.8249   -2.0120 H       1  LIG1        0.1144
     41 H           3.2888    5.1621    0.4291 H       1  LIG1        0.1207
     42 H           4.2379    3.8699    5.2497 H       1  LIG1        0.1150
     43 H           7.0039    2.1703   -0.4096 H       1  LIG1        0.0853
     44 H           6.4691    3.7311   -1.0712 H       1  LIG1        0.0975
     45 H           5.3498    2.3516   -1.0348 H       1  LIG1        0.0854
     46 H           4.1598    2.4355    3.5858 H       1  LIG1        0.1541
     47 H           5.3691    3.6997    3.2433 H       1  LIG1        0.1542
     48 H          -0.3132    4.5622    0.1244 H       1  LIG1        0.1557
     49 H           1.9985    3.5476    1.5592 H       1  LIG1        0.2974
     50 H           6.1178    4.0831    1.2391 H       1  LIG1        0.2938
@<TRIPOS>BOND
     1     1     4   ar
     2     1     5   ar
     3     2     6   ar
     4     2     7   ar
     5     3     8   ar
     6     3     9   ar
     7     4    10   ar
     8     5    11   ar
     9     6    12   ar
    10     7    13   ar
    11     8    14   ar
    12     9    15   ar
    13    10    16   ar
    14    11    16   ar
    15    12    17   ar
    16    13    17   ar
    17    14    18   ar
    18    15    18   ar
    19    15    19    1
    20    16    23    1
    21    17    23    1
    22    18    28    1
    23    19    24   am
    24    19    26    2
    25    20    22    1
    26    20    25   am
    27    20    27    2
    28    21    25    1
    29    22    28    1
    30    23    24    1
    31     1    29    1
    32     2    30    1
    33     3    31    1
    34     4    32    1
    35     5    33    1
    36     6    34    1
    37     7    35    1
    38     8    36    1
    39     9    37    1
    40    10    38    1
    41    11    39    1
    42    12    40    1
    43    13    41    1
    44    14    42    1
    45    21    43    1
    46    21    44    1
    47    21    45    1
    48    22    46    1
    49    22    47    1
    50    23    48    1
    51    24    49    1
    52    25    50    1
