@<TRIPOS>MOLECULE
AK-968/12715447
 49 52 0 0 0
SMALL
USER_CHARGES

@<TRIPOS>ATOM
      1 C           0.3757    0.6191   -1.8117 C.ar    1  LIG1       -0.1068
      2 C           2.1892    7.5642   -2.3372 C.ar    1  LIG1       -0.1045
      3 C           1.7047    0.9679   -2.0517 C.ar    1  LIG1       -0.1015
      4 C          -0.3972    1.3792   -0.9338 C.ar    1  LIG1       -0.1053
      5 C           3.1761    6.5877   -2.4703 C.ar    1  LIG1       -0.1033
      6 C           1.1720    7.4042   -1.3962 C.ar    1  LIG1       -0.1034
      7 C           2.2608    2.0767   -1.4138 C.ar    1  LIG1       -0.0917
      8 C           0.1589    2.4879   -0.2958 C.ar    1  LIG1       -0.0966
      9 C           3.1460    5.4509   -1.6626 C.ar    1  LIG1       -0.0991
     10 C           1.1419    6.2675   -0.5883 C.ar    1  LIG1       -0.0985
     11 C           3.0456    4.1684    5.0285 C.ar    1  LIG1        0.0543
     12 C           2.3695    4.4181    6.2395 C.ar    1  LIG1       -0.0902
     13 C           1.4880    2.8367   -0.5358 C.ar    1  LIG1       -0.0677
     14 C           2.1288    5.2908   -0.7216 C.ar    1  LIG1       -0.0748
     15 C           1.0498    4.7198    6.0447 C.ar    1  LIG1       -0.0307
     16 C           2.1805    4.2970    3.9531 C.ar    1  LIG1        0.0591
     17 C           4.4364    3.8273    4.8899 C.2     1  LIG1        0.1780
     18 C           1.4607    4.3045    1.5373 C.2     1  LIG1        0.1244
     19 C           2.7189    4.4422    7.6802 C.3     1  LIG1       -0.0437
     20 C           0.3021    4.9907    7.2939 C.3     1  LIG1       -0.0330
     21 C           1.3130    4.4655    8.3605 C.3     1  LIG1       -0.0476
     22 C           6.4717    3.4344    6.0966 C.3     1  LIG1        0.0364
     23 C           2.0952    4.0482    0.1618 C.3     1  LIG1        0.0902
     24 N           2.3853    4.1500    2.6072 N.am    1  LIG1       -0.2818
     25 O           5.0158    3.6099    3.8071 O.2     1  LIG1       -0.4435
     26 O           0.2780    4.6103    1.6612 O.2     1  LIG1       -0.4526
     27 O           5.0787    3.7648    6.1030 O.3     1  LIG1       -0.3526
     28 S           0.5741    4.7185    4.4417 S.2     1  LIG1       -0.0309
     29 H          -0.0576   -0.2434   -2.3095 H       1  LIG1        0.1160
     30 H           2.2136    8.4499   -2.9653 H       1  LIG1        0.1189
     31 H           2.3063    0.3770   -2.7361 H       1  LIG1        0.1162
     32 H          -1.4323    1.1085   -0.7475 H       1  LIG1        0.1154
     33 H           3.9688    6.7126   -3.2023 H       1  LIG1        0.1193
     34 H           0.4042    8.1649   -1.2914 H       1  LIG1        0.1194
     35 H           3.2973    2.3410   -1.6068 H       1  LIG1        0.1240
     36 H          -0.4507    3.0741    0.3867 H       1  LIG1        0.1192
     37 H           3.9191    4.6951   -1.7734 H       1  LIG1        0.1180
     38 H           0.3456    6.1512    0.1420 H       1  LIG1        0.1216
     39 H           3.2941    3.5666    7.9938 H       1  LIG1        0.0666
     40 H           3.2775    5.3516    7.9247 H       1  LIG1        0.0740
     41 H           0.1333    6.0648    7.4220 H       1  LIG1        0.0760
     42 H          -0.6503    4.4575    7.3551 H       1  LIG1        0.0802
     43 H           1.0359    3.4399    8.6388 H       1  LIG1        0.0597
     44 H           1.3036    5.0672    9.2746 H       1  LIG1        0.0653
     45 H           6.8483    3.4209    7.1223 H       1  LIG1        0.0962
     46 H           7.0195    4.1726    5.5056 H       1  LIG1        0.1247
     47 H           6.6003    2.4453    5.6507 H       1  LIG1        0.0951
     48 H           3.1467    3.7990    0.3743 H       1  LIG1        0.1494
     49 H           3.3426    3.8983    2.2944 H       1  LIG1        0.3420
@<TRIPOS>BOND
     1     1     3   ar
     2     1     4   ar
     3     2     5   ar
     4     2     6   ar
     5     3     7   ar
     6     4     8   ar
     7     5     9   ar
     8     6    10   ar
     9     7    13   ar
    10     8    13   ar
    11     9    14   ar
    12    10    14   ar
    13    11    12   ar
    14    11    16   ar
    15    11    17    1
    16    12    15   ar
    17    12    19    1
    18    13    23    1
    19    14    23    1
    20    15    20    1
    21    15    28   ar
    22    16    24    1
    23    16    28   ar
    24    17    25    2
    25    17    27    1
    26    18    23    1
    27    18    24   am
    28    18    26    2
    29    19    21    1
    30    20    21    1
    31    22    27    1
    32     1    29    1
    33     2    30    1
    34     3    31    1
    35     4    32    1
    36     5    33    1
    37     6    34    1
    38     7    35    1
    39     8    36    1
    40     9    37    1
    41    10    38    1
    42    19    39    1
    43    19    40    1
    44    20    41    1
    45    20    42    1
    46    21    43    1
    47    21    44    1
    48    22    45    1
    49    22    46    1
    50    22    47    1
    51    23    48    1
    52    24    49    1
