@<TRIPOS>MOLECULE
AJ-292/15008611
 50 53 0 0 0
SMALL
USER_CHARGES

@<TRIPOS>ATOM
      1 C           1.3343    4.2314    6.0730 C.ar    1  LIG1       -0.1089
      2 C           1.2451    0.3046   -1.5448 C.ar    1  LIG1       -0.0954
      3 C           2.6852    4.5350    5.9035 C.ar    1  LIG1       -0.1081
      4 C           0.4869    4.1802    4.9662 C.ar    1  LIG1       -0.1052
      5 C           0.0564    0.8794   -1.9840 C.ar    1  LIG1       -0.0954
      6 C           2.0654    0.9973   -0.6563 C.ar    1  LIG1       -0.0615
      7 C           2.8391    5.7224   -1.2991 C.ar    1  LIG1       -0.0874
      8 C           3.1885    4.7874    4.6275 C.ar    1  LIG1       -0.1015
      9 C           0.9902    4.4325    3.6901 C.ar    1  LIG1       -0.0967
     10 C          -0.3083    2.1516   -1.5407 C.ar    1  LIG1       -0.0653
     11 C           3.3395    6.6275   -2.2351 C.ar    1  LIG1       -0.0587
     12 C           0.9610    7.1854   -0.8881 C.ar    1  LIG1       -0.0431
     13 C           1.6967    2.2748   -0.2137 C.ar    1  LIG1        0.0585
     14 C           1.6499    6.0013   -0.6257 C.ar    1  LIG1       -0.0526
     15 C           2.3410    4.7362    3.5207 C.ar    1  LIG1       -0.0856
     16 C           0.5118    2.8711   -0.6597 C.ar    1  LIG1       -0.0413
     17 C           2.6505    7.8116   -2.4975 C.ar    1  LIG1        0.0325
     18 C           1.4612    8.0906   -1.8241 C.ar    1  LIG1        0.0359
     19 C           2.5460    2.9806    0.7769 C.2     1  LIG1        0.1304
     20 C           1.1036    5.0143    0.3919 C.3     1  LIG1        0.0271
     21 C           4.3703    8.3265   -4.0574 C.3     1  LIG1        0.0250
     22 C          -0.4270    9.4533   -1.3408 C.3     1  LIG1        0.0243
     23 C           2.8822    5.0079    2.1468 C.3     1  LIG1        0.0150
     24 N           0.1386    4.1340   -0.2389 N.pl3   1  LIG1       -0.3745
     25 N           2.1509    4.2768    1.1174 N.am    1  LIG1       -0.3118
     26 O           3.5125    2.3939    1.2581 O.2     1  LIG1       -0.4721
     27 O           3.1497    8.6874   -3.4140 O.3     1  LIG1       -0.4086
     28 O           0.7800    9.2441   -2.0714 O.3     1  LIG1       -0.4088
     29 H           0.9428    4.0337    7.0665 H       1  LIG1        0.1142
     30 H           1.5297   -0.6858   -1.8880 H       1  LIG1        0.1117
     31 H           3.3454    4.5740    6.7650 H       1  LIG1        0.1130
     32 H          -0.5647    3.9426    5.0976 H       1  LIG1        0.1144
     33 H          -0.5876    0.3390   -2.6716 H       1  LIG1        0.1314
     34 H           2.9825    0.5237   -0.3162 H       1  LIG1        0.1462
     35 H           3.3817    4.8016   -1.1023 H       1  LIG1        0.1243
     36 H           4.2424    5.0235    4.5050 H       1  LIG1        0.1146
     37 H           0.3225    4.3905    2.8337 H       1  LIG1        0.1250
     38 H          -1.2404    2.5845   -1.8976 H       1  LIG1        0.1190
     39 H           4.2665    6.4042   -2.7558 H       1  LIG1        0.1242
     40 H           0.0334    7.4050   -0.3649 H       1  LIG1        0.1316
     41 H           0.5434    5.6136    1.1537 H       1  LIG1        0.2027
     42 H           4.6569    9.1102   -4.7628 H       1  LIG1        0.0887
     43 H           4.2388    7.3778   -4.5840 H       1  LIG1        0.1223
     44 H           5.1515    8.2162   -3.3017 H       1  LIG1        0.0888
     45 H          -0.8695   10.4088   -1.6328 H       1  LIG1        0.0882
     46 H          -0.2104    9.4521   -0.2695 H       1  LIG1        0.0874
     47 H          -1.1259    8.6455   -1.5701 H       1  LIG1        0.1219
     48 H           2.8189    6.0760    1.9112 H       1  LIG1        0.1361
     49 H           3.9367    4.7212    2.0759 H       1  LIG1        0.1285
     50 H          -0.7279    4.5287   -0.5864 H       1  LIG1        0.2997
@<TRIPOS>BOND
     1     1     3   ar
     2     1     4   ar
     3     2     5   ar
     4     2     6   ar
     5     3     8   ar
     6     4     9   ar
     7     5    10   ar
     8     6    13   ar
     9     7    11   ar
    10     7    14   ar
    11     8    15   ar
    12     9    15   ar
    13    10    16   ar
    14    11    17   ar
    15    12    14   ar
    16    12    18   ar
    17    13    16   ar
    18    13    19    1
    19    14    20    1
    20    15    23    1
    21    16    24    1
    22    17    18   ar
    23    17    27    1
    24    18    28    1
    25    19    25   am
    26    19    26    2
    27    20    24    1
    28    20    25    1
    29    21    27    1
    30    22    28    1
    31    23    25    1
    32     1    29    1
    33     2    30    1
    34     3    31    1
    35     4    32    1
    36     5    33    1
    37     6    34    1
    38     7    35    1
    39     8    36    1
    40     9    37    1
    41    10    38    1
    42    11    39    1
    43    12    40    1
    44    20    41    1
    45    21    42    1
    46    21    43    1
    47    21    44    1
    48    22    45    1
    49    22    46    1
    50    22    47    1
    51    23    48    1
    52    23    49    1
    53    24    50    1
