@<TRIPOS>MOLECULE
AO-080/41810299
 41 44 0 0 0
SMALL
USER_CHARGES

@<TRIPOS>ATOM
      1 C           0.9141    4.4685    5.7393 C.ar    1  LIG1       -0.0889
      2 C           1.2221    7.3134   -0.8141 C.ar    1  LIG1       -0.0953
      3 C           2.2500    4.8537    5.8215 C.ar    1  LIG1       -0.0829
      4 C           1.5956    0.4378   -1.5070 C.ar    1  LIG1       -0.0803
      5 C           1.1368    7.2348   -2.2041 C.ar    1  LIG1       -0.0918
      6 C           0.5147    0.8770   -2.2713 C.ar    1  LIG1       -0.0842
      7 C           0.4188    3.9183    4.5579 C.ar    1  LIG1       -0.0622
      8 C           2.2759    6.6924   -0.1437 C.ar    1  LIG1       -0.0866
      9 C           3.0913    4.6917    4.7202 C.ar    1  LIG1       -0.0497
     10 C           1.9836    1.1514   -0.3730 C.ar    1  LIG1       -0.0500
     11 C           2.1053    6.5350   -2.9238 C.ar    1  LIG1       -0.0466
     12 C          -0.1782    2.0298   -1.9018 C.ar    1  LIG1       -0.0567
     13 C           1.2673    3.7571    3.4560 C.ar    1  LIG1        0.0594
     14 C           3.2444    5.9925   -0.8633 C.ar    1  LIG1       -0.0377
     15 C           2.6070    4.1412    3.5276 C.ar    1  LIG1       -0.0074
     16 C           1.2906    2.3041   -0.0034 C.ar    1  LIG1        0.0160
     17 C           3.1591    5.9139   -2.2533 C.ar    1  LIG1        0.0692
     18 C           0.2098    2.7434   -0.7678 C.ar    1  LIG1        0.0299
     19 C           0.7664    3.1472    2.2054 C.ar    1  LIG1        0.1589
     20 C           3.0258    3.5023    1.3384 C.ar    1  LIG1        0.1047
     21 C           4.3791    5.3245   -0.1370 C.3     1  LIG1        0.0522
     22 N           3.4748    4.0216    2.4373 N.ar    1  LIG1       -0.3527
     23 N           1.7168    3.0151    1.1707 N.ar    1  LIG1       -0.2225
     24 O          -0.3994    2.7594    2.1724 O.2     1  LIG1       -0.4476
     25 F           4.0851    5.2439   -2.9534 F       1  LIG1       -0.2616
     26 S           4.1534    3.5397   -0.0177 S.3     1  LIG1       -0.0486
     27 CL         -0.6744    4.1674   -0.3485 Cl      1  LIG1       -0.1180
     28 H           0.2575    4.5979    6.5948 H       1  LIG1        0.1237
     29 H           0.4676    7.8581   -0.2535 H       1  LIG1        0.1243
     30 H           2.6387    5.2776    6.7428 H       1  LIG1        0.1377
     31 H           2.1351   -0.4596   -1.7954 H       1  LIG1        0.1365
     32 H           0.3160    7.7179   -2.7260 H       1  LIG1        0.1339
     33 H           0.2128    0.3209   -3.1541 H       1  LIG1        0.1403
     34 H          -0.6270    3.6273    4.5127 H       1  LIG1        0.1462
     35 H           2.3338    6.7585    0.9395 H       1  LIG1        0.1377
     36 H           4.1326    4.9957    4.7992 H       1  LIG1        0.1438
     37 H           2.8276    0.7980    0.2143 H       1  LIG1        0.1469
     38 H           2.0394    6.4738   -4.0061 H       1  LIG1        0.1324
     39 H          -1.0185    2.3585   -2.5082 H       1  LIG1        0.1432
     40 H           5.3277    5.5280   -0.6462 H       1  LIG1        0.1184
     41 H           4.4731    5.7357    0.8741 H       1  LIG1        0.1160
@<TRIPOS>BOND
     1     1     3   ar
     2     1     7   ar
     3     2     5   ar
     4     2     8   ar
     5     3     9   ar
     6     4     6   ar
     7     4    10   ar
     8     5    11   ar
     9     6    12   ar
    10     7    13   ar
    11     8    14   ar
    12     9    15   ar
    13    10    16   ar
    14    11    17   ar
    15    12    18   ar
    16    13    15   ar
    17    13    19   ar
    18    14    17   ar
    19    14    21    1
    20    15    22   ar
    21    16    18   ar
    22    16    23    1
    23    17    25    1
    24    18    27    1
    25    19    23   ar
    26    19    24    2
    27    20    22   ar
    28    20    23   ar
    29    20    26    1
    30    21    26    1
    31     1    28    1
    32     2    29    1
    33     3    30    1
    34     4    31    1
    35     5    32    1
    36     6    33    1
    37     7    34    1
    38     8    35    1
    39     9    36    1
    40    10    37    1
    41    11    38    1
    42    12    39    1
    43    21    40    1
    44    21    41    1
