@<TRIPOS>MOLECULE
AR-360/04460031
 42 44 0 0 0
SMALL
USER_CHARGES

@<TRIPOS>ATOM
      1 C           0.1797    0.9164   -1.8943 C.ar    1  LIG1       -0.1085
      2 C          -0.3904    1.6547   -0.8573 C.ar    1  LIG1       -0.1026
      3 C           1.4998    1.1549   -2.2766 C.ar    1  LIG1       -0.1061
      4 C           0.3595    2.6317   -0.2026 C.ar    1  LIG1       -0.0841
      5 C           2.2498    2.1319   -1.6219 C.ar    1  LIG1       -0.0893
      6 C           1.5007    3.5631    3.7661 C.ar    1  LIG1       -0.1052
      7 C           2.2180    5.8430    3.4133 C.ar    1  LIG1       -0.1034
      8 C           0.7582    6.7803   -1.7696 C.ar    1  LIG1       -0.1040
      9 C           3.1310    6.9367   -2.1970 C.ar    1  LIG1       -0.1037
     10 C           1.7565    3.2751    2.4256 C.ar    1  LIG1       -0.0944
     11 C           2.4739    5.5550    2.0727 C.ar    1  LIG1       -0.0918
     12 C           0.9782    5.6701   -0.9544 C.ar    1  LIG1       -0.0927
     13 C           3.3509    5.8265   -1.3817 C.ar    1  LIG1       -0.0930
     14 C           1.7314    4.8471    4.2600 C.ar    1  LIG1       -0.1192
     15 C           1.8346    7.4136   -2.3909 C.ar    1  LIG1       -0.1186
     16 C           1.6797    2.8704   -0.5850 C.ar    1  LIG1       -0.0555
     17 C           2.2432    4.2710    1.5788 C.ar    1  LIG1       -0.0653
     18 C           2.2745    5.1931   -0.7604 C.ar    1  LIG1       -0.0644
     19 C           1.4585    5.1557    5.6933 C.3     1  LIG1       -0.0442
     20 C           1.6003    8.6009   -3.2624 C.3     1  LIG1       -0.0441
     21 C           2.5180    3.9619    0.1459 C.3     1  LIG1        0.0358
     22 O           3.9035    3.5360    0.0830 O.3     1  LIG1       -0.4550
     23 H          -0.4040    0.1547   -2.4031 H       1  LIG1        0.1146
     24 H          -1.4179    1.4684   -0.5588 H       1  LIG1        0.1152
     25 H           1.9443    0.5795   -3.0832 H       1  LIG1        0.1146
     26 H          -0.0929    3.2023    0.6041 H       1  LIG1        0.1291
     27 H           3.2775    2.3110   -1.9266 H       1  LIG1        0.1211
     28 H           1.1213    2.7809    4.4186 H       1  LIG1        0.1155
     29 H           2.4019    6.8457    3.7902 H       1  LIG1        0.1166
     30 H          -0.2553    7.1448   -1.9153 H       1  LIG1        0.1168
     31 H           3.9755    7.4250   -2.6762 H       1  LIG1        0.1174
     32 H           1.5755    2.2715    2.0502 H       1  LIG1        0.1212
     33 H           2.8530    6.3367    1.4196 H       1  LIG1        0.1261
     34 H           0.1337    5.1843   -0.4730 H       1  LIG1        0.1213
     35 H           4.3641    5.4613   -1.2358 H       1  LIG1        0.1186
     36 H           2.3522    4.9691    6.3012 H       1  LIG1        0.0564
     37 H           1.1605    6.2040    5.8255 H       1  LIG1        0.0533
     38 H           0.6373    4.5407    6.0839 H       1  LIG1        0.0532
     39 H           1.6465    9.5238   -2.6713 H       1  LIG1        0.0565
     40 H           2.3497    8.6624   -4.0622 H       1  LIG1        0.0533
     41 H           0.6184    8.5493   -3.7507 H       1  LIG1        0.0533
     42 H           4.3982    4.2244    0.5395 H       1  LIG1        0.3356
@<TRIPOS>BOND
     1     1     2   ar
     2     1     3   ar
     3     2     4   ar
     4     3     5   ar
     5     4    16   ar
     6     5    16   ar
     7     6    10   ar
     8     6    14   ar
     9     7    11   ar
    10     7    14   ar
    11     8    12   ar
    12     8    15   ar
    13     9    13   ar
    14     9    15   ar
    15    10    17   ar
    16    11    17   ar
    17    12    18   ar
    18    13    18   ar
    19    14    19    1
    20    15    20    1
    21    16    21    1
    22    17    21    1
    23    18    21    1
    24    21    22    1
    25     1    23    1
    26     2    24    1
    27     3    25    1
    28     4    26    1
    29     5    27    1
    30     6    28    1
    31     7    29    1
    32     8    30    1
    33     9    31    1
    34    10    32    1
    35    11    33    1
    36    12    34    1
    37    13    35    1
    38    19    36    1
    39    19    37    1
    40    19    38    1
    41    20    39    1
    42    20    40    1
    43    20    41    1
    44    22    42    1
