@<TRIPOS>MOLECULE
AP-060/41942472
 39 42 0 0 0
SMALL
USER_CHARGES

@<TRIPOS>ATOM
      1 C           0.6373    1.3605   -2.1423 C.ar    1  LIG1       -0.0989
      2 C          -0.3029    2.1296   -1.4565 C.ar    1  LIG1       -0.0950
      3 C           1.9368    1.2439   -1.6486 C.ar    1  LIG1       -0.0912
      4 C           2.1366    4.9363    6.1727 C.ar    1  LIG1       -0.0872
      5 C           1.1143    3.9903    6.1303 C.ar    1  LIG1       -0.0813
      6 C           0.0565    2.7822   -0.2772 C.ar    1  LIG1       -0.0674
      7 C           2.2960    1.8965   -0.4693 C.ar    1  LIG1       -0.0621
      8 C           2.8264    5.2713    5.0086 C.ar    1  LIG1       -0.0610
      9 C           0.7782    3.3763    4.9224 C.ar    1  LIG1       -0.0487
     10 C           3.2162    5.5368   -2.0350 C.ar    1  LIG1       -0.0571
     11 C           1.6119    6.2146   -0.3605 C.ar    1  LIG1       -0.0529
     12 C           2.5887    6.3603   -2.9697 C.ar    1  LIG1       -0.0757
     13 C           0.9843    7.0382   -1.2952 C.ar    1  LIG1       -0.0737
     14 C           1.3558    2.6656    0.2165 C.ar    1  LIG1        0.0169
     15 C           2.4864    4.6529    3.8007 C.ar    1  LIG1        0.0629
     16 C           1.4602    3.7007    3.7441 C.ar    1  LIG1       -0.0008
     17 C           2.7279    5.4640   -0.7305 C.ar    1  LIG1       -0.0387
     18 C           1.4727    7.1110   -2.5998 C.ar    1  LIG1       -0.0418
     19 C           1.7362    3.3565    1.4650 C.ar    1  LIG1        0.0949
     20 C           3.2036    5.0016    2.5541 C.ar    1  LIG1        0.1748
     21 N           1.0926    3.0551    2.5512 N.ar    1  LIG1       -0.3353
     22 N           2.7613    4.3042    1.4293 N.ar    1  LIG1       -0.2106
     23 N           3.3593    4.6339    0.2110 N.pl3   1  LIG1       -0.3140
     24 O           4.0960    5.8435    2.5695 O.2     1  LIG1       -0.4404
     25 BR          0.6237    8.2282   -3.8656 Br      1  LIG1       -0.1219
     26 H           0.3575    0.8526   -3.0604 H       1  LIG1        0.1267
     27 H          -1.3145    2.2204   -1.8411 H       1  LIG1        0.1221
     28 H           2.6687    0.6448   -2.1825 H       1  LIG1        0.1239
     29 H           2.3961    5.4131    7.1135 H       1  LIG1        0.1269
     30 H           0.5775    3.7300    7.0380 H       1  LIG1        0.1396
     31 H          -0.6841    3.3789    0.2491 H       1  LIG1        0.1347
     32 H           3.3114    1.7986   -0.0941 H       1  LIG1        0.1430
     33 H           3.6197    6.0116    5.0613 H       1  LIG1        0.1476
     34 H          -0.0218    2.6397    4.9066 H       1  LIG1        0.1469
     35 H           4.0847    4.9555   -2.3337 H       1  LIG1        0.1161
     36 H           1.2230    6.1643    0.6535 H       1  LIG1        0.1321
     37 H           2.9808    6.4044   -3.9825 H       1  LIG1        0.1429
     38 H           0.1148    7.6155   -0.9915 H       1  LIG1        0.1468
     39 H           4.1685    4.0998   -0.0883 H       1  LIG1        0.3572
@<TRIPOS>BOND
     1     1     2   ar
     2     1     3   ar
     3     2     6   ar
     4     3     7   ar
     5     4     5   ar
     6     4     8   ar
     7     5     9   ar
     8     6    14   ar
     9     7    14   ar
    10     8    15   ar
    11     9    16   ar
    12    10    12   ar
    13    10    17   ar
    14    11    13   ar
    15    11    17   ar
    16    12    18   ar
    17    13    18   ar
    18    14    19    1
    19    15    16   ar
    20    15    20   ar
    21    16    21   ar
    22    17    23    1
    23    18    25    1
    24    19    21   ar
    25    19    22   ar
    26    20    22   ar
    27    20    24    2
    28    22    23    1
    29     1    26    1
    30     2    27    1
    31     3    28    1
    32     4    29    1
    33     5    30    1
    34     6    31    1
    35     7    32    1
    36     8    33    1
    37     9    34    1
    38    10    35    1
    39    11    36    1
    40    12    37    1
    41    13    38    1
    42    23    39    1
