@<TRIPOS>MOLECULE
AG-205/10182042
 36 38 0 0 0
SMALL
USER_CHARGES

@<TRIPOS>ATOM
      1 C           0.9309    6.9283   -2.1044 C.ar    1  LIG1       -0.0655
      2 C           3.0889    4.1859    4.2465 C.ar    1  LIG1       -0.0546
      3 C           0.8474    5.0871    4.2288 C.ar    1  LIG1       -0.0553
      4 C           1.0239    5.8020   -1.2944 C.ar    1  LIG1       -0.0766
      5 C           2.9488    3.8638    5.5964 C.ar    1  LIG1       -0.0613
      6 C           0.7072    4.7651    5.5787 C.ar    1  LIG1       -0.0648
      7 C           2.1054    7.4631   -2.6089 C.ar    1  LIG1       -0.0379
      8 C           3.3853    5.8623   -1.5709 C.ar    1  LIG1       -0.0226
      9 C           2.0383    4.7977    3.5627 C.ar    1  LIG1        0.0446
     10 C           2.2710    5.2526   -1.0177 C.ar    1  LIG1       -0.0167
     11 C           1.7579    4.1534    6.2625 C.ar    1  LIG1       -0.0089
     12 C           0.8416    2.4192    0.4742 C.2     1  LIG1        0.1447
     13 C           2.1862    5.1382    2.1342 C.2     1  LIG1        0.1720
     14 C           1.6530    2.8242   -0.7197 C.3     1  LIG1        0.0814
     15 C           2.4062    4.0212   -0.1363 C.3     1  LIG1        0.0861
     16 C          -0.0312    1.2099    0.4325 C.3     1  LIG1        0.4024
     17 N           3.3345    6.9574   -2.3622 N.ar    1  LIG1       -0.3957
     18 N           0.9290    3.1857    1.5138 N.2     1  LIG1       -0.2745
     19 N           1.8090    4.1829    1.2001 N.am    1  LIG1       -0.2186
     20 O           2.6381    6.2488    1.8610 O.2     1  LIG1       -0.4382
     21 O           3.7722    3.6529    0.0510 O.3     1  LIG1       -0.4370
     22 F           0.0369    0.6004   -0.7708 F       1  LIG1       -0.1600
     23 F           0.3360    0.3086    1.3689 F       1  LIG1       -0.1596
     24 F          -1.3244    1.5285    0.6570 F       1  LIG1       -0.1589
     25 CL          1.5846    3.7548    7.9274 Cl      1  LIG1       -0.1313
     26 H          -0.0305    7.3735   -2.3337 H       1  LIG1        0.1294
     27 H           4.0214    3.9564    3.7374 H       1  LIG1        0.1536
     28 H           0.0220    5.5635    3.7058 H       1  LIG1        0.1685
     29 H           0.1204    5.3594   -0.8838 H       1  LIG1        0.1338
     30 H           3.7754    3.3869    6.1167 H       1  LIG1        0.1383
     31 H          -0.2265    4.9970    6.0847 H       1  LIG1        0.1368
     32 H           2.0862    8.3417   -3.2454 H       1  LIG1        0.2061
     33 H           4.3846    5.4785   -1.3904 H       1  LIG1        0.2136
     34 H           2.3071    2.0030   -1.0265 H       1  LIG1        0.1379
     35 H           0.9653    3.0827   -1.5315 H       1  LIG1        0.1325
     36 H           4.2120    4.4085    0.4743 H       1  LIG1        0.3562
@<TRIPOS>BOND
     1     1     4   ar
     2     1     7   ar
     3     2     5   ar
     4     2     9   ar
     5     3     6   ar
     6     3     9   ar
     7     4    10   ar
     8     5    11   ar
     9     6    11   ar
    10     7    17   ar
    11     8    10   ar
    12     8    17   ar
    13     9    13    1
    14    10    15    1
    15    11    25    1
    16    12    14    1
    17    12    16    1
    18    12    18    2
    19    13    19   am
    20    13    20    2
    21    14    15    1
    22    15    19    1
    23    15    21    1
    24    16    22    1
    25    16    23    1
    26    16    24    1
    27    18    19    1
    28     1    26    1
    29     2    27    1
    30     3    28    1
    31     4    29    1
    32     5    30    1
    33     6    31    1
    34     7    32    1
    35     8    33    1
    36    14    34    1
    37    14    35    1
    38    21    36    1
