@<TRIPOS>MOLECULE
AN-465/41865634
 54 57 0 0 0
SMALL
USER_CHARGES

@<TRIPOS>ATOM
      1 C           1.0917    4.0886    5.8938 C.ar    1  LIG1       -0.1083
      2 C           0.4988    4.8632    4.8967 C.ar    1  LIG1       -0.1070
      3 C           2.4491    3.7762    5.8196 C.ar    1  LIG1       -0.1056
      4 C           1.0933    6.3181   -0.4987 C.ar    1  LIG1       -0.0881
      5 C           3.3693    5.8701   -1.1742 C.ar    1  LIG1       -0.0860
      6 C           1.2633    5.3254    3.8256 C.ar    1  LIG1       -0.0999
      7 C           3.2136    4.2384    4.7484 C.ar    1  LIG1       -0.0966
      8 C           1.0336    7.3783   -1.4031 C.ar    1  LIG1       -0.0982
      9 C           3.3095    6.9302   -2.0787 C.ar    1  LIG1       -0.0964
     10 C           2.2008    1.1614   -1.3042 C.ar    1  LIG1       -0.0343
     11 C           1.2606    0.2862   -1.8478 C.ar    1  LIG1       -0.0536
     12 C           0.4185    2.6075   -0.5498 C.ar    1  LIG1       -0.0154
     13 C           2.2612    5.5640   -0.3842 C.ar    1  LIG1       -0.0499
     14 C           2.1416    7.6843   -2.1931 C.ar    1  LIG1       -0.1119
     15 C           2.6207    5.0131    3.7513 C.ar    1  LIG1       -0.0824
     16 C           1.7798    2.3220   -0.6550 C.ar    1  LIG1        0.0009
     17 C          -0.1007    0.5717   -1.7425 C.ar    1  LIG1        0.0149
     18 C          -0.5217    1.7323   -1.0935 C.ar    1  LIG1        0.0246
     19 C           4.2902    3.5255    1.2749 C.2     1  LIG1        0.1348
     20 C           5.5451    3.2822    2.0155 C.2     1  LIG1        0.1548
     21 C           2.3258    4.4315    0.5810 C.3     1  LIG1        0.0526
     22 C           6.8073    3.8813    1.4640 C.3     1  LIG1        0.0594
     23 C           2.5217   10.1383   -2.5397 C.3     1  LIG1       -0.0630
     24 C           2.0764    8.8171   -3.1611 C.3     1  LIG1       -0.0478
     25 C           3.4442    5.5101    2.5985 C.3     1  LIG1        0.0099
     26 N           3.9207    2.6897    0.3376 N.2     1  LIG1       -0.2760
     27 N           2.7067    3.1843   -0.1195 N.pl3   1  LIG1       -0.2883
     28 N           3.4471    4.5823    1.4999 N.pl3   1  LIG1       -0.3322
     29 O           5.5348    2.6053    3.0388 O.2     1  LIG1       -0.4314
     30 CL         -1.2164   -0.5516   -2.4365 Cl      1  LIG1       -0.1363
     31 CL         -2.1937    2.1408   -0.9309 Cl      1  LIG1       -0.1159
     32 H           0.4965    3.7299    6.7285 H       1  LIG1        0.1153
     33 H          -0.5579    5.1075    4.9550 H       1  LIG1        0.1141
     34 H           2.9113    3.1741    6.5962 H       1  LIG1        0.1143
     35 H           0.2252    6.0870    0.1131 H       1  LIG1        0.1219
     36 H           4.2827    5.2867   -1.0924 H       1  LIG1        0.1197
     37 H           0.7928    5.9283    3.0532 H       1  LIG1        0.1152
     38 H           4.2705    3.9900    4.6988 H       1  LIG1        0.1245
     39 H           0.1189    7.9591   -1.4866 H       1  LIG1        0.1206
     40 H           4.1773    7.1621   -2.6905 H       1  LIG1        0.1186
     41 H           3.2591    0.9293   -1.3920 H       1  LIG1        0.1466
     42 H           1.6064   -0.6137   -2.3503 H       1  LIG1        0.1524
     43 H           0.0971    3.5146   -0.0423 H       1  LIG1        0.1419
     44 H           1.3825    4.3154    1.1261 H       1  LIG1        0.1877
     45 H           6.9842    4.8830    1.8647 H       1  LIG1        0.0802
     46 H           6.7269    3.9486    0.3759 H       1  LIG1        0.0940
     47 H           7.6541    3.2470    1.7395 H       1  LIG1        0.0939
     48 H           1.9188   10.3806   -1.6579 H       1  LIG1        0.0346
     49 H           2.4178   10.9584   -3.2571 H       1  LIG1        0.0340
     50 H           3.5703   10.0917   -2.2271 H       1  LIG1        0.0369
     51 H           2.7023    8.6052   -4.0430 H       1  LIG1        0.0607
     52 H           1.0521    8.9300   -3.5516 H       1  LIG1        0.0613
     53 H           3.0565    6.4666    2.2312 H       1  LIG1        0.1510
     54 H           4.4839    5.6749    2.9004 H       1  LIG1        0.1330
@<TRIPOS>BOND
     1     1     2   ar
     2     1     3   ar
     3     2     6   ar
     4     3     7   ar
     5     4     8   ar
     6     4    13   ar
     7     5     9   ar
     8     5    13   ar
     9     6    15   ar
    10     7    15   ar
    11     8    14   ar
    12     9    14   ar
    13    10    11   ar
    14    10    16   ar
    15    11    17   ar
    16    12    16   ar
    17    12    18   ar
    18    13    21    1
    19    14    24    1
    20    15    25    1
    21    16    27    1
    22    17    18   ar
    23    17    30    1
    24    18    31    1
    25    19    20    1
    26    19    26    2
    27    19    28    1
    28    20    22    1
    29    20    29    2
    30    21    27    1
    31    21    28    1
    32    23    24    1
    33    25    28    1
    34    26    27    1
    35     1    32    1
    36     2    33    1
    37     3    34    1
    38     4    35    1
    39     5    36    1
    40     6    37    1
    41     7    38    1
    42     8    39    1
    43     9    40    1
    44    10    41    1
    45    11    42    1
    46    12    43    1
    47    21    44    1
    48    22    45    1
    49    22    46    1
    50    22    47    1
    51    23    48    1
    52    23    49    1
    53    23    50    1
    54    24    51    1
    55    24    52    1
    56    25    53    1
    57    25    54    1
