@<TRIPOS>MOLECULE
AP-836/41220125
 38 41 0 0 0
SMALL
USER_CHARGES

@<TRIPOS>ATOM
      1 C           0.3636    0.5447   -1.7497 C.ar    1  LIG1       -0.1011
      2 C           2.1891    4.3309    6.2906 C.ar    1  LIG1       -0.0934
      3 C           0.9109    4.7022    5.8994 C.ar    1  LIG1       -0.0967
      4 C           1.7412    0.7054   -1.6017 C.ar    1  LIG1       -0.1007
      5 C          -0.4995    1.5915   -1.4258 C.ar    1  LIG1       -0.1017
      6 C           3.1499    4.0455    5.3245 C.ar    1  LIG1       -0.0831
      7 C           0.5948    4.7947    4.5418 C.ar    1  LIG1       -0.0911
      8 C           3.8270    3.8226    3.0048 C.ar    1  LIG1       -0.0770
      9 C           2.2558    1.9130   -1.1297 C.ar    1  LIG1       -0.1010
     10 C           0.0150    2.7990   -0.9537 C.ar    1  LIG1       -0.1029
     11 C           3.5437    3.8765    1.6435 C.ar    1  LIG1       -0.0860
     12 C           2.8464    4.1309    3.9553 C.ar    1  LIG1       -0.0710
     13 C           1.5493    4.5214    3.5337 C.ar    1  LIG1       -0.0812
     14 C           1.3927    2.9598   -0.8058 C.ar    1  LIG1       -0.1044
     15 C           2.2735    4.2541    1.1994 C.ar    1  LIG1       -0.0958
     16 C           1.2818    4.6098    2.1370 C.ar    1  LIG1       -0.1079
     17 C          -0.0645    5.0094    1.5919 C.3     1  LIG1       -0.0788
     18 C           1.1597    5.5570   -0.6046 C.3     1  LIG1       -0.0851
     19 C           1.9551    4.2818   -0.2887 C.3     1  LIG1       -0.0317
     20 N          -0.0297    5.7485    0.2838 N.4     1  LIG1        0.4333
     21 H          -0.0368   -0.3951   -2.1185 H       1  LIG1        0.1245
     22 H           2.4403    4.2656    7.3449 H       1  LIG1        0.1274
     23 H           0.1547    4.9223    6.6478 H       1  LIG1        0.1292
     24 H           2.4136   -0.1091   -1.8549 H       1  LIG1        0.1232
     25 H          -1.5720    1.4670   -1.5420 H       1  LIG1        0.1213
     26 H           4.1469    3.7558    5.6525 H       1  LIG1        0.1352
     27 H          -0.4200    5.0896    4.2851 H       1  LIG1        0.1192
     28 H           4.8315    3.5412    3.3160 H       1  LIG1        0.1433
     29 H           3.3306    2.0292   -1.0174 H       1  LIG1        0.1220
     30 H          -0.6650    3.6090   -0.7037 H       1  LIG1        0.1156
     31 H           4.3241    3.6220    0.9325 H       1  LIG1        0.1283
     32 H          -0.6913    4.1332    1.3975 H       1  LIG1        0.1129
     33 H          -0.5720    5.6748    2.2998 H       1  LIG1        0.1114
     34 H           1.7862    6.4669   -0.4817 H       1  LIG1        0.1039
     35 H           0.7792    5.5709   -1.6484 H       1  LIG1        0.0982
     36 H           2.9567    4.4151   -0.8074 H       1  LIG1        0.1126
     37 H          -0.9001    5.5168   -0.2596 H       1  LIG1        0.1669
     38 H          -0.1507    6.7752    0.4761 H       1  LIG1        0.1627
@<TRIPOS>BOND
     1     1     4   ar
     2     1     5   ar
     3     2     3   ar
     4     2     6   ar
     5     3     7   ar
     6     4     9   ar
     7     5    10   ar
     8     6    12   ar
     9     7    13   ar
    10     8    11   ar
    11     8    12   ar
    12     9    14   ar
    13    10    14   ar
    14    11    15   ar
    15    12    13   ar
    16    13    16   ar
    17    14    19    1
    18    15    16   ar
    19    15    19    1
    20    16    17    1
    21    17    20    1
    22    18    19    1
    23    18    20    1
    24     1    21    1
    25     2    22    1
    26     3    23    1
    27     4    24    1
    28     5    25    1
    29     6    26    1
    30     7    27    1
    31     8    28    1
    32     9    29    1
    33    10    30    1
    34    11    31    1
    35    17    32    1
    36    17    33    1
    37    18    34    1
    38    18    35    1
    39    19    36    1
    40    20    37    1
    41    20    38    1
