@<TRIPOS>MOLECULE
AE-848/15342493
 49 52 0 0 0
SMALL
USER_CHARGES

@<TRIPOS>ATOM
      1 C           1.1961    4.9488    6.4151 C.ar    1  LIG1       -0.0979
      2 C           0.9544    6.7761   -2.1172 C.ar    1  LIG1       -0.0822
      3 C           0.7326    5.3736    5.1699 C.ar    1  LIG1       -0.0930
      4 C           2.3426    4.1588    6.5001 C.ar    1  LIG1       -0.0954
      5 C           0.6880    0.7652   -2.2235 C.ar    1  LIG1       -0.1073
      6 C           1.9691    1.2695   -2.0002 C.ar    1  LIG1       -0.1022
      7 C           2.1175    7.3831   -2.5813 C.ar    1  LIG1       -0.0823
      8 C           1.0031    5.8980   -1.0283 C.ar    1  LIG1       -0.0632
      9 C           1.4155    5.0083    4.0098 C.ar    1  LIG1       -0.0745
     10 C           3.0255    3.7935    5.3400 C.ar    1  LIG1       -0.0760
     11 C          -0.3847    1.2218   -1.4576 C.ar    1  LIG1       -0.1002
     12 C           2.1777    2.2306   -1.0110 C.ar    1  LIG1       -0.0735
     13 C           3.3289    7.1244   -1.9501 C.ar    1  LIG1        0.0028
     14 C           2.2165    5.6013   -0.3820 C.ar    1  LIG1        0.0491
     15 C           2.5620    4.2182    4.0948 C.ar    1  LIG1        0.0122
     16 C          -0.1760    2.1829   -0.4684 C.ar    1  LIG1       -0.0839
     17 C           1.1051    2.6873   -0.2451 C.ar    1  LIG1       -0.0688
     18 C           3.3592    6.2427   -0.8672 C.ar    1  LIG1        0.3133
     19 C           2.2917    4.6332    0.7544 C.2     1  LIG1        0.0022
     20 C           3.2559    4.7346    1.7003 C.2     1  LIG1        0.1382
     21 C           3.2879    3.8300    2.8615 C.2     1  LIG1        0.1475
     22 C          -1.3431    2.6540    0.3369 C.3     1  LIG1       -0.0401
     23 C           5.2434    5.9643    2.6890 C.3     1  LIG1        0.0549
     24 N           4.2599    5.7681    1.5937 N.pl3   1  LIG1       -0.1071
     25 N           1.3318    3.6471    0.7383 N.pl3   1  LIG1       -0.3655
     26 O           3.9231    2.7814    2.8121 O.2     1  LIG1       -0.4291
     27 O           5.4646    4.7899   -0.5009 O.2     1  LIG1       -0.0759
     28 O           5.5776    7.2740   -0.0419 O.2     1  LIG1       -0.0759
     29 S           4.8647    6.0110   -0.0009 S.O2    1  LIG1       -0.0208
     30 H           0.6644    5.2332    7.3183 H       1  LIG1        0.1276
     31 H           0.0046    6.9817   -2.6030 H       1  LIG1        0.1404
     32 H          -0.1601    5.9886    5.1039 H       1  LIG1        0.1218
     33 H           2.7037    3.8284    7.4697 H       1  LIG1        0.1199
     34 H           0.5258    0.0168   -2.9937 H       1  LIG1        0.1068
     35 H           2.8042    0.9138   -2.5966 H       1  LIG1        0.1212
     36 H           2.0805    8.0464   -3.4401 H       1  LIG1        0.1325
     37 H           0.0677    5.4450   -0.7072 H       1  LIG1        0.1390
     38 H           1.0457    5.3449    3.0447 H       1  LIG1        0.1352
     39 H           3.9178    3.1776    5.4182 H       1  LIG1        0.1370
     40 H          -1.3789    0.8225   -1.6395 H       1  LIG1        0.1231
     41 H           3.1806    2.6162   -0.8461 H       1  LIG1        0.1149
     42 H           4.2311    7.6081   -2.3120 H       1  LIG1        0.1500
     43 H          -1.4658    2.0287    1.2285 H       1  LIG1        0.0541
     44 H          -1.2099    3.6952    0.6552 H       1  LIG1        0.0559
     45 H          -2.2697    2.6147   -0.2487 H       1  LIG1        0.0470
     46 H           5.9233    6.7837    2.4412 H       1  LIG1        0.0945
     47 H           5.8297    5.0535    2.8383 H       1  LIG1        0.1143
     48 H           4.7270    6.2056    3.6220 H       1  LIG1        0.1140
     49 H           0.7353    3.6410    1.5468 H       1  LIG1        0.3106
@<TRIPOS>BOND
     1     1     3   ar
     2     1     4   ar
     3     2     7   ar
     4     2     8   ar
     5     3     9   ar
     6     4    10   ar
     7     5     6   ar
     8     5    11   ar
     9     6    12   ar
    10     7    13   ar
    11     8    14   ar
    12     9    15   ar
    13    10    15   ar
    14    11    16   ar
    15    12    17   ar
    16    13    18   ar
    17    14    18   ar
    18    14    19    1
    19    15    21    1
    20    16    17   ar
    21    16    22    1
    22    17    25    1
    23    18    29    1
    24    19    20    2
    25    19    25    1
    26    20    21    1
    27    20    24    1
    28    21    26    2
    29    23    24    1
    30    24    29    1
    31    27    29    2
    32    28    29    2
    33     1    30    1
    34     2    31    1
    35     3    32    1
    36     4    33    1
    37     5    34    1
    38     6    35    1
    39     7    36    1
    40     8    37    1
    41     9    38    1
    42    10    39    1
    43    11    40    1
    44    12    41    1
    45    13    42    1
    46    22    43    1
    47    22    44    1
    48    22    45    1
    49    23    46    1
    50    23    47    1
    51    23    48    1
    52    25    49    1
