@<TRIPOS>MOLECULE
AG-690/36166055
 37 39 0 0 0
SMALL
USER_CHARGES

@<TRIPOS>ATOM
      1 C           0.9771    4.8635    3.9078 C.ar    1  LIG1       -0.0553
      2 C           3.2263    4.3608    4.6326 C.ar    1  LIG1       -0.0545
      3 C           1.3531    6.0534   -0.4097 C.ar    1  LIG1       -0.0735
      4 C           3.0819    5.5143   -2.0090 C.ar    1  LIG1       -0.0775
      5 C           0.5296    4.7609    5.2249 C.ar    1  LIG1       -0.0649
      6 C           2.7789    4.2582    5.9498 C.ar    1  LIG1       -0.0613
      7 C           1.1112    7.2546   -1.0762 C.ar    1  LIG1       -0.0740
      8 C           2.8399    6.7155   -2.6756 C.ar    1  LIG1       -0.0754
      9 C           2.3254    4.6635    3.6116 C.ar    1  LIG1        0.0448
     10 C           2.3386    5.1833   -0.8761 C.ar    1  LIG1       -0.0407
     11 C           1.4305    4.4583    6.2459 C.ar    1  LIG1       -0.0091
     12 C           1.8545    7.5856   -2.2091 C.ar    1  LIG1       -0.0360
     13 C           1.1388    2.2241    0.5730 C.2     1  LIG1        0.1446
     14 C           2.7992    4.7723    2.2180 C.2     1  LIG1        0.1725
     15 C           1.7381    2.7385   -0.7012 C.3     1  LIG1        0.0820
     16 C           2.6024    3.8740   -0.1497 C.3     1  LIG1        0.0851
     17 C           0.2504    1.0254    0.5722 C.3     1  LIG1        0.4023
     18 N           1.4187    2.8890    1.6480 N.2     1  LIG1       -0.2744
     19 N           2.2488    3.9099    1.2794 N.am    1  LIG1       -0.2176
     20 O           3.6561    5.6205    1.9761 O.2     1  LIG1       -0.4372
     21 O           3.9733    3.4876   -0.2380 O.3     1  LIG1       -0.4365
     22 F           0.0979    0.5320   -0.6756 F       1  LIG1       -0.1600
     23 F           0.7580    0.0393    1.3429 F       1  LIG1       -0.1595
     24 F          -0.9784    1.3235    1.0471 F       1  LIG1       -0.1592
     25 CL          0.8789    4.3331    7.8709 Cl      1  LIG1       -0.1316
     26 BR          1.5263    9.2135   -3.1112 Br      1  LIG1       -0.1042
     27 H           0.2664    5.0993    3.1199 H       1  LIG1        0.1685
     28 H           4.2791    4.2033    4.4134 H       1  LIG1        0.1538
     29 H           0.7690    5.8036    0.4721 H       1  LIG1        0.1426
     30 H           3.8523    4.8430   -2.3791 H       1  LIG1        0.1274
     31 H          -0.5237    4.9198    5.4415 H       1  LIG1        0.1366
     32 H           3.4924    4.0215    6.7349 H       1  LIG1        0.1382
     33 H           0.3403    7.9219   -0.6990 H       1  LIG1        0.1400
     34 H           3.4276    6.9585   -3.5568 H       1  LIG1        0.1381
     35 H           2.3143    1.9489   -1.1919 H       1  LIG1        0.1336
     36 H           0.9250    3.0735   -1.3534 H       1  LIG1        0.1369
     37 H           4.4933    4.1992    0.1702 H       1  LIG1        0.3558
@<TRIPOS>BOND
     1     1     5   ar
     2     1     9   ar
     3     2     6   ar
     4     2     9   ar
     5     3     7   ar
     6     3    10   ar
     7     4     8   ar
     8     4    10   ar
     9     5    11   ar
    10     6    11   ar
    11     7    12   ar
    12     8    12   ar
    13     9    14    1
    14    10    16    1
    15    11    25    1
    16    12    26    1
    17    13    15    1
    18    13    17    1
    19    13    18    2
    20    14    19   am
    21    14    20    2
    22    15    16    1
    23    16    19    1
    24    16    21    1
    25    17    22    1
    26    17    23    1
    27    17    24    1
    28    18    19    1
    29     1    27    1
    30     2    28    1
    31     3    29    1
    32     4    30    1
    33     5    31    1
    34     6    32    1
    35     7    33    1
    36     8    34    1
    37    15    35    1
    38    15    36    1
    39    21    37    1
