@<TRIPOS>MOLECULE
AB-337/13036028
 32 33 0 0 0
SMALL
USER_CHARGES

@<TRIPOS>ATOM
      1 C           0.9408    4.8511    6.3910 C.ar    1  LIG1       -0.1057
      2 C           1.6690    7.4862   -2.3653 C.ar    1  LIG1       -0.0958
      3 C           2.2959    4.5685    6.5617 C.ar    1  LIG1       -0.1037
      4 C           0.3793    4.8298    5.1142 C.ar    1  LIG1       -0.1027
      5 C           2.9751    6.9974   -2.3919 C.ar    1  LIG1       -0.0930
      6 C           0.7357    6.9352   -1.4872 C.ar    1  LIG1       -0.0932
      7 C           3.0897    4.2647    5.4558 C.ar    1  LIG1       -0.0982
      8 C           1.1732    4.5260    4.0082 C.ar    1  LIG1       -0.0976
      9 C           3.3479    5.9574   -1.5403 C.ar    1  LIG1       -0.0239
     10 C           1.1085    5.8952   -0.6357 C.ar    1  LIG1       -0.0242
     11 C           2.5284    4.2434    4.1789 C.ar    1  LIG1       -0.0982
     12 C           2.4147    5.4063   -0.6623 C.ar    1  LIG1        0.2323
     13 C           3.9959    2.7327    2.9347 C.2     1  LIG1       -0.1079
     14 C           3.3557    3.9267    3.0253 C.2     1  LIG1       -0.0299
     15 C           3.4549    4.9041    1.8715 C.3     1  LIG1        0.2404
     16 O           1.6775    3.3474    0.7348 O.2     1  LIG1       -0.1416
     17 O           4.0223    3.4051   -0.1840 O.2     1  LIG1       -0.1416
     18 S           2.8869    4.0858    0.4146 S.O2    1  LIG1       -0.1278
     19 H           0.3225    5.0864    7.2522 H       1  LIG1        0.1176
     20 H           1.3777    8.2956   -3.0286 H       1  LIG1        0.1347
     21 H           2.7331    4.5839    7.5559 H       1  LIG1        0.1174
     22 H          -0.6761    5.0487    4.9813 H       1  LIG1        0.1197
     23 H           3.7017    7.4254   -3.0761 H       1  LIG1        0.1236
     24 H          -0.2813    7.3155   -1.4673 H       1  LIG1        0.1235
     25 H           4.1447    4.0466    5.6048 H       1  LIG1        0.1212
     26 H           0.7209    4.5134    3.0194 H       1  LIG1        0.1220
     27 H           4.3679    5.5834   -1.5697 H       1  LIG1        0.1452
     28 H           0.3731    5.4725    0.0433 H       1  LIG1        0.1446
     29 H           4.5995    2.4675    2.0722 H       1  LIG1        0.1080
     30 H           3.9220    1.9898    3.7225 H       1  LIG1        0.1068
     31 H           4.4762    5.2473    1.6927 H       1  LIG1        0.1922
     32 H           2.8205    5.7875    1.9983 H       1  LIG1        0.1913
@<TRIPOS>BOND
     1     1     3   ar
     2     1     4   ar
     3     2     5   ar
     4     2     6   ar
     5     3     7   ar
     6     4     8   ar
     7     5     9   ar
     8     6    10   ar
     9     7    11   ar
    10     8    11   ar
    11     9    12   ar
    12    10    12   ar
    13    11    14    1
    14    12    18    1
    15    13    14    2
    16    14    15    1
    17    15    18    1
    18    16    18    2
    19    17    18    2
    20     1    19    1
    21     2    20    1
    22     3    21    1
    23     4    22    1
    24     5    23    1
    25     6    24    1
    26     7    25    1
    27     8    26    1
    28     9    27    1
    29    10    28    1
    30    13    29    1
    31    13    30    1
    32    15    31    1
    33    15    32    1
