@<TRIPOS>MOLECULE
AH-357/03397006
 33 34 0 0 0
SMALL
USER_CHARGES

@<TRIPOS>ATOM
      1 C           1.8146    7.2600   -2.8249 C.ar    1  LIG1       -0.1019
      2 C           1.2085    4.4604    6.6262 C.ar    1  LIG1       -0.1108
      3 C           0.8876    6.8888   -1.8510 C.ar    1  LIG1       -0.0999
      4 C           3.1079    6.7383   -2.7918 C.ar    1  LIG1       -0.0979
      5 C           0.4516    4.2834    5.4681 C.ar    1  LIG1       -0.1091
      6 C           2.5981    4.5508    6.5441 C.ar    1  LIG1       -0.1089
      7 C           1.2539    5.9960   -0.8438 C.ar    1  LIG1       -0.0850
      8 C           3.4742    5.8456   -1.7846 C.ar    1  LIG1       -0.0821
      9 C           1.0840    4.1967    4.2279 C.ar    1  LIG1       -0.1054
     10 C           3.2305    4.4641    5.3040 C.ar    1  LIG1       -0.1051
     11 C           2.5473    5.4744   -0.8106 C.ar    1  LIG1       -0.0154
     12 C           2.4736    4.2871    4.1458 C.ar    1  LIG1       -0.1134
     13 C           2.9382    4.5214    0.2646 C.2     1  LIG1        0.0730
     14 C           4.4616    5.0088    2.7955 C.3     1  LIG1       -0.0586
     15 C           2.2614    4.6394    1.6252 C.3     1  LIG1        0.0366
     16 C           3.1639    4.1924    2.7940 C.3     1  LIG1       -0.0327
     17 O           3.7767    3.6578    0.0190 O.2     1  LIG1       -0.4611
     18 H           1.5294    7.9551   -3.6091 H       1  LIG1        0.1253
     19 H           0.7157    4.5292    7.5915 H       1  LIG1        0.1116
     20 H          -0.1192    7.2952   -1.8769 H       1  LIG1        0.1190
     21 H           3.8296    7.0272   -3.5503 H       1  LIG1        0.1196
     22 H          -0.6305    4.2140    5.5316 H       1  LIG1        0.1134
     23 H           3.1876    4.6897    7.4455 H       1  LIG1        0.1139
     24 H           0.5238    5.7135   -0.0898 H       1  LIG1        0.1316
     25 H           4.4847    5.4455   -1.7684 H       1  LIG1        0.1362
     26 H           0.4861    4.0585    3.3308 H       1  LIG1        0.1146
     27 H           4.3136    4.5355    5.2496 H       1  LIG1        0.1155
     28 H           4.2731    6.0750    2.9631 H       1  LIG1        0.0474
     29 H           4.9892    4.9090    1.8403 H       1  LIG1        0.0328
     30 H           5.1349    4.6611    3.5865 H       1  LIG1        0.0364
     31 H           1.3702    4.0004    1.5938 H       1  LIG1        0.0881
     32 H           1.9350    5.6738    1.7795 H       1  LIG1        0.0948
     33 H           3.4477    3.1454    2.6206 H       1  LIG1        0.0771
@<TRIPOS>BOND
     1     1     3   ar
     2     1     4   ar
     3     2     5   ar
     4     2     6   ar
     5     3     7   ar
     6     4     8   ar
     7     5     9   ar
     8     6    10   ar
     9     7    11   ar
    10     8    11   ar
    11     9    12   ar
    12    10    12   ar
    13    11    13    1
    14    12    16    1
    15    13    15    1
    16    13    17    2
    17    14    16    1
    18    15    16    1
    19     1    18    1
    20     2    19    1
    21     3    20    1
    22     4    21    1
    23     5    22    1
    24     6    23    1
    25     7    24    1
    26     8    25    1
    27     9    26    1
    28    10    27    1
    29    14    28    1
    30    14    29    1
    31    14    30    1
    32    15    31    1
    33    15    32    1
    34    16    33    1
