@<TRIPOS>MOLECULE
AG-690/10493028
 35 38 0 0 0
SMALL
USER_CHARGES

@<TRIPOS>ATOM
      1 C           3.2241    6.5724   -2.6366 C.ar    1  LIG1       -0.0853
      2 C           0.8619    4.4517    5.9417 C.ar    1  LIG1       -0.1032
      3 C          -0.2513    1.8115   -1.2448 C.ar    1  LIG1       -0.1128
      4 C           3.3819    5.7386   -1.5296 C.ar    1  LIG1       -0.0469
      5 C           2.0268    7.2632   -2.8244 C.ar    1  LIG1       -0.0833
      6 C           0.7588    4.4777    4.5209 C.ar    1  LIG1       -0.0849
      7 C           0.4123    2.8223   -0.4911 C.ar    1  LIG1       -0.1075
      8 C           1.1453    6.2861   -0.7983 C.ar    1  LIG1       -0.0361
      9 C           2.1468    4.1882    6.3627 C.ar    1  LIG1       -0.0423
     10 C           0.6044    0.7983   -1.6176 C.ar    1  LIG1       -0.0530
     11 C           2.3425    5.5954   -0.6104 C.ar    1  LIG1       -0.0130
     12 C           0.9874    7.1200   -1.9053 C.ar    1  LIG1       -0.0351
     13 C           1.9693    4.2333    3.9098 C.ar    1  LIG1        0.0100
     14 C           1.7500    2.5430   -0.3162 C.ar    1  LIG1       -0.0387
     15 C           2.2714    4.1773    2.5245 C.2     1  LIG1        0.0231
     16 C           2.8308    2.9360    1.8819 C.3     1  LIG1        0.0400
     17 C           2.7737    3.3403    0.4063 C.3     1  LIG1        0.0337
     18 N           2.1205    5.1849    1.7214 N.2     1  LIG1       -0.3099
     19 N           2.5026    4.7522    0.5087 N.pl3   1  LIG1       -0.3125
     20 S           3.2224    3.9737    5.0476 S.2     1  LIG1       -0.1128
     21 S           2.2007    1.0676   -1.0594 S.2     1  LIG1       -0.1417
     22 BR         -0.6344    8.0562   -2.1606 Br      1  LIG1       -0.1052
     23 H           4.0334    6.6838   -3.3523 H       1  LIG1        0.1355
     24 H           0.0352    4.6166    6.6204 H       1  LIG1        0.1168
     25 H          -1.3027    1.8256   -1.5004 H       1  LIG1        0.1127
     26 H           4.3191    5.2051   -1.3930 H       1  LIG1        0.1368
     27 H           1.9203    7.9088   -3.6923 H       1  LIG1        0.1244
     28 H          -0.1595    4.6670    3.9794 H       1  LIG1        0.1311
     29 H          -0.0720    3.7071   -0.0978 H       1  LIG1        0.1170
     30 H           0.3380    6.1708   -0.0783 H       1  LIG1        0.1346
     31 H           2.5048    4.1107    7.3796 H       1  LIG1        0.1707
     32 H           0.3687   -0.0868   -2.1913 H       1  LIG1        0.1645
     33 H           3.8638    2.8037    2.2216 H       1  LIG1        0.1069
     34 H           2.2431    2.0507    2.1418 H       1  LIG1        0.1091
     35 H           3.7464    3.1635   -0.0674 H       1  LIG1        0.1572
@<TRIPOS>BOND
     1     1     4   ar
     2     1     5   ar
     3     2     6   ar
     4     2     9   ar
     5     3     7   ar
     6     3    10   ar
     7     4    11   ar
     8     5    12   ar
     9     6    13   ar
    10     7    14   ar
    11     8    11   ar
    12     8    12   ar
    13     9    20   ar
    14    10    21   ar
    15    11    19    1
    16    12    22    1
    17    13    15    1
    18    13    20   ar
    19    14    17    1
    20    14    21   ar
    21    15    16    1
    22    15    18    2
    23    16    17    1
    24    17    19    1
    25    18    19    1
    26     1    23    1
    27     2    24    1
    28     3    25    1
    29     4    26    1
    30     5    27    1
    31     6    28    1
    32     7    29    1
    33     8    30    1
    34     9    31    1
    35    10    32    1
    36    16    33    1
    37    16    34    1
    38    17    35    1
