@<TRIPOS>MOLECULE
AE-848/31926022
 55 59 0 0 0
SMALL
USER_CHARGES

@<TRIPOS>ATOM
      1 C           0.3374    0.5928   -2.2368 C.ar    1  LIG1       -0.1078
      2 C           2.1785    7.5451   -1.9841 C.ar    1  LIG1       -0.1059
      3 C           1.4402    0.3389   -1.4215 C.ar    1  LIG1       -0.1061
      4 C          -0.2078    1.8756   -2.2931 C.ar    1  LIG1       -0.1027
      5 C           3.1624    6.5852   -2.2209 C.ar    1  LIG1       -0.1046
      6 C           1.1570    7.2862   -1.0700 C.ar    1  LIG1       -0.1045
      7 C           1.9981    1.3676   -0.6624 C.ar    1  LIG1       -0.0969
      8 C           0.3499    2.9043   -1.5340 C.ar    1  LIG1       -0.0922
      9 C           3.1248    5.3663   -1.5437 C.ar    1  LIG1       -0.0989
     10 C           1.1196    6.0673   -0.3929 C.ar    1  LIG1       -0.0988
     11 C           0.9030    4.8830    4.2936 C.ar    1  LIG1       -0.0439
     12 C           3.1573    4.2683    4.7867 C.ar    1  LIG1       -0.0440
     13 C           1.4529    2.6504   -0.7187 C.ar    1  LIG1       -0.0686
     14 C           2.1035    5.1073   -0.6297 C.ar    1  LIG1       -0.0753
     15 C           2.1421    4.4786    3.8445 C.ar    1  LIG1       -0.0355
     16 C           0.7016    5.0446    5.6565 C.ar    1  LIG1       -0.0470
     17 C           2.8537    4.4481    6.1507 C.ar    1  LIG1       -0.0448
     18 C           1.4228    3.8802    1.5038 C.2     1  LIG1        0.1143
     19 C          -0.3458    5.1471    3.5221 C.3     1  LIG1       -0.0285
     20 C           4.5097    3.7914    4.3266 C.3     1  LIG1       -0.0356
     21 C          -0.7205    5.4336    5.9420 C.3     1  LIG1       -0.0098
     22 C           3.9111    4.2657    7.2088 C.3     1  LIG1       -0.0099
     23 C          -1.1706    5.9272    4.5589 C.3     1  LIG1       -0.0429
     24 C           5.5976    3.9449    5.3879 C.3     1  LIG1       -0.0606
     25 C           5.1034    3.4375    6.7370 C.3     1  LIG1       -0.0517
     26 C           2.0617    3.7749    0.1107 C.3     1  LIG1        0.0871
     27 N           1.6319    4.8401    6.6019 N.ar    1  LIG1       -0.4015
     28 N           2.3538    4.2778    2.4782 N.am    1  LIG1       -0.3028
     29 O           0.2343    3.6374    1.6943 O.2     1  LIG1       -0.4606
     30 H          -0.0961   -0.2081   -2.8288 H       1  LIG1        0.1146
     31 H           2.2086    8.4947   -2.5104 H       1  LIG1        0.1172
     32 H           1.8655   -0.6596   -1.3784 H       1  LIG1        0.1146
     33 H          -1.0658    2.0739   -2.9285 H       1  LIG1        0.1147
     34 H           3.9584    6.7871   -2.9317 H       1  LIG1        0.1172
     35 H           0.3915    8.0337   -0.8846 H       1  LIG1        0.1181
     36 H           2.8572    1.1605   -0.0299 H       1  LIG1        0.1177
     37 H          -0.0815    3.9005   -1.5840 H       1  LIG1        0.1237
     38 H           3.8956    4.6241   -1.7347 H       1  LIG1        0.1195
     39 H           0.3200    5.8742    0.3173 H       1  LIG1        0.1202
     40 H          -0.1745    5.7470    2.6242 H       1  LIG1        0.0576
     41 H          -0.8355    4.2043    3.2571 H       1  LIG1        0.0946
     42 H           4.4235    2.7322    4.0529 H       1  LIG1        0.0634
     43 H           4.8285    4.3429    3.4343 H       1  LIG1        0.0648
     44 H          -1.2910    4.5532    6.2547 H       1  LIG1        0.0840
     45 H          -0.7925    6.2181    6.6997 H       1  LIG1        0.0877
     46 H           4.2568    5.2617    7.5116 H       1  LIG1        0.0861
     47 H           3.4687    3.7908    8.0923 H       1  LIG1        0.0846
     48 H          -0.9414    6.9982    4.4680 H       1  LIG1        0.0522
     49 H          -2.2483    5.8152    4.4055 H       1  LIG1        0.0598
     50 H           6.4925    3.3924    5.0807 H       1  LIG1        0.0469
     51 H           5.8855    5.0002    5.4770 H       1  LIG1        0.0501
     52 H           5.9073    3.4939    7.4793 H       1  LIG1        0.0480
     53 H           4.8166    2.3817    6.6513 H       1  LIG1        0.0537
     54 H           3.1116    3.4995    0.2980 H       1  LIG1        0.1428
     55 H           3.3070    4.4495    2.1407 H       1  LIG1        0.3261
@<TRIPOS>BOND
     1     1     3   ar
     2     1     4   ar
     3     2     5   ar
     4     2     6   ar
     5     3     7   ar
     6     4     8   ar
     7     5     9   ar
     8     6    10   ar
     9     7    13   ar
    10     8    13   ar
    11     9    14   ar
    12    10    14   ar
    13    11    15   ar
    14    11    16   ar
    15    11    19    1
    16    12    15   ar
    17    12    17   ar
    18    12    20    1
    19    13    26    1
    20    14    26    1
    21    15    28    1
    22    16    21    1
    23    16    27   ar
    24    17    22    1
    25    17    27   ar
    26    18    26    1
    27    18    28   am
    28    18    29    2
    29    19    23    1
    30    20    24    1
    31    21    23    1
    32    22    25    1
    33    24    25    1
    34     1    30    1
    35     2    31    1
    36     3    32    1
    37     4    33    1
    38     5    34    1
    39     6    35    1
    40     7    36    1
    41     8    37    1
    42     9    38    1
    43    10    39    1
    44    19    40    1
    45    19    41    1
    46    20    42    1
    47    20    43    1
    48    21    44    1
    49    21    45    1
    50    22    46    1
    51    22    47    1
    52    23    48    1
    53    23    49    1
    54    24    50    1
    55    24    51    1
    56    25    52    1
    57    25    53    1
    58    26    54    1
    59    28    55    1
