@<TRIPOS>MOLECULE
AG-690/11634823
 44 46 0 0 0
SMALL
USER_CHARGES

@<TRIPOS>ATOM
      1 C           0.9763    0.4415   -1.9197 C.ar    1  LIG1       -0.1056
      2 C           2.8085    7.4088   -2.0689 C.ar    1  LIG1       -0.1077
      3 C           2.0593    1.3191   -1.9718 C.ar    1  LIG1       -0.1048
      4 C          -0.1841    0.8056   -1.2367 C.ar    1  LIG1       -0.1023
      5 C           1.4970    7.0858   -2.4170 C.ar    1  LIG1       -0.1060
      6 C           3.4485    6.7152   -1.0417 C.ar    1  LIG1       -0.1038
      7 C           0.5423    4.9872    4.9064 C.ar    1  LIG1       -0.0519
      8 C           1.9819    2.5607   -1.3410 C.ar    1  LIG1       -0.0957
      9 C          -0.2615    2.0472   -0.6058 C.ar    1  LIG1       -0.0916
     10 C           0.8255    6.0692   -1.7378 C.ar    1  LIG1       -0.0954
     11 C           2.7769    5.6987   -0.3625 C.ar    1  LIG1       -0.0924
     12 C           1.1134    4.7954    6.1644 C.ar    1  LIG1       -0.0689
     13 C           2.6093    4.2976    3.8629 C.ar    1  LIG1       -0.0059
     14 C           1.2903    4.7383    3.7556 C.ar    1  LIG1        0.0463
     15 C           0.8214    2.9248   -0.6579 C.ar    1  LIG1       -0.0740
     16 C           1.4654    5.3756   -0.7106 C.ar    1  LIG1       -0.0733
     17 C           2.4324    4.3546    6.2717 C.ar    1  LIG1       -0.0570
     18 C           3.1804    4.1057    5.1209 C.ar    1  LIG1        0.0785
     19 C           0.6951    4.9381    2.4438 C.2     1  LIG1        0.1143
     20 C           3.0144    4.1596    7.6346 C.3     1  LIG1       -0.0198
     21 C           0.7368    4.2721    0.0273 C.3     1  LIG1        0.0149
     22 N           1.2065    4.1712    1.3904 N.am    1  LIG1       -0.3256
     23 N           4.5272    3.6564    5.2070 N.pl3   1  LIG1       -0.0460
     24 O           5.4479    4.5065    5.2442 O.2     1  LIG1       -0.1530
     25 O          -0.2124    5.7734    2.2829 O.2     1  LIG1       -0.4685
     26 O           4.7534    2.4240    5.2431 O.2     1  LIG1       -0.2468
     27 H           1.0363   -0.5247   -2.4121 H       1  LIG1        0.1174
     28 H           3.3317    8.1994   -2.5987 H       1  LIG1        0.1151
     29 H           2.9626    1.0362   -2.5045 H       1  LIG1        0.1179
     30 H          -1.0279    0.1231   -1.1967 H       1  LIG1        0.1198
     31 H           0.9988    7.6249   -3.2174 H       1  LIG1        0.1141
     32 H           4.4700    6.9657   -0.7712 H       1  LIG1        0.1172
     33 H          -0.4866    5.3311    4.8339 H       1  LIG1        0.1543
     34 H           2.8307    3.2380   -1.3867 H       1  LIG1        0.1135
     35 H          -1.1696    2.3224   -0.0758 H       1  LIG1        0.1231
     36 H          -0.1964    5.8245   -2.0157 H       1  LIG1        0.1136
     37 H           3.2835    5.1638    0.4364 H       1  LIG1        0.1214
     38 H           0.5213    4.9906    7.0548 H       1  LIG1        0.1467
     39 H           3.1898    4.1049    2.9627 H       1  LIG1        0.1880
     40 H           2.8360    3.1349    7.9793 H       1  LIG1        0.0754
     41 H           4.0949    4.3459    7.6332 H       1  LIG1        0.0806
     42 H           2.5704    4.8550    8.3570 H       1  LIG1        0.0633
     43 H          -0.3175    4.5633    0.1213 H       1  LIG1        0.1580
     44 H           1.9898    3.5500    1.5638 H       1  LIG1        0.3027
@<TRIPOS>BOND
     1     1     3   ar
     2     1     4   ar
     3     2     5   ar
     4     2     6   ar
     5     3     8   ar
     6     4     9   ar
     7     5    10   ar
     8     6    11   ar
     9     7    12   ar
    10     7    14   ar
    11     8    15   ar
    12     9    15   ar
    13    10    16   ar
    14    11    16   ar
    15    12    17   ar
    16    13    14   ar
    17    13    18   ar
    18    14    19    1
    19    15    21    1
    20    16    21    1
    21    17    18   ar
    22    17    20    1
    23    18    23    1
    24    19    22   am
    25    19    25    2
    26    21    22    1
    27    23    24    1
    28    23    26    2
    29     1    27    1
    30     2    28    1
    31     3    29    1
    32     4    30    1
    33     5    31    1
    34     6    32    1
    35     7    33    1
    36     8    34    1
    37     9    35    1
    38    10    36    1
    39    11    37    1
    40    12    38    1
    41    13    39    1
    42    20    40    1
    43    20    41    1
    44    20    42    1
    45    21    43    1
    46    22    44    1
