@<TRIPOS>MOLECULE
AE-641/02433003
 25 26 0 0 0
SMALL
USER_CHARGES

@<TRIPOS>ATOM
      1 C           1.3284    4.4265    6.6224 C.ar    1  LIG1       -0.1049
      2 C           0.4643    4.4490    5.5277 C.ar    1  LIG1       -0.1017
      3 C           2.7075    4.3683    6.4214 C.ar    1  LIG1       -0.1025
      4 C           1.5813    7.1766   -2.0858 C.ar    1  LIG1       -0.0848
      5 C           0.9793    4.4132    4.2318 C.ar    1  LIG1       -0.0932
      6 C           3.2225    4.3324    5.1255 C.ar    1  LIG1       -0.0943
      7 C           1.5513    6.5983   -0.7943 C.ar    1  LIG1       -0.0679
      8 C           2.5141    6.4635   -2.8022 C.ar    1  LIG1        0.0068
      9 C           2.3584    4.3549    4.0307 C.ar    1  LIG1       -0.0820
     10 C           2.4679    5.5727   -0.8138 C.ar    1  LIG1        0.0883
     11 C           2.8960    4.3174    2.6797 C.2     1  LIG1       -0.0674
     12 C           2.2354    4.7096    1.5671 C.2     1  LIG1        0.0010
     13 C           2.8857    4.6070    0.2310 C.2     1  LIG1        0.1251
     14 O           3.7206    3.7490   -0.0334 O.2     1  LIG1       -0.4421
     15 O           3.0590    5.4839   -2.0340 O.2     1  LIG1       -0.3688
     16 H           0.9275    4.4557    7.6313 H       1  LIG1        0.1201
     17 H          -0.6096    4.4956    5.6840 H       1  LIG1        0.1186
     18 H           3.3805    4.3520    7.2736 H       1  LIG1        0.1182
     19 H           0.9968    8.0096   -2.4487 H       1  LIG1        0.1204
     20 H           0.2931    4.4313    3.3885 H       1  LIG1        0.1278
     21 H           4.2999    4.2871    4.9851 H       1  LIG1        0.1262
     22 H           0.9368    6.8953    0.0436 H       1  LIG1        0.1425
     23 H           2.8860    6.5250   -3.8144 H       1  LIG1        0.2313
     24 H           3.9129    3.9223    2.5770 H       1  LIG1        0.1529
     25 H           1.2185    5.0800    1.6202 H       1  LIG1        0.1302
@<TRIPOS>BOND
     1     1     2   ar
     2     1     3   ar
     3     2     5   ar
     4     3     6   ar
     5     4     7   ar
     6     4     8   ar
     7     5     9   ar
     8     6     9   ar
     9     7    10   ar
    10     8    15   ar
    11     9    11    1
    12    10    13    1
    13    10    15   ar
    14    11    12    2
    15    12    13    1
    16    13    14    2
    17     1    16    1
    18     2    17    1
    19     3    18    1
    20     4    19    1
    21     5    20    1
    22     6    21    1
    23     7    22    1
    24     8    23    1
    25    11    24    1
    26    12    25    1
