@<TRIPOS>MOLECULE
AN-329/14594618
 51 54 0 0 0
SMALL
USER_CHARGES

@<TRIPOS>ATOM
      1 C           0.3581    0.5998   -1.9494 C.ar    1  LIG1       -0.1062
      2 C           2.1883    7.5794   -2.3699 C.ar    1  LIG1       -0.1083
      3 C           3.1598    3.1664   11.3870 C.ar    1  LIG1       -0.1104
      4 C           1.6890    0.9527   -2.1720 C.ar    1  LIG1       -0.1046
      5 C          -0.4265    1.3530   -1.0759 C.ar    1  LIG1       -0.1046
      6 C           1.0732    6.7438   -2.4318 C.ar    1  LIG1       -0.1025
      7 C           3.2538    7.2594   -1.5285 C.ar    1  LIG1       -0.1067
      8 C           2.6340    4.4573   11.4362 C.ar    1  LIG1       -0.1041
      9 C           3.0985    2.4329   10.2020 C.ar    1  LIG1       -0.1035
     10 C           2.2355    2.0586   -1.5209 C.ar    1  LIG1       -0.0984
     11 C           0.1200    2.4589   -0.4248 C.ar    1  LIG1       -0.0989
     12 C           1.0235    5.5881   -1.6522 C.ar    1  LIG1       -0.0918
     13 C           3.2041    6.1038   -0.7489 C.ar    1  LIG1       -0.0974
     14 C           2.0470    5.0151   10.3005 C.ar    1  LIG1       -0.0768
     15 C           2.5114    2.9907    9.0663 C.ar    1  LIG1       -0.0757
     16 C           0.5776    4.8216    5.6800 C.ar    1  LIG1       -0.0617
     17 C           2.9009    4.3372    6.1325 C.ar    1  LIG1       -0.0646
     18 C           0.8072    4.6474    4.3152 C.ar    1  LIG1       -0.0595
     19 C           3.1304    4.1629    4.7677 C.ar    1  LIG1       -0.0655
     20 C           1.4510    2.8118   -0.6474 C.ar    1  LIG1       -0.0747
     21 C           2.0890    5.2682   -0.8108 C.ar    1  LIG1       -0.0684
     22 C           1.9856    4.2817    9.1155 C.ar    1  LIG1       -0.0752
     23 C           1.6245    4.6665    6.5886 C.ar    1  LIG1       -0.0695
     24 C           2.0835    4.3180    3.8591 C.ar    1  LIG1       -0.0532
     25 C           1.3968    4.2668    1.4342 C.2     1  LIG1        0.1088
     26 C           2.0348    3.9943    0.0493 C.3     1  LIG1        0.0872
     27 N           1.3930    4.8445    7.9686 N.pl3   1  LIG1       -0.3803
     28 N           2.3163    4.1412    2.4744 N.am    1  LIG1       -0.3129
     29 O           0.2064    4.5498    1.5366 O.2     1  LIG1       -0.4687
     30 H          -0.0677   -0.2605   -2.4574 H       1  LIG1        0.1167
     31 H           2.2274    8.4785   -2.9780 H       1  LIG1        0.1142
     32 H           3.6168    2.7321   12.2716 H       1  LIG1        0.1060
     33 H           2.2997    0.3671   -2.8529 H       1  LIG1        0.1179
     34 H          -1.4631    1.0792   -0.9033 H       1  LIG1        0.1173
     35 H           0.2439    6.9922   -3.0878 H       1  LIG1        0.1146
     36 H           4.1226    7.9092   -1.4808 H       1  LIG1        0.1140
     37 H           2.6818    5.0280   12.3588 H       1  LIG1        0.1206
     38 H           3.5079    1.4276   10.1639 H       1  LIG1        0.1202
     39 H           3.2736    2.3261   -1.7002 H       1  LIG1        0.1208
     40 H          -0.4988    3.0397    0.2541 H       1  LIG1        0.1178
     41 H           0.1505    4.9430   -1.7068 H       1  LIG1        0.1236
     42 H           4.0389    5.8626   -0.0961 H       1  LIG1        0.1177
     43 H           1.6401    6.0218   10.3493 H       1  LIG1        0.1151
     44 H           2.4695    2.4098    8.1484 H       1  LIG1        0.1172
     45 H          -0.4208    5.0792    6.0241 H       1  LIG1        0.1259
     46 H           3.7239    4.2140    6.8318 H       1  LIG1        0.1269
     47 H          -0.0157    4.7718    3.6157 H       1  LIG1        0.1435
     48 H           4.1288    3.9074    4.4222 H       1  LIG1        0.1295
     49 H           3.0972    3.7718    0.2877 H       1  LIG1        0.1440
     50 H           0.6538    5.5101    8.1745 H       1  LIG1        0.3027
     51 H           3.2736    3.9025    2.2246 H       1  LIG1        0.3219
@<TRIPOS>BOND
     1     1     4   ar
     2     1     5   ar
     3     2     6   ar
     4     2     7   ar
     5     3     8   ar
     6     3     9   ar
     7     4    10   ar
     8     5    11   ar
     9     6    12   ar
    10     7    13   ar
    11     8    14   ar
    12     9    15   ar
    13    10    20   ar
    14    11    20   ar
    15    12    21   ar
    16    13    21   ar
    17    14    22   ar
    18    15    22   ar
    19    16    18   ar
    20    16    23   ar
    21    17    19   ar
    22    17    23   ar
    23    18    24   ar
    24    19    24   ar
    25    20    26    1
    26    21    26    1
    27    22    27    1
    28    23    27    1
    29    24    28    1
    30    25    26    1
    31    25    28   am
    32    25    29    2
    33     1    30    1
    34     2    31    1
    35     3    32    1
    36     4    33    1
    37     5    34    1
    38     6    35    1
    39     7    36    1
    40     8    37    1
    41     9    38    1
    42    10    39    1
    43    11    40    1
    44    12    41    1
    45    13    42    1
    46    14    43    1
    47    15    44    1
    48    16    45    1
    49    17    46    1
    50    18    47    1
    51    19    48    1
    52    26    49    1
    53    27    50    1
    54    28    51    1
