@<TRIPOS>MOLECULE
AM-760/12201013
 51 53 0 0 0
SMALL
USER_CHARGES

@<TRIPOS>ATOM
      1 C           1.3891    4.8642    6.1281 C.ar    1  LIG1       -0.0959
      2 C           2.1238    7.5076   -2.4687 C.ar    1  LIG1       -0.0950
      3 C           0.8615    5.2372    4.8920 C.ar    1  LIG1       -0.1012
      4 C           2.4930    4.0134    6.1873 C.ar    1  LIG1       -0.0939
      5 C           3.3193    7.1216   -1.8626 C.ar    1  LIG1       -0.0989
      6 C           0.9450    6.8161   -2.1893 C.ar    1  LIG1       -0.0949
      7 C           1.4376    4.7594    3.7150 C.ar    1  LIG1       -0.1073
      8 C           3.0690    3.5356    5.0103 C.ar    1  LIG1       -0.0953
      9 C           3.3361    6.0439   -0.9772 C.ar    1  LIG1       -0.1074
     10 C           0.9618    5.7385   -1.3039 C.ar    1  LIG1       -0.1007
     11 C           2.5413    3.9086    3.7740 C.ar    1  LIG1       -0.1219
     12 C           2.1573    5.3523   -0.6978 C.ar    1  LIG1       -0.1271
     13 C           2.5545    2.0657    2.0182 C.3     1  LIG1       -0.0398
     14 C           3.1675    3.3889    2.4959 C.3     1  LIG1       -0.0894
     15 C           2.1749    4.1787    0.2659 C.3     1  LIG1       -0.0862
     16 C           2.4462    2.8090   -0.4265 C.3     1  LIG1       -0.0493
     17 C           2.9332    1.7061    0.5719 C.3     1  LIG1       -0.0322
     18 C           4.4473    1.4788    0.4279 C.3     1  LIG1       -0.0425
     19 C           1.5650    1.3785   -2.2923 C.3     1  LIG1       -0.0663
     20 C           0.1497    1.8079   -0.2635 C.3     1  LIG1       -0.0683
     21 C           1.1914    2.3844   -1.2122 C.3     1  LIG1       -0.0657
     22 N           3.1770    4.3960    1.3704 N.4     1  LIG1        0.4292
     23 O           2.3154    0.4500    0.2648 O.3     1  LIG1       -0.4838
     24 H           0.9413    5.2375    7.0445 H       1  LIG1        0.1275
     25 H           2.1107    8.3476   -3.1571 H       1  LIG1        0.1318
     26 H           0.0027    5.9005    4.8457 H       1  LIG1        0.1259
     27 H           2.9047    3.7238    7.1495 H       1  LIG1        0.1292
     28 H           4.2371    7.6605   -2.0792 H       1  LIG1        0.1275
     29 H           0.0140    7.1171   -2.6602 H       1  LIG1        0.1295
     30 H           1.0196    5.0551    2.7563 H       1  LIG1        0.1022
     31 H           3.9288    2.8731    5.0660 H       1  LIG1        0.1267
     32 H           4.2722    5.7500   -0.5097 H       1  LIG1        0.1148
     33 H           0.0386    5.2055   -1.0923 H       1  LIG1        0.1289
     34 H           2.8891    1.2660    2.6854 H       1  LIG1        0.0753
     35 H           1.4668    2.1353    2.1087 H       1  LIG1        0.0876
     36 H           4.2408    3.2224    2.7487 H       1  LIG1        0.1208
     37 H           1.1746    4.1617    0.7635 H       1  LIG1        0.1351
     38 H           3.2466    2.9621   -1.1671 H       1  LIG1        0.0920
     39 H           4.6771    1.2276   -0.6030 H       1  LIG1        0.0455
     40 H           4.7523    0.6641    1.0774 H       1  LIG1        0.0529
     41 H           4.9755    2.3850    0.7081 H       1  LIG1        0.0468
     42 H           1.9837    0.4624   -1.8614 H       1  LIG1        0.0278
     43 H           2.3060    1.7981   -2.9807 H       1  LIG1        0.0316
     44 H           0.6814    1.1040   -2.8781 H       1  LIG1        0.0522
     45 H           0.5178    0.9071    0.2395 H       1  LIG1        0.0323
     46 H          -0.7593    1.5414   -0.8132 H       1  LIG1        0.0403
     47 H          -0.1265    2.5363    0.5064 H       1  LIG1        0.0282
     48 H           0.7800    3.2779   -1.6883 H       1  LIG1        0.0662
     49 H           3.0340    5.3334    1.7745 H       1  LIG1        0.1627
     50 H           4.1245    4.4210    0.9645 H       1  LIG1        0.1595
     51 H           2.6694   -0.1878    0.9012 H       1  LIG1        0.3324
@<TRIPOS>BOND
     1     1     3   ar
     2     1     4   ar
     3     2     5   ar
     4     2     6   ar
     5     3     7   ar
     6     4     8   ar
     7     5     9   ar
     8     6    10   ar
     9     7    11   ar
    10     8    11   ar
    11     9    12   ar
    12    10    12   ar
    13    11    14    1
    14    12    15    1
    15    13    14    1
    16    13    17    1
    17    14    22    1
    18    15    16    1
    19    15    22    1
    20    16    17    1
    21    16    21    1
    22    17    18    1
    23    17    23    1
    24    19    21    1
    25    20    21    1
    26     1    24    1
    27     2    25    1
    28     3    26    1
    29     4    27    1
    30     5    28    1
    31     6    29    1
    32     7    30    1
    33     8    31    1
    34     9    32    1
    35    10    33    1
    36    13    34    1
    37    13    35    1
    38    14    36    1
    39    15    37    1
    40    16    38    1
    41    18    39    1
    42    18    40    1
    43    18    41    1
    44    19    42    1
    45    19    43    1
    46    19    44    1
    47    20    45    1
    48    20    46    1
    49    20    47    1
    50    21    48    1
    51    22    49    1
    52    22    50    1
    53    23    51    1
