@<TRIPOS>MOLECULE
AN-329/14789084
 54 57 0 0 0
SMALL
USER_CHARGES

@<TRIPOS>ATOM
      1 C           0.3845    0.6115   -1.8793 C.ar    1  LIG1       -0.1053
      2 C           2.1987    7.5575   -2.4028 C.ar    1  LIG1       -0.1071
      3 C           1.7169    0.9614   -2.0976 C.ar    1  LIG1       -0.1033
      4 C          -0.4048    1.3741   -1.0183 C.ar    1  LIG1       -0.1044
      5 C           1.1005    6.6996   -2.4613 C.ar    1  LIG1       -0.1021
      6 C           3.2534    7.2819   -1.5324 C.ar    1  LIG1       -0.1056
      7 C           2.2602    2.0738   -1.4549 C.ar    1  LIG1       -0.0973
      8 C           0.1384    2.4865   -0.3756 C.ar    1  LIG1       -0.0997
      9 C           1.0567    5.5663   -1.6495 C.ar    1  LIG1       -0.0925
     10 C           3.2096    6.1485   -0.7206 C.ar    1  LIG1       -0.0968
     11 C           3.1242    4.1346    4.8101 C.ar    1  LIG1       -0.0550
     12 C           0.8088    4.6548    4.3565 C.ar    1  LIG1       -0.0483
     13 C           2.8914    4.2899    6.1766 C.ar    1  LIG1        0.0017
     14 C           0.5761    4.8101    5.7231 C.ar    1  LIG1        0.0055
     15 C           1.4710    2.8364   -0.5939 C.ar    1  LIG1       -0.0743
     16 C           2.1113    5.2906   -0.7791 C.ar    1  LIG1       -0.0684
     17 C           2.0829    4.3171    3.9001 C.ar    1  LIG1       -0.0422
     18 C           1.6174    4.6276    6.6330 C.ar    1  LIG1        0.2932
     19 C           1.4053    4.3130    1.4720 C.2     1  LIG1        0.1135
     20 C           1.9327    8.7039    8.7138 C.3     1  LIG1       -0.0401
     21 C           1.4003    8.2497   10.0588 C.3     1  LIG1       -0.0398
     22 C           2.2036    7.3848    8.0077 C.3     1  LIG1        0.0240
     23 C           0.5044    7.0714    9.7012 C.3     1  LIG1        0.0254
     24 C           2.0640    4.0518    0.1088 C.3     1  LIG1        0.0883
     25 N           1.0871    6.5047    8.4497 N.3     1  LIG1       -0.1781
     26 N           2.3157    4.1617    2.5333 N.am    1  LIG1       -0.3037
     27 O           0.2202    4.6176    1.5739 O.2     1  LIG1       -0.4630
     28 O           0.0788    4.1430    8.6754 O.2     1  LIG1       -0.0746
     29 O           2.5467    4.4718    9.0613 O.2     1  LIG1       -0.0746
     30 S           1.3225    4.8248    8.3650 S.O2    1  LIG1       -0.0442
     31 H          -0.0388   -0.2539   -2.3808 H       1  LIG1        0.1178
     32 H           2.2333    8.4393   -3.0359 H       1  LIG1        0.1156
     33 H           2.3313    0.3684   -2.7689 H       1  LIG1        0.1190
     34 H          -1.4426    1.1026   -0.8489 H       1  LIG1        0.1180
     35 H           0.2797    6.9135   -3.1398 H       1  LIG1        0.1157
     36 H           4.1091    7.9490   -1.4872 H       1  LIG1        0.1154
     37 H           3.2994    2.3388   -1.6309 H       1  LIG1        0.1220
     38 H          -0.4839    3.0747    0.2936 H       1  LIG1        0.1146
     39 H           0.1969    4.9036   -1.7018 H       1  LIG1        0.1212
     40 H           4.0358    5.9418   -0.0454 H       1  LIG1        0.1182
     41 H           4.1211    3.8714    4.4655 H       1  LIG1        0.1311
     42 H          -0.0102    4.7993    3.6565 H       1  LIG1        0.1456
     43 H           3.7098    4.1457    6.8768 H       1  LIG1        0.1532
     44 H          -0.4203    5.0732    6.0679 H       1  LIG1        0.1538
     45 H           1.1632    9.2664    8.1776 H       1  LIG1        0.0585
     46 H           2.8242    9.3255    8.7963 H       1  LIG1        0.0632
     47 H           2.2287    7.9167   10.7010 H       1  LIG1        0.0643
     48 H           0.8571    9.0404   10.5907 H       1  LIG1        0.0597
     49 H           2.2303    7.5128    6.9258 H       1  LIG1        0.0992
     50 H           3.1433    6.9431    8.3432 H       1  LIG1        0.0929
     51 H           0.4911    6.3163   10.4971 H       1  LIG1        0.0937
     52 H          -0.5235    7.4145    9.5148 H       1  LIG1        0.1060
     53 H           3.1122    3.8052    0.3408 H       1  LIG1        0.1462
     54 H           3.2744    3.9130    2.2635 H       1  LIG1        0.3274
@<TRIPOS>BOND
     1     1     3   ar
     2     1     4   ar
     3     2     5   ar
     4     2     6   ar
     5     3     7   ar
     6     4     8   ar
     7     5     9   ar
     8     6    10   ar
     9     7    15   ar
    10     8    15   ar
    11     9    16   ar
    12    10    16   ar
    13    11    13   ar
    14    11    17   ar
    15    12    14   ar
    16    12    17   ar
    17    13    18   ar
    18    14    18   ar
    19    15    24    1
    20    16    24    1
    21    17    26    1
    22    18    30    1
    23    19    24    1
    24    19    26   am
    25    19    27    2
    26    20    21    1
    27    20    22    1
    28    21    23    1
    29    22    25    1
    30    23    25    1
    31    25    30    1
    32    28    30    2
    33    29    30    2
    34     1    31    1
    35     2    32    1
    36     3    33    1
    37     4    34    1
    38     5    35    1
    39     6    36    1
    40     7    37    1
    41     8    38    1
    42     9    39    1
    43    10    40    1
    44    11    41    1
    45    12    42    1
    46    13    43    1
    47    14    44    1
    48    20    45    1
    49    20    46    1
    50    21    47    1
    51    21    48    1
    52    22    49    1
    53    22    50    1
    54    23    51    1
    55    23    52    1
    56    24    53    1
    57    26    54    1
