@<TRIPOS>MOLECULE
AG-401/13980007
 49 51 0 0 0
SMALL
USER_CHARGES

@<TRIPOS>ATOM
      1 C           0.1460    0.8670   -1.8687 C.ar    1  LIG1       -0.1059
      2 C          -0.1475    2.2291   -1.8037 C.ar    1  LIG1       -0.1035
      3 C           1.2064    0.3459   -1.1272 C.ar    1  LIG1       -0.1044
      4 C           1.3022    4.0833    3.8469 C.ar    1  LIG1       -0.0724
      5 C           3.1921    4.3088    5.3352 C.ar    1  LIG1       -0.0687
      6 C           0.6193    3.0700   -0.9973 C.ar    1  LIG1       -0.0995
      7 C           1.9732    1.1868   -0.3208 C.ar    1  LIG1       -0.1017
      8 C           1.4217    7.5779   -2.2956 C.ar    1  LIG1       -0.0703
      9 C           2.0610    6.6383   -3.1042 C.ar    1  LIG1       -0.0655
     10 C           0.4399    4.4149    4.8918 C.ar    1  LIG1       -0.0670
     11 C           2.3297    4.6403    6.3801 C.ar    1  LIG1       -0.0644
     12 C           2.2756    6.4659   -0.3281 C.ar    1  LIG1       -0.0401
     13 C           2.6784    4.0302    4.0686 C.ar    1  LIG1       -0.0064
     14 C           1.6798    2.5489   -0.2558 C.ar    1  LIG1       -0.0974
     15 C           1.5290    7.4917   -0.9074 C.ar    1  LIG1       -0.0147
     16 C           2.8077    5.6124   -2.5248 C.ar    1  LIG1        0.0031
     17 C           2.9150    5.5262   -1.1367 C.ar    1  LIG1       -0.0079
     18 C           0.9535    4.6935    6.1584 C.ar    1  LIG1       -0.0105
     19 C           3.5779    3.6847    2.9793 C.2     1  LIG1        0.0851
     20 C           1.0560    8.2621    1.2922 C.3     1  LIG1        0.0220
     21 C           4.7452    5.0190   -3.7697 C.3     1  LIG1        0.0236
     22 C           3.0927    2.7471    1.8538 C.3     1  LIG1        0.0555
     23 C           2.5111    3.4595    0.6179 C.3     1  LIG1        0.0262
     24 O           4.7435    4.1257    2.9591 O.2     1  LIG1       -0.4456
     25 O           0.9049    8.4088   -0.1189 O.3     1  LIG1       -0.4209
     26 O           3.4192    4.7115   -3.3459 O.3     1  LIG1       -0.4158
     27 S           3.8493    4.2443   -0.3680 S.3     1  LIG1       -0.1615
     28 CL         -0.1104    5.1039    7.4469 Cl      1  LIG1       -0.1341
     29 H          -0.4520    0.2121   -2.4957 H       1  LIG1        0.1158
     30 H          -0.9737    2.6348   -2.3801 H       1  LIG1        0.1172
     31 H           1.4344   -0.7147   -1.1768 H       1  LIG1        0.1176
     32 H           0.8913    3.8675    2.8641 H       1  LIG1        0.1435
     33 H           4.2627    4.2706    5.5192 H       1  LIG1        0.1498
     34 H           0.3835    4.1301   -0.9529 H       1  LIG1        0.1240
     35 H           2.7975    0.7719    0.2533 H       1  LIG1        0.1190
     36 H           0.8413    8.3747   -2.7527 H       1  LIG1        0.1173
     37 H           1.9729    6.7120   -4.1848 H       1  LIG1        0.1248
     38 H          -0.6303    4.4531    4.7048 H       1  LIG1        0.1359
     39 H           2.7443    4.8547    7.3618 H       1  LIG1        0.1366
     40 H           2.3503    6.4113    0.7559 H       1  LIG1        0.1429
     41 H           0.5085    9.0580    1.8028 H       1  LIG1        0.1209
     42 H           2.1163    8.3093    1.5529 H       1  LIG1        0.0879
     43 H           0.6514    7.2931    1.5941 H       1  LIG1        0.0877
     44 H           5.1153    4.2211   -4.4182 H       1  LIG1        0.1220
     45 H           5.3931    5.1228   -2.8958 H       1  LIG1        0.0883
     46 H           4.7318    5.9598   -4.3248 H       1  LIG1        0.0881
     47 H           2.3494    2.0608    2.2771 H       1  LIG1        0.1056
     48 H           3.9661    2.1565    1.5477 H       1  LIG1        0.1087
     49 H           1.8799    4.2883    0.9616 H       1  LIG1        0.1095
@<TRIPOS>BOND
     1     1     2   ar
     2     1     3   ar
     3     2     6   ar
     4     3     7   ar
     5     4    10   ar
     6     4    13   ar
     7     5    11   ar
     8     5    13   ar
     9     6    14   ar
    10     7    14   ar
    11     8     9   ar
    12     8    15   ar
    13     9    16   ar
    14    10    18   ar
    15    11    18   ar
    16    12    15   ar
    17    12    17   ar
    18    13    19    1
    19    14    23    1
    20    15    25    1
    21    16    17   ar
    22    16    26    1
    23    17    27    1
    24    18    28    1
    25    19    22    1
    26    19    24    2
    27    20    25    1
    28    21    26    1
    29    22    23    1
    30    23    27    1
    31     1    29    1
    32     2    30    1
    33     3    31    1
    34     4    32    1
    35     5    33    1
    36     6    34    1
    37     7    35    1
    38     8    36    1
    39     9    37    1
    40    10    38    1
    41    11    39    1
    42    12    40    1
    43    20    41    1
    44    20    42    1
    45    20    43    1
    46    21    44    1
    47    21    45    1
    48    21    46    1
    49    22    47    1
    50    22    48    1
    51    23    49    1
