@<TRIPOS>MOLECULE
AP-357/40706842
 39 41 0 0 0
SMALL
USER_CHARGES

@<TRIPOS>ATOM
      1 C           1.0062    5.7934   -1.0113 C.ar    1  LIG1       -0.0840
      2 C           3.3977    5.8693   -1.3467 C.ar    1  LIG1       -0.0930
      3 C           2.2664    1.9824   -1.5583 C.ar    1  LIG1       -0.0850
      4 C           0.3148    2.5815   -0.2663 C.ar    1  LIG1       -0.0811
      5 C           0.8633    6.9571   -1.7671 C.ar    1  LIG1       -0.0389
      6 C           3.2547    7.0328   -2.1027 C.ar    1  LIG1       -0.0454
      7 C           1.5554    0.9371   -2.1476 C.ar    1  LIG1       -0.0433
      8 C          -0.3962    1.5362   -0.8555 C.ar    1  LIG1       -0.0403
      9 C           2.2734    5.2496   -0.8010 C.ar    1  LIG1       -0.0794
     10 C           1.6462    2.8046   -0.6177 C.ar    1  LIG1       -0.0714
     11 C           1.9875    7.5766   -2.3128 C.ar    1  LIG1        0.0732
     12 C           0.2241    0.7140   -1.7962 C.ar    1  LIG1        0.0714
     13 C           2.9448    4.8046    3.6360 C.3     1  LIG1       -0.0676
     14 C           3.0852    5.1859    2.1743 C.3     1  LIG1       -0.0555
     15 C           2.8900    3.2906    3.5938 C.3     1  LIG1       -0.1062
     16 C           2.1061    4.2459    1.4865 C.3     1  LIG1       -0.0760
     17 C           2.4322    3.9622    0.0343 C.3     1  LIG1       -0.0054
     18 N           2.1979    2.9787    2.2969 N.4     1  LIG1        0.4316
     19 O           3.8221    3.5603    0.0315 O.3     1  LIG1       -0.4644
     20 F           1.8501    8.6926   -3.0409 F       1  LIG1       -0.2571
     21 F          -0.4596   -0.2882   -2.3641 F       1  LIG1       -0.2592
     22 H           0.1245    5.3182   -0.5895 H       1  LIG1        0.1377
     23 H           4.3889    5.4525   -1.1884 H       1  LIG1        0.1241
     24 H           3.3036    2.1481   -1.8380 H       1  LIG1        0.1295
     25 H          -0.1768    3.2172    0.4655 H       1  LIG1        0.1353
     26 H          -0.1231    7.3802   -1.9314 H       1  LIG1        0.1440
     27 H           4.1297    7.5158   -2.5272 H       1  LIG1        0.1411
     28 H           2.0379    0.2973   -2.8805 H       1  LIG1        0.1392
     29 H          -1.4326    1.3619   -0.5819 H       1  LIG1        0.1411
     30 H           3.7726    5.1728    4.2485 H       1  LIG1        0.0727
     31 H           2.0114    5.2075    4.0471 H       1  LIG1        0.0707
     32 H           2.8421    6.2375    1.9955 H       1  LIG1        0.0810
     33 H           4.1134    5.0114    1.8342 H       1  LIG1        0.0842
     34 H           3.8874    2.8443    3.5349 H       1  LIG1        0.0918
     35 H           2.3167    2.8469    4.4114 H       1  LIG1        0.0895
     36 H           1.0767    4.6058    1.5977 H       1  LIG1        0.1261
     37 H           2.7144    2.2435    1.7946 H       1  LIG1        0.1552
     38 H           1.2555    2.6027    2.4704 H       1  LIG1        0.1624
     39 H           4.0423    3.4117   -0.8949 H       1  LIG1        0.3515
@<TRIPOS>BOND
     1     1     5   ar
     2     1     9   ar
     3     2     6   ar
     4     2     9   ar
     5     3     7   ar
     6     3    10   ar
     7     4     8   ar
     8     4    10   ar
     9     5    11   ar
    10     6    11   ar
    11     7    12   ar
    12     8    12   ar
    13     9    17    1
    14    10    17    1
    15    11    20    1
    16    12    21    1
    17    13    14    1
    18    13    15    1
    19    14    16    1
    20    15    18    1
    21    16    17    1
    22    16    18    1
    23    17    19    1
    24     1    22    1
    25     2    23    1
    26     3    24    1
    27     4    25    1
    28     5    26    1
    29     6    27    1
    30     7    28    1
    31     8    29    1
    32    13    30    1
    33    13    31    1
    34    14    32    1
    35    14    33    1
    36    15    34    1
    37    15    35    1
    38    16    36    1
    39    18    37    1
    40    18    38    1
    41    19    39    1
