@<TRIPOS>MOLECULE
AO-081/41195426
 47 51 0 0 0
SMALL
USER_CHARGES

@<TRIPOS>ATOM
      1 C           1.6365    7.5844   -0.8104 C.ar    1  LIG1       -0.0895
      2 C          -0.2026    0.7293   -1.1559 C.ar    1  LIG1       -0.0837
      3 C           2.5523    7.4927   -1.8476 C.ar    1  LIG1       -0.0878
      4 C           0.6695    0.4394   -2.1960 C.ar    1  LIG1       -0.0905
      5 C           0.6984    5.0089    5.8030 C.ar    1  LIG1       -0.0957
      6 C           1.8635    4.8523    6.5533 C.ar    1  LIG1       -0.1017
      7 C           1.1934    6.4284   -0.1596 C.ar    1  LIG1       -0.0637
      8 C          -0.0169    1.8839   -0.3930 C.ar    1  LIG1       -0.0484
      9 C           0.7349    4.8489    4.4209 C.ar    1  LIG1       -0.0642
     10 C           3.0173    6.2428   -2.2395 C.ar    1  LIG1       -0.0700
     11 C           1.7164    1.3118   -2.4802 C.ar    1  LIG1       -0.0739
     12 C           3.0798    4.5390    5.9279 C.ar    1  LIG1       -0.1038
     13 C           3.1124    4.3569    4.5329 C.ar    1  LIG1       -0.0763
     14 C           1.6531    5.1495   -0.5260 C.ar    1  LIG1       -0.0121
     15 C           1.0521    2.7689   -0.6431 C.ar    1  LIG1       -0.0016
     16 C           1.9355    4.5274    3.7884 C.ar    1  LIG1       -0.0428
     17 C           2.5692    5.0777   -1.5938 C.ar    1  LIG1       -0.0060
     18 C           1.9023    2.4780   -1.7206 C.ar    1  LIG1       -0.0047
     19 C           0.8566    3.9909    1.5612 C.2     1  LIG1        0.1749
     20 C           4.3110    4.3447    6.7772 C.3     1  LIG1       -0.0431
     21 C           4.3977    4.0421    3.8089 C.3     1  LIG1       -0.0404
     22 C           5.6102    4.3866    5.9748 C.3     1  LIG1       -0.0620
     23 C           5.4957    3.5151    4.7307 C.3     1  LIG1       -0.0623
     24 N           1.2023    3.9592    0.1665 N.am    1  LIG1       -0.2534
     25 N           1.9288    4.3894    2.3792 N.am    1  LIG1       -0.2794
     26 O          -0.2785    3.8140    2.0038 O.2     1  LIG1       -0.4462
     27 S           3.2622    3.5342   -2.1388 S.3     1  LIG1       -0.1258
     28 H           1.2648    8.5578   -0.4987 H       1  LIG1        0.1362
     29 H          -1.0323    0.0621   -0.9405 H       1  LIG1        0.1325
     30 H           2.9156    8.3916   -2.3381 H       1  LIG1        0.1327
     31 H           0.5280   -0.4581   -2.7932 H       1  LIG1        0.1289
     32 H          -0.2364    5.2555    6.2977 H       1  LIG1        0.1221
     33 H           1.8196    4.9764    7.6327 H       1  LIG1        0.1138
     34 H           0.4847    6.5846    0.6441 H       1  LIG1        0.1314
     35 H          -0.7504    2.0682    0.3810 H       1  LIG1        0.1521
     36 H          -0.1787    4.9789    3.8463 H       1  LIG1        0.1429
     37 H           3.7418    6.1952   -3.0458 H       1  LIG1        0.1463
     38 H           2.3754    1.0669   -3.3065 H       1  LIG1        0.1403
     39 H           4.3530    5.1163    7.5553 H       1  LIG1        0.0675
     40 H           4.2269    3.3725    7.2790 H       1  LIG1        0.0667
     41 H           4.2263    3.2903    3.0293 H       1  LIG1        0.0646
     42 H           4.7484    4.9593    3.3189 H       1  LIG1        0.0576
     43 H           5.8342    5.4196    5.6799 H       1  LIG1        0.0480
     44 H           6.4403    4.0452    6.6032 H       1  LIG1        0.0452
     45 H           5.2720    2.4818    5.0252 H       1  LIG1        0.0484
     46 H           6.4504    3.4960    4.1931 H       1  LIG1        0.0470
     47 H           2.8401    4.6390    1.9040 H       1  LIG1        0.3303
@<TRIPOS>BOND
     1     1     3   ar
     2     1     7   ar
     3     2     4   ar
     4     2     8   ar
     5     3    10   ar
     6     4    11   ar
     7     5     6   ar
     8     5     9   ar
     9     6    12   ar
    10     7    14   ar
    11     8    15   ar
    12     9    16   ar
    13    10    17   ar
    14    11    18   ar
    15    12    13   ar
    16    12    20    1
    17    13    16   ar
    18    13    21    1
    19    14    17   ar
    20    14    24    1
    21    15    18   ar
    22    15    24    1
    23    16    25    1
    24    17    27    1
    25    18    27    1
    26    19    24   am
    27    19    25   am
    28    19    26    2
    29    20    22    1
    30    21    23    1
    31    22    23    1
    32     1    28    1
    33     2    29    1
    34     3    30    1
    35     4    31    1
    36     5    32    1
    37     6    33    1
    38     7    34    1
    39     8    35    1
    40     9    36    1
    41    10    37    1
    42    11    38    1
    43    20    39    1
    44    20    40    1
    45    21    41    1
    46    21    42    1
    47    22    43    1
    48    22    44    1
    49    23    45    1
    50    23    46    1
    51    25    47    1
