@<TRIPOS>MOLECULE
AG-205/33133030
 41 44 0 0 0
SMALL
USER_CHARGES

@<TRIPOS>ATOM
      1 C           1.0236    7.0791   -0.8849 C.ar    1  LIG1       -0.0964
      2 C           1.6521    0.7260   -2.2341 C.ar    1  LIG1       -0.0880
      3 C           0.2823    0.8246   -2.4775 C.ar    1  LIG1       -0.0916
      4 C           1.6387    7.4325   -2.0859 C.ar    1  LIG1       -0.0946
      5 C           3.0760    4.0297    4.7583 C.ar    1  LIG1       -0.0659
      6 C           0.9093    4.9563    4.2256 C.ar    1  LIG1       -0.0637
      7 C           1.5156    6.0090   -0.1375 C.ar    1  LIG1       -0.0853
      8 C           2.2438    1.5153   -1.2478 C.ar    1  LIG1       -0.0450
      9 C          -0.4960    1.7126   -1.7349 C.ar    1  LIG1       -0.0386
     10 C           2.7459    6.7156   -2.5396 C.ar    1  LIG1       -0.0729
     11 C           2.8757    4.3349    6.1045 C.ar    1  LIG1       -0.0665
     12 C           0.7089    5.2615    5.5718 C.ar    1  LIG1       -0.0653
     13 C           2.0929    4.3404    3.8188 C.ar    1  LIG1       -0.0302
     14 C           2.6228    5.2922   -0.5913 C.ar    1  LIG1       -0.0523
     15 C           1.4657    2.4033   -0.5052 C.ar    1  LIG1        0.0292
     16 C           0.0957    2.5019   -0.7487 C.ar    1  LIG1        0.1114
     17 C           1.6921    4.9509    6.5113 C.ar    1  LIG1       -0.0141
     18 C           3.2380    5.6455   -1.7923 C.ar    1  LIG1       -0.0080
     19 C           2.3013    4.0219    2.4153 C.2     1  LIG1        0.0123
     20 C           3.4598    4.6098    1.6575 C.3     1  LIG1        0.0305
     21 C           3.1177    4.1516    0.2373 C.3     1  LIG1        0.0249
     22 N           1.5522    3.2158    1.7315 N.2     1  LIG1       -0.3223
     23 N           2.0491    3.1773    0.4629 N.pl3   1  LIG1       -0.3193
     24 F          -0.6615    3.3522   -0.0409 F       1  LIG1       -0.2540
     25 CL          1.4444    5.3261    8.1721 Cl      1  LIG1       -0.1421
     26 CL          4.6099    4.7821   -2.3854 Cl      1  LIG1       -0.1400
     27 H           0.1619    7.6380   -0.5313 H       1  LIG1        0.1239
     28 H           2.2578    0.0346   -2.8125 H       1  LIG1        0.1283
     29 H          -0.1779    0.2097   -3.2455 H       1  LIG1        0.1298
     30 H           1.2560    8.2664   -2.6668 H       1  LIG1        0.1289
     31 H           4.0022    3.5502    4.4521 H       1  LIG1        0.1405
     32 H           0.1363    5.2027    3.5023 H       1  LIG1        0.1450
     33 H           1.0291    5.7424    0.7971 H       1  LIG1        0.1316
     34 H           3.3122    1.4297   -1.0658 H       1  LIG1        0.1388
     35 H          -1.5623    1.7895   -1.9244 H       1  LIG1        0.1350
     36 H           3.2146    7.0044   -3.4769 H       1  LIG1        0.1334
     37 H           3.6500    4.0867    6.8259 H       1  LIG1        0.1362
     38 H          -0.2183    5.7417    5.8740 H       1  LIG1        0.1358
     39 H           3.5247    5.6936    1.7879 H       1  LIG1        0.1013
     40 H           4.3808    4.1363    2.0144 H       1  LIG1        0.0989
     41 H           3.9850    3.6975   -0.2532 H       1  LIG1        0.1405
@<TRIPOS>BOND
     1     1     4   ar
     2     1     7   ar
     3     2     3   ar
     4     2     8   ar
     5     3     9   ar
     6     4    10   ar
     7     5    11   ar
     8     5    13   ar
     9     6    12   ar
    10     6    13   ar
    11     7    14   ar
    12     8    15   ar
    13     9    16   ar
    14    10    18   ar
    15    11    17   ar
    16    12    17   ar
    17    13    19    1
    18    14    18   ar
    19    14    21    1
    20    15    16   ar
    21    15    23    1
    22    16    24    1
    23    17    25    1
    24    18    26    1
    25    19    20    1
    26    19    22    2
    27    20    21    1
    28    21    23    1
    29    22    23    1
    30     1    27    1
    31     2    28    1
    32     3    29    1
    33     4    30    1
    34     5    31    1
    35     6    32    1
    36     7    33    1
    37     8    34    1
    38     9    35    1
    39    10    36    1
    40    11    37    1
    41    12    38    1
    42    20    39    1
    43    20    40    1
    44    21    41    1
