@<TRIPOS>MOLECULE
AK-918/43220140
 29 30 0 0 0
SMALL
USER_CHARGES

@<TRIPOS>ATOM
      1 C           1.3627    4.6583    6.4651 C.ar    1  LIG1       -0.1028
      2 C           2.6754    4.2638    6.2072 C.ar    1  LIG1       -0.0998
      3 C           0.4724    4.8524    5.4089 C.ar    1  LIG1       -0.1005
      4 C           3.0979    4.0633    4.8931 C.ar    1  LIG1       -0.0916
      5 C           0.8950    4.6519    4.0948 C.ar    1  LIG1       -0.0927
      6 C           0.6378    3.3210   -1.4377 C.ar    1  LIG1       -0.0048
      7 C           2.0742    1.6876   -0.3862 C.ar    1  LIG1       -0.0049
      8 C          -0.2082    2.2994   -1.8691 C.ar    1  LIG1       -0.0593
      9 C           1.2282    0.6659   -0.8176 C.ar    1  LIG1       -0.0594
     10 C           2.2077    4.2573    3.8368 C.ar    1  LIG1       -0.0763
     11 C           1.7790    3.0151   -0.6963 C.ar    1  LIG1        0.2542
     12 C           0.0869    0.9718   -1.5590 C.ar    1  LIG1       -0.0038
     13 C           2.6478    4.0485    2.4663 C.2     1  LIG1       -0.0036
     14 C           2.1826    4.7104    1.3862 C.2     1  LIG1        0.2426
     15 O           4.1733    3.7352    0.0387 O.2     1  LIG1       -0.1269
     16 O           2.6738    5.4205   -1.0707 O.2     1  LIG1       -0.1269
     17 S           2.8530    4.3120   -0.1487 S.O2    1  LIG1       -0.1251
     18 CL         -0.9569   -0.2886   -2.0912 Cl      1  LIG1       -0.1240
     19 H           1.0333    4.8133    7.4883 H       1  LIG1        0.1236
     20 H           3.3684    4.1116    7.0294 H       1  LIG1        0.1207
     21 H          -0.5501    5.1585    5.6096 H       1  LIG1        0.1196
     22 H           4.1245    3.7559    4.7078 H       1  LIG1        0.1314
     23 H           0.1891    4.8072    3.2823 H       1  LIG1        0.1283
     24 H           0.3985    4.3519   -1.6848 H       1  LIG1        0.1593
     25 H           2.9607    1.4381    0.1908 H       1  LIG1        0.1594
     26 H          -1.0940    2.5525   -2.4461 H       1  LIG1        0.1397
     27 H           1.4707   -0.3640   -0.5686 H       1  LIG1        0.1399
     28 H           3.4350    3.3000    2.3177 H       1  LIG1        0.1720
     29 H           1.4224    5.4789    1.4405 H       1  LIG1        0.1848
@<TRIPOS>BOND
     1     1     2   ar
     2     1     3   ar
     3     2     4   ar
     4     3     5   ar
     5     4    10   ar
     6     5    10   ar
     7     6     8   ar
     8     6    11   ar
     9     7     9   ar
    10     7    11   ar
    11     8    12   ar
    12     9    12   ar
    13    10    13    1
    14    11    17    1
    15    12    18    1
    16    13    14    2
    17    14    17    1
    18    15    17    2
    19    16    17    2
    20     1    19    1
    21     2    20    1
    22     3    21    1
    23     4    22    1
    24     5    23    1
    25     6    24    1
    26     7    25    1
    27     8    26    1
    28     9    27    1
    29    13    28    1
    30    14    29    1
