@<TRIPOS>MOLECULE
AE-848/33203005
 47 50 0 0 0
SMALL
USER_CHARGES

@<TRIPOS>ATOM
      1 C           0.0334    0.7571   -1.8589 C.ar    1  LIG1       -0.1093
      2 C           1.3525    0.4029   -1.5764 C.ar    1  LIG1       -0.1071
      3 C          -0.4181    2.0466   -1.5773 C.ar    1  LIG1       -0.1055
      4 C           2.3382    6.6401   -2.4597 C.ar    1  LIG1       -0.0982
      5 C           1.7873    7.5907   -1.6026 C.ar    1  LIG1       -0.0914
      6 C           3.0182    5.0759    4.3457 C.ar    1  LIG1       -0.0650
      7 C           0.8295    4.0709    4.1550 C.ar    1  LIG1       -0.0770
      8 C           2.2203    1.3379   -1.0122 C.ar    1  LIG1       -0.0992
      9 C           0.4496    2.9816   -1.0131 C.ar    1  LIG1       -0.0961
     10 C           2.6451    5.3644   -1.9841 C.ar    1  LIG1       -0.0892
     11 C           1.5492    7.2699   -0.2675 C.ar    1  LIG1       -0.0519
     12 C           2.9008    5.0681    5.7356 C.ar    1  LIG1       -0.0468
     13 C           0.7121    4.0629    5.5449 C.ar    1  LIG1       -0.0610
     14 C           1.9826    4.5775    3.5554 C.ar    1  LIG1       -0.0241
     15 C           1.7688    2.6273   -0.7305 C.ar    1  LIG1       -0.0907
     16 C           2.4019    5.0269   -0.6443 C.ar    1  LIG1       -0.0494
     17 C           1.8631    5.9952    0.2081 C.ar    1  LIG1        0.0287
     18 C           1.7477    4.5616    6.3351 C.ar    1  LIG1       -0.0062
     19 C           2.1050    4.5858    2.1060 C.2     1  LIG1        0.0471
     20 C           2.6359    3.5639    1.3980 C.2     1  LIG1        0.0187
     21 C           3.1815    2.3622    2.0492 C.2     1  LIG1        0.0714
     22 C           2.7014    3.6334   -0.1235 C.3     1  LIG1        0.0105
     23 C           0.3989    5.3497    9.5829 C.3     1  LIG1       -0.0341
     24 C           0.3182    4.6700    8.2327 C.3     1  LIG1        0.0161
     25 O           2.7532    1.9458    3.1143 O.2     1  LIG1       -0.4756
     26 O           1.6202    5.7550    1.5382 O.3     1  LIG1       -0.3414
     27 O           1.6332    4.5538    7.6914 O.3     1  LIG1       -0.4129
     28 H          -0.6417    0.0293   -2.2995 H       1  LIG1        0.1129
     29 H           1.7045   -0.6008   -1.7966 H       1  LIG1        0.1131
     30 H          -1.4449    2.3231   -1.7981 H       1  LIG1        0.1150
     31 H           2.5268    6.8912   -3.4994 H       1  LIG1        0.1207
     32 H           1.5470    8.5827   -1.9737 H       1  LIG1        0.1319
     33 H           3.9232    5.4741    3.8930 H       1  LIG1        0.1498
     34 H           0.0137    3.6788    3.5524 H       1  LIG1        0.1402
     35 H           3.2464    1.0529   -0.7952 H       1  LIG1        0.1114
     36 H           0.0890    3.9838   -0.7969 H       1  LIG1        0.1209
     37 H           3.0704    4.6329   -2.6667 H       1  LIG1        0.1306
     38 H           1.1259    8.0182    0.3972 H       1  LIG1        0.1361
     39 H           3.7108    5.4578    6.3459 H       1  LIG1        0.1364
     40 H          -0.1885    3.6671    6.0063 H       1  LIG1        0.1198
     41 H           4.0014    1.8735    1.5029 H       1  LIG1        0.2342
     42 H           3.7243    3.3780   -0.4294 H       1  LIG1        0.1164
     43 H           1.0116    4.7675   10.2768 H       1  LIG1        0.0582
     44 H           0.8299    6.3515    9.4856 H       1  LIG1        0.0486
     45 H          -0.6006    5.4737   10.0128 H       1  LIG1        0.0488
     46 H          -0.2960    5.2573    7.5435 H       1  LIG1        0.0973
     47 H          -0.1119    3.6689    8.3317 H       1  LIG1        0.0969
@<TRIPOS>BOND
     1     1     2   ar
     2     1     3   ar
     3     2     8   ar
     4     3     9   ar
     5     4     5   ar
     6     4    10   ar
     7     5    11   ar
     8     6    12   ar
     9     6    14   ar
    10     7    13   ar
    11     7    14   ar
    12     8    15   ar
    13     9    15   ar
    14    10    16   ar
    15    11    17   ar
    16    12    18   ar
    17    13    18   ar
    18    14    19    1
    19    15    22    1
    20    16    17   ar
    21    16    22    1
    22    17    26    1
    23    18    27    1
    24    19    20    2
    25    19    26    1
    26    20    21    1
    27    20    22    1
    28    21    25    2
    29    23    24    1
    30    24    27    1
    31     1    28    1
    32     2    29    1
    33     3    30    1
    34     4    31    1
    35     5    32    1
    36     6    33    1
    37     7    34    1
    38     8    35    1
    39     9    36    1
    40    10    37    1
    41    11    38    1
    42    12    39    1
    43    13    40    1
    44    21    41    1
    45    22    42    1
    46    23    43    1
    47    23    44    1
    48    23    45    1
    49    24    46    1
    50    24    47    1
