@<TRIPOS>MOLECULE
AE-848/34539043
 54 58 0 0 0
SMALL
USER_CHARGES

@<TRIPOS>ATOM
      1 C           1.6925    4.9405    6.5213 C.ar    1  LIG1       -0.1034
      2 C           1.6608    7.4302   -2.1230 C.ar    1  LIG1       -0.1058
      3 C           2.9821    4.9383    5.9901 C.ar    1  LIG1       -0.0985
      4 C           0.6014    4.6416    5.7053 C.ar    1  LIG1       -0.0972
      5 C           0.7667    6.6529   -1.3867 C.ar    1  LIG1       -0.1046
      6 C           3.0255    7.1439   -2.0893 C.ar    1  LIG1       -0.1030
      7 C           3.1808    4.6370    4.6427 C.ar    1  LIG1       -0.0780
      8 C           0.8001    4.3403    4.3579 C.ar    1  LIG1       -0.0756
      9 C          -0.4967    1.7074   -1.7240 C.ar    1  LIG1       -0.0661
     10 C           1.6550    0.7341   -2.2339 C.ar    1  LIG1       -0.0717
     11 C           1.2373    5.5895   -0.6166 C.ar    1  LIG1       -0.0975
     12 C           3.4962    6.0805   -1.3191 C.ar    1  LIG1       -0.0960
     13 C          -1.4215   -2.4083   -4.7805 C.ar    1  LIG1       -0.0682
     14 C          -0.0653   -1.4591   -6.5403 C.ar    1  LIG1       -0.0574
     15 C           0.0942    2.4975   -0.7381 C.ar    1  LIG1       -0.0437
     16 C           2.2460    1.5243   -1.2480 C.ar    1  LIG1       -0.0490
     17 C          -2.1436   -3.1337   -5.7282 C.ar    1  LIG1       -0.0486
     18 C          -0.7874   -2.1846   -7.4879 C.ar    1  LIG1       -0.0409
     19 C           2.0898    4.3381    3.8266 C.ar    1  LIG1       -0.0363
     20 C           0.2837    0.8256   -2.4718 C.ar    1  LIG1       -0.0344
     21 C           2.6022    5.3033   -0.5827 C.ar    1  LIG1       -0.0815
     22 C          -0.3824   -1.5709   -5.1866 C.ar    1  LIG1       -0.0464
     23 C           1.4656    2.4060   -0.5001 C.ar    1  LIG1       -0.0190
     24 C          -1.8265   -3.0219   -7.0818 C.ar    1  LIG1        0.0600
     25 C           2.2970    4.0242    2.4218 C.2     1  LIG1        0.0095
     26 C          -0.3325    0.0017   -3.4997 C.2     1  LIG1       -0.0189
     27 C           3.4495    4.6219    1.6626 C.3     1  LIG1        0.0308
     28 C           3.1071    4.1644    0.2422 C.3     1  LIG1        0.0227
     29 N           1.5519    3.2143    1.7381 N.2     1  LIG1       -0.3215
     30 N           0.3447   -0.8396   -4.2320 N.2     1  LIG1       -0.3936
     31 N           2.0461    3.1821    0.4682 N.pl3   1  LIG1       -0.3191
     32 F          -2.5198   -3.7186   -7.9917 F       1  LIG1       -0.2731
     33 H           1.5377    5.1751    7.5705 H       1  LIG1        0.1202
     34 H           1.2939    8.2574   -2.7237 H       1  LIG1        0.1170
     35 H           3.8315    5.1713    6.6256 H       1  LIG1        0.1200
     36 H          -0.4027    4.6430    6.1190 H       1  LIG1        0.1198
     37 H          -0.2962    6.8750   -1.4137 H       1  LIG1        0.1175
     38 H           3.7218    7.7482   -2.6632 H       1  LIG1        0.1163
     39 H           4.1901    4.6382    4.2391 H       1  LIG1        0.1291
     40 H          -0.0574    4.1090    3.7314 H       1  LIG1        0.1342
     41 H          -1.5663    1.7867   -1.9011 H       1  LIG1        0.1493
     42 H           2.2726    0.0505   -2.8107 H       1  LIG1        0.1405
     43 H           0.5335    4.9895   -0.0459 H       1  LIG1        0.1197
     44 H           4.5612    5.8649   -1.2988 H       1  LIG1        0.1169
     45 H          -1.6761   -2.5012   -3.7278 H       1  LIG1        0.1285
     46 H           0.7426   -0.8093   -6.8662 H       1  LIG1        0.1457
     47 H          -0.5232    3.1813   -0.1611 H       1  LIG1        0.1293
     48 H           3.3155    1.4451   -1.0707 H       1  LIG1        0.1218
     49 H          -2.9537   -3.7851   -5.4126 H       1  LIG1        0.1326
     50 H          -0.5409   -2.0972   -8.5419 H       1  LIG1        0.1365
     51 H          -1.4315    0.1082   -3.6551 H       1  LIG1        0.1930
     52 H           3.5071    5.7058    1.7952 H       1  LIG1        0.1006
     53 H           4.3746    4.1540    2.0162 H       1  LIG1        0.1002
     54 H           3.9763    3.7175   -0.2515 H       1  LIG1        0.1376
@<TRIPOS>BOND
     1     1     3   ar
     2     1     4   ar
     3     2     5   ar
     4     2     6   ar
     5     3     7   ar
     6     4     8   ar
     7     5    11   ar
     8     6    12   ar
     9     7    19   ar
    10     8    19   ar
    11     9    15   ar
    12     9    20   ar
    13    10    16   ar
    14    10    20   ar
    15    11    21   ar
    16    12    21   ar
    17    13    17   ar
    18    13    22   ar
    19    14    18   ar
    20    14    22   ar
    21    15    23   ar
    22    16    23   ar
    23    17    24   ar
    24    18    24   ar
    25    19    25    1
    26    20    26    1
    27    21    28    1
    28    22    30    1
    29    23    31    1
    30    24    32    1
    31    25    27    1
    32    25    29    2
    33    26    30    2
    34    27    28    1
    35    28    31    1
    36    29    31    1
    37     1    33    1
    38     2    34    1
    39     3    35    1
    40     4    36    1
    41     5    37    1
    42     6    38    1
    43     7    39    1
    44     8    40    1
    45     9    41    1
    46    10    42    1
    47    11    43    1
    48    12    44    1
    49    13    45    1
    50    14    46    1
    51    15    47    1
    52    16    48    1
    53    17    49    1
    54    18    50    1
    55    26    51    1
    56    27    52    1
    57    27    53    1
    58    28    54    1
