@<TRIPOS>MOLECULE
AG-690/12000017
 52 55 0 0 0
SMALL
USER_CHARGES

@<TRIPOS>ATOM
      1 C           1.9364    6.6903   -2.4997 C.ar    1  LIG1       -0.1034
      2 C           0.4700    4.0934    4.9769 C.ar    1  LIG1       -0.1102
      3 C           1.2955    3.9604    6.0876 C.ar    1  LIG1       -0.1055
      4 C           0.8961    6.6970   -1.5706 C.ar    1  LIG1       -0.0953
      5 C           3.1246    6.0186   -2.2117 C.ar    1  LIG1       -0.0977
      6 C           2.3713    2.0299   -0.7956 C.ar    1  LIG1       -0.0713
      7 C           0.1267    2.7091   -0.2147 C.ar    1  LIG1       -0.0585
      8 C           0.9959    4.5525    3.7702 C.ar    1  LIG1       -0.0927
      9 C           2.6443    4.3027    5.9964 C.ar    1  LIG1       -0.0735
     10 C           1.0439    6.0322   -0.3533 C.ar    1  LIG1       -0.0661
     11 C           3.2724    5.3538   -0.9944 C.ar    1  LIG1       -0.0694
     12 C           1.8900    1.4377   -1.9632 C.ar    1  LIG1       -0.0660
     13 C          -0.3546    2.1170   -1.3824 C.ar    1  LIG1       -0.0498
     14 C           1.4896    2.6656    0.0786 C.ar    1  LIG1        0.0273
     15 C           2.3596    4.8745    3.6562 C.ar    1  LIG1       -0.0435
     16 C           3.1891    4.7847    4.7953 C.ar    1  LIG1       -0.0695
     17 C           2.2321    5.3606   -0.0652 C.ar    1  LIG1       -0.0391
     18 C           0.5271    1.4813   -2.2566 C.ar    1  LIG1       -0.0114
     19 C           1.9957    3.2885    1.3066 C.2     1  LIG1        0.1325
     20 C           4.4600    5.2433    2.3116 C.3     1  LIG1       -0.0134
     21 C           2.9313    5.3815    2.3450 C.3     1  LIG1        0.0220
     22 C           5.0758    5.8191    3.5882 C.3     1  LIG1       -0.0493
     23 C           6.5940    5.6736    3.5733 C.3     1  LIG1       -0.0459
     24 C           1.0131    0.2703   -4.2449 C.3     1  LIG1        0.0253
     25 N           4.5379    5.1231    4.7460 N.pl3   1  LIG1       -0.4161
     26 N           2.3867    4.6639    1.2105 N.am    1  LIG1       -0.3056
     27 O           2.0890    2.6208    2.3383 O.2     1  LIG1       -0.4559
     28 O           0.0571    0.9034   -3.3958 O.3     1  LIG1       -0.4146
     29 H           1.8213    7.2072   -3.4481 H       1  LIG1        0.1177
     30 H          -0.5835    3.8391    5.0485 H       1  LIG1        0.0987
     31 H           0.8895    3.5982    7.0276 H       1  LIG1        0.1194
     32 H          -0.0295    7.2190   -1.7949 H       1  LIG1        0.1228
     33 H           3.9341    6.0128   -2.9358 H       1  LIG1        0.1235
     34 H           3.4355    1.9899   -0.5776 H       1  LIG1        0.1459
     35 H          -0.5684    3.2022    0.4599 H       1  LIG1        0.1508
     36 H           0.3288    4.6532    2.9179 H       1  LIG1        0.1174
     37 H           3.2719    4.2007    6.8795 H       1  LIG1        0.1097
     38 H           0.2263    6.0442    0.3631 H       1  LIG1        0.1289
     39 H           4.2029    4.8337   -0.7808 H       1  LIG1        0.1265
     40 H           2.5818    0.9439   -2.6401 H       1  LIG1        0.1125
     41 H          -1.4175    2.1539   -1.6055 H       1  LIG1        0.1310
     42 H           4.7376    4.1840    2.2101 H       1  LIG1        0.0690
     43 H           4.8602    5.7558    1.4277 H       1  LIG1        0.0781
     44 H           2.6525    6.4217    2.2266 H       1  LIG1        0.1405
     45 H           4.8261    6.8849    3.6669 H       1  LIG1        0.0952
     46 H           6.8653    4.6213    3.4955 H       1  LIG1        0.0529
     47 H           7.0149    6.0817    4.4916 H       1  LIG1        0.0464
     48 H           7.0101    6.2114    2.7221 H       1  LIG1        0.0466
     49 H           0.5056   -0.1492   -5.1169 H       1  LIG1        0.0902
     50 H           1.5249   -0.5214   -3.6920 H       1  LIG1        0.0904
     51 H           1.7436    1.0133   -4.5737 H       1  LIG1        0.1228
     52 H           5.0634    5.1293    5.6130 H       1  LIG1        0.2799
@<TRIPOS>BOND
     1     1     4   ar
     2     1     5   ar
     3     2     3   ar
     4     2     8   ar
     5     3     9   ar
     6     4    10   ar
     7     5    11   ar
     8     6    12   ar
     9     6    14   ar
    10     7    13   ar
    11     7    14   ar
    12     8    15   ar
    13     9    16   ar
    14    10    17   ar
    15    11    17   ar
    16    12    18   ar
    17    13    18   ar
    18    14    19    1
    19    15    16   ar
    20    15    21    1
    21    16    25    1
    22    17    26    1
    23    18    28    1
    24    19    26   am
    25    19    27    2
    26    20    21    1
    27    20    22    1
    28    21    26    1
    29    22    23    1
    30    22    25    1
    31    24    28    1
    32     1    29    1
    33     2    30    1
    34     3    31    1
    35     4    32    1
    36     5    33    1
    37     6    34    1
    38     7    35    1
    39     8    36    1
    40     9    37    1
    41    10    38    1
    42    11    39    1
    43    12    40    1
    44    13    41    1
    45    20    42    1
    46    20    43    1
    47    21    44    1
    48    22    45    1
    49    23    46    1
    50    23    47    1
    51    23    48    1
    52    24    49    1
    53    24    50    1
    54    24    51    1
    55    25    52    1
