@<TRIPOS>MOLECULE
AK-778/15575003
 38 40 0 0 0
SMALL
USER_CHARGES

@<TRIPOS>ATOM
      1 C           0.9269    0.6750   -1.1175 C.ar    1  LIG1       -0.0934
      2 C          -0.1092    1.4050   -1.7240 C.ar    1  LIG1       -0.0913
      3 C           2.7652    4.1611    6.1090 C.ar    1  LIG1       -0.0973
      4 C           2.7457    3.7286    4.7830 C.ar    1  LIG1       -0.0878
      5 C           1.9438    1.3271   -0.4159 C.ar    1  LIG1       -0.0774
      6 C          -0.1452    2.7986   -1.6399 C.ar    1  LIG1       -0.0635
      7 C           1.6914    4.8895    6.6210 C.ar    1  LIG1       -0.0759
      8 C           0.5785    4.7531    4.4809 C.ar    1  LIG1       -0.0548
      9 C           1.6523    4.0247    3.9690 C.ar    1  LIG1       -0.0114
     10 C           1.9009    2.7085   -0.3349 C.ar    1  LIG1       -0.0158
     11 C           0.8703    3.4281   -0.9410 C.ar    1  LIG1       -0.0321
     12 C           0.5982    5.1855    5.8070 C.ar    1  LIG1       -0.0948
     13 C           2.2223    5.0333    0.0396 C.2     1  LIG1        0.1520
     14 C           1.6314    3.5678    2.5686 C.2     1  LIG1        0.0911
     15 C           2.8489    3.6572    0.3443 C.3     1  LIG1        0.1298
     16 C           0.1730    5.8169   -1.2172 C.3     1  LIG1       -0.0034
     17 C           2.9664    3.4245    1.8436 C.3     1  LIG1        0.0887
     18 N           1.0638    4.7977   -0.7153 N.am    1  LIG1       -0.3147
     19 N          -0.4873    5.9220    6.3247 N.pl3   1  LIG1       -0.4240
     20 O           2.6863    6.1086    0.3905 O.2     1  LIG1       -0.4324
     21 O           0.5814    3.3043    1.9792 O.2     1  LIG1       -0.4441
     22 O           4.1180    3.5976   -0.2771 O.3     1  LIG1       -0.4416
     23 H           0.9360   -0.4088   -1.1964 H       1  LIG1        0.1210
     24 H          -0.8903    0.8775   -2.2651 H       1  LIG1        0.1335
     25 H           3.6161    3.9298    6.7429 H       1  LIG1        0.1271
     26 H           3.5877    3.1613    4.3951 H       1  LIG1        0.1169
     27 H           2.7426    0.7600    0.0495 H       1  LIG1        0.1405
     28 H          -0.9481    3.3533   -2.1122 H       1  LIG1        0.1265
     29 H           1.7173    5.2212    7.6558 H       1  LIG1        0.1183
     30 H          -0.2745    4.9840    3.8459 H       1  LIG1        0.1316
     31 H          -0.6156    6.0192   -0.4876 H       1  LIG1        0.0950
     32 H          -0.2886    5.4885   -2.1522 H       1  LIG1        0.1067
     33 H           0.7246    6.7421   -1.4046 H       1  LIG1        0.1042
     34 H           3.6719    4.1535    2.2557 H       1  LIG1        0.1036
     35 H           3.3518    2.4132    2.0109 H       1  LIG1        0.1199
     36 H          -0.4825    6.1855    7.2894 H       1  LIG1        0.2511
     37 H          -1.2854    6.0871    5.7452 H       1  LIG1        0.2507
     38 H           4.6967    4.2236    0.1915 H       1  LIG1        0.3476
@<TRIPOS>BOND
     1     1     2   ar
     2     1     5   ar
     3     2     6   ar
     4     3     4   ar
     5     3     7   ar
     6     4     9   ar
     7     5    10   ar
     8     6    11   ar
     9     7    12   ar
    10     8     9   ar
    11     8    12   ar
    12     9    14    1
    13    10    11   ar
    14    10    15    1
    15    11    18    1
    16    12    19    1
    17    13    15    1
    18    13    18   am
    19    13    20    2
    20    14    17    1
    21    14    21    2
    22    15    17    1
    23    15    22    1
    24    16    18    1
    25     1    23    1
    26     2    24    1
    27     3    25    1
    28     4    26    1
    29     5    27    1
    30     6    28    1
    31     7    29    1
    32     8    30    1
    33    16    31    1
    34    16    32    1
    35    16    33    1
    36    17    34    1
    37    17    35    1
    38    19    36    1
    39    19    37    1
    40    22    38    1
