@<TRIPOS>MOLECULE
AK-918/41424321
 44 46 0 0 0
SMALL
USER_CHARGES

@<TRIPOS>ATOM
      1 C           0.6005    0.6936   -0.9717 C.ar    1  LIG1       -0.1086
      2 C          -0.2881    1.7159   -0.6387 C.ar    1  LIG1       -0.1018
      3 C           1.8846    1.0039   -1.4193 C.ar    1  LIG1       -0.1061
      4 C           1.4741    6.9245   -2.3018 C.ar    1  LIG1       -0.1021
      5 C           2.5605    7.4136   -1.5764 C.ar    1  LIG1       -0.1061
      6 C           0.1074    3.0485   -0.7535 C.ar    1  LIG1       -0.0879
      7 C           2.2801    2.3366   -1.5342 C.ar    1  LIG1       -0.0930
      8 C           1.0946    5.5884   -2.1735 C.ar    1  LIG1       -0.0807
      9 C           1.3759    3.2818    4.2821 C.ar    1  LIG1       -0.0825
     10 C           0.7785    3.6201    5.4961 C.ar    1  LIG1       -0.0964
     11 C           3.2673    6.5666   -0.7228 C.ar    1  LIG1       -0.0701
     12 C           2.8641    5.1740    4.4870 C.ar    1  LIG1       -0.0762
     13 C           1.3914    3.3590   -1.2012 C.ar    1  LIG1       -0.0710
     14 C           1.8013    4.7414   -1.3199 C.ar    1  LIG1       -0.0336
     15 C           2.4188    4.0587    3.7776 C.ar    1  LIG1       -0.0039
     16 C           1.2237    4.7354    6.2057 C.ar    1  LIG1       -0.1113
     17 C           2.2665    5.5125    5.7011 C.ar    1  LIG1       -0.1064
     18 C           2.8877    5.2305   -0.5945 C.ar    1  LIG1        0.0060
     19 C           3.0583    3.6960    2.4799 C.2     1  LIG1        0.1157
     20 C           0.5692    5.0778    7.5039 C.3     1  LIG1       -0.0382
     21 C           2.7611    6.7099    6.4443 C.3     1  LIG1       -0.0408
     22 C           3.6404    4.8010    1.6202 C.3     1  LIG1        0.1205
     23 O           3.1005    2.5180    2.1326 O.2     1  LIG1       -0.4385
     24 O           3.5976    4.4246    0.2458 O.3     1  LIG1       -0.3846
     25 H           0.2930   -0.3441   -0.8806 H       1  LIG1        0.1129
     26 H          -1.2874    1.4743   -0.2886 H       1  LIG1        0.1152
     27 H           2.5776    0.2084   -1.6774 H       1  LIG1        0.1136
     28 H           0.9239    7.5843   -2.9661 H       1  LIG1        0.1128
     29 H           2.8561    8.4539   -1.6764 H       1  LIG1        0.1239
     30 H          -0.5970    3.8342   -0.4899 H       1  LIG1        0.1242
     31 H           3.2845    2.5633   -1.8838 H       1  LIG1        0.1191
     32 H           0.2454    5.2230   -2.7463 H       1  LIG1        0.1358
     33 H           1.0209    2.4105    3.7375 H       1  LIG1        0.1299
     34 H          -0.0326    3.0075    5.8809 H       1  LIG1        0.1228
     35 H           4.1127    6.9548   -0.1610 H       1  LIG1        0.1102
     36 H           3.6769    5.7811    4.0948 H       1  LIG1        0.1412
     37 H           1.0831    4.5763    8.3321 H       1  LIG1        0.0610
     38 H           0.5883    6.1596    7.6843 H       1  LIG1        0.0566
     39 H          -0.4843    4.7716    7.5093 H       1  LIG1        0.0582
     40 H           2.2080    7.6041    6.1346 H       1  LIG1        0.0581
     41 H           2.6410    6.5818    7.5270 H       1  LIG1        0.0551
     42 H           3.8293    6.8778    6.2591 H       1  LIG1        0.0567
     43 H           4.6879    4.9626    1.8878 H       1  LIG1        0.1451
     44 H           3.0667    5.7237    1.7432 H       1  LIG1        0.1453
@<TRIPOS>BOND
     1     1     2   ar
     2     1     3   ar
     3     2     6   ar
     4     3     7   ar
     5     4     5   ar
     6     4     8   ar
     7     5    11   ar
     8     6    13   ar
     9     7    13   ar
    10     8    14   ar
    11     9    10   ar
    12     9    15   ar
    13    10    16   ar
    14    11    18   ar
    15    12    15   ar
    16    12    17   ar
    17    13    14    1
    18    14    18   ar
    19    15    19    1
    20    16    17   ar
    21    16    20    1
    22    17    21    1
    23    18    24    1
    24    19    22    1
    25    19    23    2
    26    22    24    1
    27     1    25    1
    28     2    26    1
    29     3    27    1
    30     4    28    1
    31     5    29    1
    32     6    30    1
    33     7    31    1
    34     8    32    1
    35     9    33    1
    36    10    34    1
    37    11    35    1
    38    12    36    1
    39    20    37    1
    40    20    38    1
    41    20    39    1
    42    21    40    1
    43    21    41    1
    44    21    42    1
    45    22    43    1
    46    22    44    1
