@<TRIPOS>MOLECULE
AN-329/10747033
 41 44 0 0 0
SMALL
USER_CHARGES

@<TRIPOS>ATOM
      1 C           2.1312    5.0647    6.3250 C.ar    1  LIG1       -0.1062
      2 C           1.0475    6.2210   -2.4188 C.ar    1  LIG1       -0.0912
      3 C           0.1597    1.4776   -1.5464 C.ar    1  LIG1       -0.0911
      4 C           1.4169    1.5029   -2.1501 C.ar    1  LIG1       -0.0886
      5 C           1.6194    7.5109   -2.4170 C.ar    1  LIG1       -0.0864
      6 C           0.9313    4.5243    5.8628 C.ar    1  LIG1       -0.0967
      7 C           3.2538    5.0804    5.4971 C.ar    1  LIG1       -0.1008
      8 C           1.5918    5.1916   -1.6467 C.ar    1  LIG1       -0.0763
      9 C          -0.0383    2.1130   -0.3206 C.ar    1  LIG1       -0.0602
     10 C           2.4761    2.1637   -1.5278 C.ar    1  LIG1       -0.0554
     11 C           2.7486    7.7987   -1.6431 C.ar    1  LIG1       -0.0601
     12 C           0.8539    3.9993    4.5728 C.ar    1  LIG1       -0.0682
     13 C           3.1765    4.5555    4.2071 C.ar    1  LIG1       -0.0743
     14 C           2.7035    5.5017   -0.8945 C.ar    1  LIG1        0.0117
     15 C           1.0208    2.7736    0.3018 C.ar    1  LIG1        0.0628
     16 C           2.2781    2.7991   -0.3018 C.ar    1  LIG1        0.0172
     17 C           3.2745    6.7721   -0.8872 C.ar    1  LIG1       -0.0333
     18 C           1.9764    4.0150    3.7449 C.ar    1  LIG1       -0.0546
     19 C           3.5104    4.6973    0.0030 C.2     1  LIG1        0.1364
     20 C           4.6074    5.5845    0.5477 C.2     1  LIG1        0.1980
     21 C           0.7849    3.4287    1.5816 C.2     1  LIG1        0.1318
     22 N           3.3609    3.4589    0.3098 N.2     1  LIG1       -0.3064
     23 N           4.3878    6.8167   -0.0426 N.am    1  LIG1       -0.2806
     24 N           1.8976    3.4815    2.4338 N.am    1  LIG1       -0.3067
     25 O           5.4507    5.2027    1.3287 O.2     1  LIG1       -0.4136
     26 O          -0.3302    3.8679    1.8898 O.2     1  LIG1       -0.4513
     27 H           2.1917    5.4743    7.3291 H       1  LIG1        0.1132
     28 H           0.1690    6.0285   -3.0293 H       1  LIG1        0.1225
     29 H          -0.6643    0.9618   -2.0306 H       1  LIG1        0.1273
     30 H           1.5705    1.0078   -3.1043 H       1  LIG1        0.1371
     31 H           1.1722    8.2921   -3.0266 H       1  LIG1        0.1403
     32 H           0.0569    4.5126    6.5067 H       1  LIG1        0.1217
     33 H           4.1878    5.5023    5.8570 H       1  LIG1        0.1213
     34 H           1.1539    4.2009   -1.6463 H       1  LIG1        0.1406
     35 H          -1.0225    2.0861    0.1400 H       1  LIG1        0.1375
     36 H           3.4519    2.1777   -2.0065 H       1  LIG1        0.1328
     37 H           3.1848    8.7910   -1.6444 H       1  LIG1        0.1332
     38 H          -0.0867    3.5808    4.2234 H       1  LIG1        0.1307
     39 H           4.0577    4.5731    3.5708 H       1  LIG1        0.1216
     40 H           4.9475    7.6482    0.1046 H       1  LIG1        0.3439
     41 H           2.7584    3.0864    2.0636 H       1  LIG1        0.3203
@<TRIPOS>BOND
     1     1     6   ar
     2     1     7   ar
     3     2     5   ar
     4     2     8   ar
     5     3     4   ar
     6     3     9   ar
     7     4    10   ar
     8     5    11   ar
     9     6    12   ar
    10     7    13   ar
    11     8    14   ar
    12     9    15   ar
    13    10    16   ar
    14    11    17   ar
    15    12    18   ar
    16    13    18   ar
    17    14    17   ar
    18    14    19    1
    19    15    16   ar
    20    15    21    1
    21    16    22    1
    22    17    23    1
    23    18    24    1
    24    19    20    1
    25    19    22    2
    26    20    23   am
    27    20    25    2
    28    21    24   am
    29    21    26    2
    30     1    27    1
    31     2    28    1
    32     3    29    1
    33     4    30    1
    34     5    31    1
    35     6    32    1
    36     7    33    1
    37     8    34    1
    38     9    35    1
    39    10    36    1
    40    11    37    1
    41    12    38    1
    42    13    39    1
    43    23    40    1
    44    24    41    1
