@<TRIPOS>MOLECULE
AN-655/15641101
 39 41 0 0 0
SMALL
USER_CHARGES

@<TRIPOS>ATOM
      1 C           1.8970    4.8804    6.7023 C.ar    1  LIG1       -0.1014
      2 C           2.7035    3.8779    6.1639 C.ar    1  LIG1       -0.0998
      3 C           0.9554    5.5245    5.8995 C.ar    1  LIG1       -0.0969
      4 C           0.9868    0.6215   -1.3628 C.ar    1  LIG1       -0.0936
      5 C          -0.0306    1.3506   -2.0012 C.ar    1  LIG1       -0.0914
      6 C           2.5687    3.5194    4.8226 C.ar    1  LIG1       -0.0854
      7 C           0.8205    5.1660    4.5582 C.ar    1  LIG1       -0.0811
      8 C           1.9299    1.2659   -0.5585 C.ar    1  LIG1       -0.0778
      9 C          -0.1213    2.7357   -1.8468 C.ar    1  LIG1       -0.0631
     10 C           1.6272    4.1635    4.0198 C.ar    1  LIG1       -0.0154
     11 C           1.8329    2.6388   -0.4083 C.ar    1  LIG1       -0.0157
     12 C           0.8213    3.3577   -1.0464 C.ar    1  LIG1       -0.0307
     13 C           2.0458    4.9485    0.1094 C.2     1  LIG1        0.1540
     14 C           1.4849    3.7849    2.6031 C.2     1  LIG1        0.0874
     15 C           2.6983    3.5782    0.3844 C.3     1  LIG1        0.1295
     16 C           0.5510    6.2779   -2.5438 C.3     1  LIG1       -0.0435
     17 C           2.7214    3.2675    1.8740 C.3     1  LIG1        0.0863
     18 C           0.0606    5.7348   -1.2449 C.3     1  LIG1       -0.0102
     19 N           0.9505    4.7182   -0.7361 N.am    1  LIG1       -0.3142
     20 O           2.4466    6.0171    0.5478 O.2     1  LIG1       -0.4294
     21 O           0.4117    3.8750    2.0037 O.2     1  LIG1       -0.4429
     22 O           4.0082    3.5928   -0.1488 O.3     1  LIG1       -0.4415
     23 H           2.0020    5.1595    7.7466 H       1  LIG1        0.1257
     24 H           3.4367    3.3767    6.7890 H       1  LIG1        0.1196
     25 H           0.3272    6.3048    6.3189 H       1  LIG1        0.1205
     26 H           1.0395   -0.4556   -1.4977 H       1  LIG1        0.1205
     27 H          -0.7539    0.8292   -2.6226 H       1  LIG1        0.1333
     28 H           3.2024    2.7369    4.4133 H       1  LIG1        0.1302
     29 H           0.0837    5.6747    3.9421 H       1  LIG1        0.1377
     30 H           2.7145    0.6997   -0.0687 H       1  LIG1        0.1399
     31 H          -0.9092    3.2898   -2.3444 H       1  LIG1        0.1263
     32 H           1.5408    6.7326   -2.4286 H       1  LIG1        0.0410
     33 H           0.6021    5.4891   -3.3022 H       1  LIG1        0.0407
     34 H          -0.1364    7.0518   -2.9059 H       1  LIG1        0.0506
     35 H           3.6104    3.7317    2.3136 H       1  LIG1        0.1021
     36 H           2.7786    2.1816    2.0033 H       1  LIG1        0.1181
     37 H          -0.9280    5.2824   -1.3671 H       1  LIG1        0.1103
     38 H          -0.0048    6.5270   -0.4931 H       1  LIG1        0.1126
     39 H           4.5311    4.2101    0.3914 H       1  LIG1        0.3473
@<TRIPOS>BOND
     1     1     2   ar
     2     1     3   ar
     3     2     6   ar
     4     3     7   ar
     5     4     5   ar
     6     4     8   ar
     7     5     9   ar
     8     6    10   ar
     9     7    10   ar
    10     8    11   ar
    11     9    12   ar
    12    10    14    1
    13    11    12   ar
    14    11    15    1
    15    12    19    1
    16    13    15    1
    17    13    19   am
    18    13    20    2
    19    14    17    1
    20    14    21    2
    21    15    17    1
    22    15    22    1
    23    16    18    1
    24    18    19    1
    25     1    23    1
    26     2    24    1
    27     3    25    1
    28     4    26    1
    29     5    27    1
    30     6    28    1
    31     7    29    1
    32     8    30    1
    33     9    31    1
    34    16    32    1
    35    16    33    1
    36    16    34    1
    37    17    35    1
    38    17    36    1
    39    18    37    1
    40    18    38    1
    41    22    39    1
