@<TRIPOS>MOLECULE
AK-918/36805015
 41 44 0 0 0
SMALL
USER_CHARGES

@<TRIPOS>ATOM
      1 C           0.3988    0.6520   -0.4520 C.ar    1  LIG1       -0.0993
      2 C           2.2455    7.7236   -1.0130 C.ar    1  LIG1       -0.0999
      3 C           1.1779    0.4417   -1.5875 C.ar    1  LIG1       -0.0909
      4 C           2.9838    7.3583   -2.1363 C.ar    1  LIG1       -0.0929
      5 C           2.7398    3.5996    4.1404 C.ar    1  LIG1       -0.0664
      6 C           0.9207    5.1856    4.0266 C.ar    1  LIG1       -0.0744
      7 C           0.1816    1.9487    0.0154 C.ar    1  LIG1       -0.0889
      8 C           1.4431    6.7813   -0.3682 C.ar    1  LIG1       -0.0871
      9 C           2.7282    3.6863    5.5324 C.ar    1  LIG1       -0.0926
     10 C           0.9092    5.2722    5.4187 C.ar    1  LIG1       -0.0976
     11 C           1.7446    1.5270   -2.2536 C.ar    1  LIG1       -0.0499
     12 C           2.9247    6.0499   -2.6129 C.ar    1  LIG1       -0.0530
     13 C           1.8361    4.3492    3.3874 C.ar    1  LIG1        0.0198
     14 C           0.7440    3.0493   -0.6485 C.ar    1  LIG1       -0.0353
     15 C           1.3728    5.4620   -0.8404 C.ar    1  LIG1       -0.0355
     16 C           1.8129    4.5226    6.1716 C.ar    1  LIG1       -0.1129
     17 C           1.5326    2.8256   -1.7821 C.ar    1  LIG1        0.0259
     18 C           2.1264    5.1040   -1.9633 C.ar    1  LIG1        0.0240
     19 C           1.8471    4.2574    1.9046 C.2     1  LIG1        0.1036
     20 C           0.4867    4.4512   -0.1612 C.3     1  LIG1        0.0185
     21 C           1.8003    4.6140    7.6603 C.3     1  LIG1       -0.0399
     22 N           0.6424    4.5236    1.2748 N.am    1  LIG1       -0.3287
     23 O           2.8856    3.9398    1.3309 O.2     1  LIG1       -0.4781
     24 O           2.1376    3.8352   -2.4930 O.3     1  LIG1       -0.3576
     25 H          -0.0423   -0.1933    0.0684 H       1  LIG1        0.1187
     26 H           2.2917    8.7427   -0.6403 H       1  LIG1        0.1162
     27 H           1.3451   -0.5675   -1.9524 H       1  LIG1        0.1344
     28 H           3.6065    8.0922   -2.6395 H       1  LIG1        0.1322
     29 H           3.4569    2.9449    3.6521 H       1  LIG1        0.1436
     30 H           0.2120    5.7744    3.4501 H       1  LIG1        0.1265
     31 H          -0.4327    2.0970    0.9001 H       1  LIG1        0.1298
     32 H           0.8687    7.0828    0.5043 H       1  LIG1        0.1359
     33 H           3.4356    3.0984    6.1113 H       1  LIG1        0.1233
     34 H           0.1922    5.9260    5.9084 H       1  LIG1        0.1209
     35 H           2.3542    1.3545   -3.1368 H       1  LIG1        0.1360
     36 H           3.5067    5.7718   -3.4876 H       1  LIG1        0.1333
     37 H          -0.5562    4.7067   -0.3896 H       1  LIG1        0.1602
     38 H           2.4740    5.4103    7.9997 H       1  LIG1        0.0604
     39 H           0.7918    4.8270    8.0377 H       1  LIG1        0.0561
     40 H           2.1185    3.6693    8.1201 H       1  LIG1        0.0565
     41 H          -0.1910    4.7186    1.8192 H       1  LIG1        0.3050
@<TRIPOS>BOND
     1     1     3   ar
     2     1     7   ar
     3     2     4   ar
     4     2     8   ar
     5     3    11   ar
     6     4    12   ar
     7     5     9   ar
     8     5    13   ar
     9     6    10   ar
    10     6    13   ar
    11     7    14   ar
    12     8    15   ar
    13     9    16   ar
    14    10    16   ar
    15    11    17   ar
    16    12    18   ar
    17    13    19    1
    18    14    17   ar
    19    14    20    1
    20    15    18   ar
    21    15    20    1
    22    16    21    1
    23    17    24    1
    24    18    24    1
    25    19    22   am
    26    19    23    2
    27    20    22    1
    28     1    25    1
    29     2    26    1
    30     3    27    1
    31     4    28    1
    32     5    29    1
    33     6    30    1
    34     7    31    1
    35     8    32    1
    36     9    33    1
    37    10    34    1
    38    11    35    1
    39    12    36    1
    40    20    37    1
    41    21    38    1
    42    21    39    1
    43    21    40    1
    44    22    41    1
