@<TRIPOS>MOLECULE
AG-690/10517031
 41 44 0 0 0
SMALL
USER_CHARGES

@<TRIPOS>ATOM
      1 C           2.3020    7.2114   -2.9275 C.ar    1  LIG1       -0.1057
      2 C           0.6167    0.7521   -2.3862 C.ar    1  LIG1       -0.1019
      3 C           1.0540    7.1408   -2.3085 C.ar    1  LIG1       -0.1001
      4 C           3.3891    6.5253   -2.3858 C.ar    1  LIG1       -0.0990
      5 C           1.8646    1.3736   -2.3440 C.ar    1  LIG1       -0.1003
      6 C          -0.3514    1.0657   -1.4322 C.ar    1  LIG1       -0.0949
      7 C           0.8930    6.3842   -1.1479 C.ar    1  LIG1       -0.0783
      8 C           3.2280    5.7686   -1.2251 C.ar    1  LIG1       -0.0763
      9 C           2.1447    2.3088   -1.3478 C.ar    1  LIG1       -0.0857
     10 C          -0.0714    2.0010   -0.4359 C.ar    1  LIG1       -0.0782
     11 C           0.9753    5.3150    4.8090 C.ar    1  LIG1       -0.0434
     12 C           1.0280    5.3454    6.2025 C.ar    1  LIG1       -0.0467
     13 C           2.6911    3.6143    4.7812 C.ar    1  LIG1        0.0077
     14 C           1.9800    5.6980   -0.6061 C.ar    1  LIG1       -0.0369
     15 C           1.1766    2.6225   -0.3936 C.ar    1  LIG1       -0.0511
     16 C           1.8069    4.4494    4.0983 C.ar    1  LIG1        0.0091
     17 C           2.7438    3.6447    6.1748 C.ar    1  LIG1        0.0973
     18 C           1.9121    4.5102    6.8854 C.ar    1  LIG1        0.0322
     19 C           1.8145    4.9191    0.5889 C.ar    1  LIG1        0.0100
     20 C           1.4658    3.5899    0.6354 C.ar    1  LIG1       -0.0097
     21 C           1.7515    4.4194    2.6570 C.ar    1  LIG1        0.0212
     22 N           1.9912    5.4295    1.8506 N.ar    1  LIG1       -0.3535
     23 N           1.4299    3.2839    1.9666 N.ar    1  LIG1       -0.3206
     24 N           3.6602    2.7763    6.8327 N.pl3   1  LIG1       -0.0456
     25 O           4.8208    3.1869    7.0659 O.2     1  LIG1       -0.1496
     26 O           3.2777    1.6284    7.1581 O.2     1  LIG1       -0.2602
     27 BR          1.9362    4.5981    8.7828 Br      1  LIG1       -0.0417
     28 H           2.4274    7.7998   -3.8318 H       1  LIG1        0.1165
     29 H           0.3985    0.0243   -3.1624 H       1  LIG1        0.1214
     30 H           0.2073    7.6739   -2.7308 H       1  LIG1        0.1169
     31 H           4.3603    6.5795   -2.8686 H       1  LIG1        0.1182
     32 H           2.6184    1.1290   -3.0869 H       1  LIG1        0.1193
     33 H          -1.3236    0.5826   -1.4657 H       1  LIG1        0.1226
     34 H          -0.0863    6.3390   -0.6770 H       1  LIG1        0.1247
     35 H           4.0853    5.2396   -0.8153 H       1  LIG1        0.1300
     36 H           3.1213    2.7866   -1.3300 H       1  LIG1        0.1204
     37 H          -0.8363    2.2339    0.3011 H       1  LIG1        0.1334
     38 H           0.2810    5.9722    4.2911 H       1  LIG1        0.1551
     39 H           0.3720    6.0266    6.7385 H       1  LIG1        0.1636
     40 H           3.3406    2.9387    4.2264 H       1  LIG1        0.1969
     41 H           1.2057    2.3825    2.3682 H       1  LIG1        0.3631
@<TRIPOS>BOND
     1     1     3   ar
     2     1     4   ar
     3     2     5   ar
     4     2     6   ar
     5     3     7   ar
     6     4     8   ar
     7     5     9   ar
     8     6    10   ar
     9     7    14   ar
    10     8    14   ar
    11     9    15   ar
    12    10    15   ar
    13    11    12   ar
    14    11    16   ar
    15    12    18   ar
    16    13    16   ar
    17    13    17   ar
    18    14    19    1
    19    15    20    1
    20    16    21    1
    21    17    18   ar
    22    17    24    1
    23    18    27    1
    24    19    20   ar
    25    19    22   ar
    26    20    23   ar
    27    21    22   ar
    28    21    23   ar
    29    24    25    1
    30    24    26    2
    31     1    28    1
    32     2    29    1
    33     3    30    1
    34     4    31    1
    35     5    32    1
    36     6    33    1
    37     7    34    1
    38     8    35    1
    39     9    36    1
    40    10    37    1
    41    11    38    1
    42    12    39    1
    43    13    40    1
    44    23    41    1
