@<TRIPOS>MOLECULE
AG-205/08243039
 38 41 0 0 0
SMALL
USER_CHARGES

@<TRIPOS>ATOM
      1 C           1.6768    0.9251   -2.3336 C.ar    1  LIG1       -0.0863
      2 C           2.1168    6.9801   -2.2144 C.ar    1  LIG1       -0.1133
      3 C           3.1199    4.1352    4.7974 C.ar    1  LIG1       -0.0639
      4 C           0.8344    4.7740    4.3441 C.ar    1  LIG1       -0.0617
      5 C           2.2758    1.6982   -1.3391 C.ar    1  LIG1       -0.0488
      6 C           2.9257    4.4019    6.1526 C.ar    1  LIG1       -0.0411
      7 C           0.6401    5.0408    5.6994 C.ar    1  LIG1       -0.0400
      8 C           0.2866    0.8796   -2.4390 C.ar    1  LIG1       -0.0759
      9 C           2.9303    5.9194   -1.7212 C.ar    1  LIG1       -0.1079
     10 C           0.0947    2.3803   -0.5554 C.ar    1  LIG1       -0.0291
     11 C           1.0372    7.2280   -1.3956 C.ar    1  LIG1       -0.0532
     12 C           2.0743    4.3213    3.8930 C.ar    1  LIG1       -0.0286
     13 C           1.4848    2.4257   -0.4500 C.ar    1  LIG1       -0.0150
     14 C           1.6858    4.8547    6.6037 C.ar    1  LIG1        0.0653
     15 C          -0.5044    1.6072   -1.5500 C.ar    1  LIG1       -0.0104
     16 C           2.4415    5.3972   -0.5437 C.ar    1  LIG1       -0.0390
     17 C           2.2770    4.0430    2.4801 C.2     1  LIG1        0.0133
     18 C           3.3233    4.7826    1.6924 C.3     1  LIG1        0.0358
     19 C           2.9978    4.2927    0.2788 C.3     1  LIG1        0.0316
     20 N           1.6179    3.1499    1.8114 N.2     1  LIG1       -0.3187
     21 N           2.0740    3.1852    0.5275 N.pl3   1  LIG1       -0.3158
     22 F           1.4992    5.1107    7.9051 F       1  LIG1       -0.2661
     23 S           1.0074    6.1846   -0.0381 S.2     1  LIG1       -0.1417
     24 CL         -2.2194    1.5496   -1.6802 Cl      1  LIG1       -0.1375
     25 H           2.2933    0.3583   -3.0252 H       1  LIG1        0.1361
     26 H           2.3132    7.5339   -3.1231 H       1  LIG1        0.1122
     27 H           4.0899    3.7827    4.4568 H       1  LIG1        0.1447
     28 H           0.0123    4.9219    3.6482 H       1  LIG1        0.1493
     29 H           3.3598    1.7270   -1.2658 H       1  LIG1        0.1341
     30 H           3.7395    4.2569    6.8568 H       1  LIG1        0.1353
     31 H          -0.3252    5.3938    6.0507 H       1  LIG1        0.1350
     32 H          -0.1665    0.2729   -3.2188 H       1  LIG1        0.1225
     33 H           3.8288    5.5621   -2.2083 H       1  LIG1        0.1163
     34 H          -0.5186    2.9491    0.1404 H       1  LIG1        0.1323
     35 H           0.2644    7.9717   -1.5297 H       1  LIG1        0.1642
     36 H           3.2446    5.8640    1.8356 H       1  LIG1        0.1066
     37 H           4.3109    4.4360    2.0152 H       1  LIG1        0.1043
     38 H           3.9087    3.9246   -0.2082 H       1  LIG1        0.1556
@<TRIPOS>BOND
     1     1     5   ar
     2     1     8   ar
     3     2     9   ar
     4     2    11   ar
     5     3     6   ar
     6     3    12   ar
     7     4     7   ar
     8     4    12   ar
     9     5    13   ar
    10     6    14   ar
    11     7    14   ar
    12     8    15   ar
    13     9    16   ar
    14    10    13   ar
    15    10    15   ar
    16    11    23   ar
    17    12    17    1
    18    13    21    1
    19    14    22    1
    20    15    24    1
    21    16    19    1
    22    16    23   ar
    23    17    18    1
    24    17    20    2
    25    18    19    1
    26    19    21    1
    27    20    21    1
    28     1    25    1
    29     2    26    1
    30     3    27    1
    31     4    28    1
    32     5    29    1
    33     6    30    1
    34     7    31    1
    35     8    32    1
    36     9    33    1
    37    10    34    1
    38    11    35    1
    39    18    36    1
    40    18    37    1
    41    19    38    1
