@<TRIPOS>MOLECULE
AE-641/30155004
 46 49 0 0 0
SMALL
USER_CHARGES

@<TRIPOS>ATOM
      1 C           2.3917    7.4352   -2.3379 C.ar    1  LIG1       -0.1039
      2 C           1.2000    7.3768   -1.6302 C.ar    1  LIG1       -0.1034
      3 C           3.3392    6.4268   -2.1781 C.ar    1  LIG1       -0.1001
      4 C           0.9596    6.3101   -0.7643 C.ar    1  LIG1       -0.0964
      5 C           0.0955    2.1533   -0.2846 C.ar    1  LIG1       -0.1055
      6 C           0.0332    1.0339   -1.0756 C.ar    1  LIG1       -0.0535
      7 C           3.1130    5.3447   -1.3053 C.ar    1  LIG1       -0.0872
      8 C           1.9047    5.2776   -0.5828 C.ar    1  LIG1       -0.0902
      9 C           1.3182    2.9076   -0.4420 C.ar    1  LIG1       -0.0943
     10 C           2.1461    2.2912   -1.3759 C.ar    1  LIG1       -0.0091
     11 C           4.1689    4.2824   -1.1988 C.3     1  LIG1        0.0243
     12 C           2.9432    5.2883    2.1409 C.3     1  LIG1       -0.0640
     13 C           1.7586    3.1285    2.6646 C.3     1  LIG1       -0.0656
     14 C           3.8158    5.1101    3.3778 C.3     1  LIG1       -0.1007
     15 C           2.6305    2.9496    3.9018 C.3     1  LIG1       -0.0982
     16 C           1.5469    4.1583    0.3777 C.3     1  LIG1       -0.0218
     17 C           2.4641    3.9469    1.5806 C.3     1  LIG1       -0.0543
     18 C           1.9549    5.0767    5.0866 C.3     1  LIG1       -0.0860
     19 C           4.1218    4.0076    5.5797 C.3     1  LIG1       -0.0864
     20 N           3.1089    4.2922    4.4628 N.4     1  LIG1        0.3854
     21 S           1.4341    0.8572   -2.0180 S.2     1  LIG1       -0.1367
     22 S           3.7336    2.7328   -2.0011 S.3     1  LIG1       -0.1628
     23 H           2.5895    8.2655   -3.0082 H       1  LIG1        0.1212
     24 H           0.4590    8.1601   -1.7448 H       1  LIG1        0.1246
     25 H           4.2711    6.4892   -2.7404 H       1  LIG1        0.1169
     26 H           0.0154    6.3022   -0.2223 H       1  LIG1        0.1174
     27 H          -0.7136    2.4254    0.3816 H       1  LIG1        0.1221
     28 H          -0.7722    0.3171   -1.1417 H       1  LIG1        0.1701
     29 H           5.1330    4.6475   -1.5713 H       1  LIG1        0.1063
     30 H           4.3551    4.0516   -0.1417 H       1  LIG1        0.1269
     31 H           2.0869    5.9345    2.3699 H       1  LIG1        0.0759
     32 H           3.5243    5.8178    1.3748 H       1  LIG1        0.0791
     33 H           1.5049    2.1371    2.2675 H       1  LIG1        0.0628
     34 H           0.8048    3.5971    2.9366 H       1  LIG1        0.0778
     35 H           4.7357    4.5728    3.1165 H       1  LIG1        0.0857
     36 H           4.0869    6.0785    3.8133 H       1  LIG1        0.0877
     37 H           2.0845    2.4311    4.6981 H       1  LIG1        0.0885
     38 H           3.5254    2.3664    3.6525 H       1  LIG1        0.0896
     39 H           0.5663    4.4023    0.8690 H       1  LIG1        0.1014
     40 H           3.3396    3.3827    1.2346 H       1  LIG1        0.0750
     41 H           1.4941    4.4442    5.8476 H       1  LIG1        0.0809
     42 H           2.3687    5.9849    5.5288 H       1  LIG1        0.0810
     43 H           1.2451    5.3152    4.2922 H       1  LIG1        0.0802
     44 H           3.6140    3.4249    6.3505 H       1  LIG1        0.0814
     45 H           4.9502    3.4455    5.1443 H       1  LIG1        0.0790
     46 H           4.4628    4.9669    5.9739 H       1  LIG1        0.0787
@<TRIPOS>BOND
     1     1     2   ar
     2     1     3   ar
     3     2     4   ar
     4     3     7   ar
     5     4     8   ar
     6     5     6   ar
     7     5     9   ar
     8     6    21   ar
     9     7     8   ar
    10     7    11    1
    11     8    16    1
    12     9    10   ar
    13     9    16    1
    14    10    21   ar
    15    10    22    1
    16    11    22    1
    17    12    14    1
    18    12    17    1
    19    13    15    1
    20    13    17    1
    21    14    20    1
    22    15    20    1
    23    16    17    1
    24    18    20    1
    25    19    20    1
    26     1    23    1
    27     2    24    1
    28     3    25    1
    29     4    26    1
    30     5    27    1
    31     6    28    1
    32    11    29    1
    33    11    30    1
    34    12    31    1
    35    12    32    1
    36    13    33    1
    37    13    34    1
    38    14    35    1
    39    14    36    1
    40    15    37    1
    41    15    38    1
    42    16    39    1
    43    17    40    1
    44    18    41    1
    45    18    42    1
    46    18    43    1
    47    19    44    1
    48    19    45    1
    49    19    46    1
