@<TRIPOS>MOLECULE
ZINC01115339
 48 50 0 0 0
SMALL
USER_CHARGES

@<TRIPOS>ATOM
      1 C           0.5551    4.6806    5.5075 C.ar    1  LIG1       -0.1091
      2 C           1.7745    7.6454   -2.4826 C.ar    1  LIG1       -0.1100
      3 C           0.0398    0.8859   -1.0629 C.ar    1  LIG1       -0.1097
      4 C           1.2780    5.4854    4.6270 C.ar    1  LIG1       -0.1066
      5 C           1.0577    3.4361    5.8874 C.ar    1  LIG1       -0.1066
      6 C           1.2000    7.3332   -1.2505 C.ar    1  LIG1       -0.1080
      7 C           2.7197    6.7898   -3.0484 C.ar    1  LIG1       -0.1076
      8 C          -0.2046    1.8708   -0.1058 C.ar    1  LIG1       -0.1073
      9 C           1.2157    0.9185   -1.8126 C.ar    1  LIG1       -0.1081
     10 C           2.5034    5.0457    4.1263 C.ar    1  LIG1       -0.1003
     11 C           2.2831    2.9964    5.3868 C.ar    1  LIG1       -0.1004
     12 C           1.5710    6.1654   -0.5840 C.ar    1  LIG1       -0.1017
     13 C           3.0908    5.6220   -2.3819 C.ar    1  LIG1       -0.1014
     14 C           0.7267    2.8882    0.1015 C.ar    1  LIG1       -0.1014
     15 C           2.1470    1.9361   -1.6053 C.ar    1  LIG1       -0.1021
     16 C           3.0060    3.8011    4.5061 C.ar    1  LIG1       -0.0839
     17 C           2.5165    5.3098   -1.1496 C.ar    1  LIG1       -0.1007
     18 C           1.9026    2.9209   -0.6483 C.ar    1  LIG1       -0.1010
     19 C           4.2034    2.5435    2.6726 C.2     1  LIG1        0.0742
     20 C           4.3287    3.3257    3.9659 C.3     1  LIG1        0.0665
     21 C           4.3831    3.5933   -0.7114 C.3     1  LIG1       -0.0301
     22 C           4.9556    2.6017    0.3060 C.3     1  LIG1       -0.0329
     23 C           2.9223    4.0344   -0.4221 C.3     1  LIG1       -0.0188
     24 N           4.9083    3.1481    1.6407 N.am    1  LIG1       -0.3607
     25 O           3.5578    1.5035    2.5689 O.2     1  LIG1       -0.4902
     26 H          -0.3983    5.0237    5.8983 H       1  LIG1        0.1131
     27 H           1.4844    8.5541   -3.0022 H       1  LIG1        0.1123
     28 H          -0.6849    0.0930   -1.2232 H       1  LIG1        0.1122
     29 H           0.8874    6.4548    4.3319 H       1  LIG1        0.1143
     30 H           0.4957    2.8097    6.5738 H       1  LIG1        0.1143
     31 H           0.4632    7.9987   -0.8104 H       1  LIG1        0.1137
     32 H           3.1663    7.0320   -4.0081 H       1  LIG1        0.1144
     33 H          -1.1195    1.8449    0.4788 H       1  LIG1        0.1146
     34 H           1.4068    0.1513   -2.5571 H       1  LIG1        0.1133
     35 H           3.0597    5.6793    3.4405 H       1  LIG1        0.1164
     36 H           2.6668    2.0252    5.6882 H       1  LIG1        0.1164
     37 H           1.1184    5.9304    0.3757 H       1  LIG1        0.1161
     38 H           3.8282    4.9614   -2.8301 H       1  LIG1        0.1166
     39 H           0.5278    3.6515    0.8492 H       1  LIG1        0.1165
     40 H           3.0602    1.9534   -2.1943 H       1  LIG1        0.1154
     41 H           4.9872    4.1870    3.7958 H       1  LIG1        0.1155
     42 H           4.8276    2.6932    4.7110 H       1  LIG1        0.1156
     43 H           5.0529    4.4606   -0.7452 H       1  LIG1        0.0638
     44 H           4.4250    3.1343   -1.7089 H       1  LIG1        0.0655
     45 H           5.9843    2.3235    0.0574 H       1  LIG1        0.0932
     46 H           4.3601    1.6826    0.2852 H       1  LIG1        0.0962
     47 H           2.8962    4.2467    0.6565 H       1  LIG1        0.0959
     48 H           5.4113    4.0101    1.8330 H       1  LIG1        0.2927
@<TRIPOS>BOND
     1     1     4   ar
     2     1     5   ar
     3     2     6   ar
     4     2     7   ar
     5     3     8   ar
     6     3     9   ar
     7     4    10   ar
     8     5    11   ar
     9     6    12   ar
    10     7    13   ar
    11     8    14   ar
    12     9    15   ar
    13    10    16   ar
    14    11    16   ar
    15    12    17   ar
    16    13    17   ar
    17    14    18   ar
    18    15    18   ar
    19    16    20    1
    20    17    23    1
    21    18    23    1
    22    19    20    1
    23    19    24   am
    24    19    25    2
    25    21    22    1
    26    21    23    1
    27    22    24    1
    28     1    26    1
    29     2    27    1
    30     3    28    1
    31     4    29    1
    32     5    30    1
    33     6    31    1
    34     7    32    1
    35     8    33    1
    36     9    34    1
    37    10    35    1
    38    11    36    1
    39    12    37    1
    40    13    38    1
    41    14    39    1
    42    15    40    1
    43    20    41    1
    44    20    42    1
    45    21    43    1
    46    21    44    1
    47    22    45    1
    48    22    46    1
    49    23    47    1
    50    24    48    1
