@<TRIPOS>MOLECULE
AG-205/08241055
 54 59 0 0 0
SMALL
USER_CHARGES

@<TRIPOS>ATOM
      1 C           0.6963    4.3953   10.7225 C.ar    1  LIG1       -0.1077
      2 C           1.9738    7.3245   -2.9468 C.ar    1  LIG1       -0.1098
      3 C           0.7201    3.1818   10.0353 C.ar    1  LIG1       -0.1045
      4 C           0.9470    5.5871   10.0423 C.ar    1  LIG1       -0.1044
      5 C           2.9161    6.2970   -2.9890 C.ar    1  LIG1       -0.1017
      6 C           1.2063    7.5205   -1.7987 C.ar    1  LIG1       -0.0997
      7 C           0.9947    3.1598    8.6679 C.ar    1  LIG1       -0.0930
      8 C           1.2216    5.5652    8.6749 C.ar    1  LIG1       -0.0930
      9 C           2.8460    4.2055    6.1239 C.ar    1  LIG1       -0.0798
     10 C           0.4881    4.4292    5.6473 C.ar    1  LIG1       -0.0810
     11 C           3.1203    4.1832    4.7565 C.ar    1  LIG1       -0.0692
     12 C           0.7624    4.4069    4.2798 C.ar    1  LIG1       -0.0714
     13 C           2.2429    1.8403   -1.5058 C.ar    1  LIG1       -0.0764
     14 C           3.0909    5.4653   -1.8830 C.ar    1  LIG1       -0.0617
     15 C           1.3812    6.6888   -0.6926 C.ar    1  LIG1       -0.0578
     16 C           1.2937    1.0491   -2.1570 C.ar    1  LIG1       -0.0500
     17 C           0.5768    2.5899    0.1037 C.ar    1  LIG1       -0.0453
     18 C           1.2454    4.3515    7.9876 C.ar    1  LIG1       -0.0805
     19 C           1.5299    4.3285    6.5694 C.ar    1  LIG1       -0.0764
     20 C           2.0785    4.2839    3.8345 C.ar    1  LIG1       -0.0337
     21 C           1.8866    2.6063   -0.3818 C.ar    1  LIG1       -0.0641
     22 C           2.3235    5.6612   -0.7348 C.ar    1  LIG1       -0.0269
     23 C           0.0075    1.0506   -1.6576 C.ar    1  LIG1        0.0312
     24 C          -0.3414    1.8003   -0.5574 C.ar    1  LIG1        0.0319
     25 C           2.3640    4.2606    2.4115 C.2     1  LIG1        0.0101
     26 C           3.0414    3.0743    1.7788 C.3     1  LIG1        0.0315
     27 C          -2.0939    0.7360   -1.2486 C.3     1  LIG1        0.1117
     28 C           2.9181    3.4439    0.2974 C.3     1  LIG1        0.0253
     29 N           2.0953    5.2329    1.5956 N.2     1  LIG1       -0.3223
     30 N           2.4950    4.8446    0.3518 N.pl3   1  LIG1       -0.3220
     31 O          -1.0439    0.3456   -2.1571 O.3     1  LIG1       -0.3782
     32 O          -1.6549    1.6587   -0.2306 O.3     1  LIG1       -0.3786
     33 H           0.4809    4.4123   11.7869 H       1  LIG1        0.1154
     34 H           1.8376    7.9720   -3.8084 H       1  LIG1        0.1049
     35 H           0.5233    2.2540   10.5644 H       1  LIG1        0.1167
     36 H           0.9272    6.5325   10.5764 H       1  LIG1        0.1169
     37 H           3.5134    6.1446   -3.8829 H       1  LIG1        0.1215
     38 H           0.4725    8.3207   -1.7661 H       1  LIG1        0.1223
     39 H           1.0093    2.2057    8.1463 H       1  LIG1        0.1226
     40 H           1.4144    6.5022    8.1579 H       1  LIG1        0.1226
     41 H           3.6690    4.1261    6.8303 H       1  LIG1        0.1277
     42 H          -0.5431    4.5255    5.9789 H       1  LIG1        0.1281
     43 H           4.1495    4.0870    4.4204 H       1  LIG1        0.1380
     44 H          -0.0571    4.4860    3.5700 H       1  LIG1        0.1333
     45 H           3.2647    1.8590   -1.8770 H       1  LIG1        0.1349
     46 H           3.8278    4.6675   -1.9260 H       1  LIG1        0.1161
     47 H           0.7775    6.8510    0.1968 H       1  LIG1        0.1258
     48 H           1.5643    0.4569   -3.0237 H       1  LIG1        0.1413
     49 H           0.2891    3.1762    0.9698 H       1  LIG1        0.1439
     50 H           4.0890    3.0656    2.0985 H       1  LIG1        0.1015
     51 H           2.5592    2.1336    2.0588 H       1  LIG1        0.1007
     52 H          -2.8993    1.2061   -1.8245 H       1  LIG1        0.1688
     53 H          -2.4882   -0.1629   -0.7609 H       1  LIG1        0.2035
     54 H           3.8772    3.3303   -0.2199 H       1  LIG1        0.1404
@<TRIPOS>BOND
     1     1     3   ar
     2     1     4   ar
     3     2     5   ar
     4     2     6   ar
     5     3     7   ar
     6     4     8   ar
     7     5    14   ar
     8     6    15   ar
     9     7    18   ar
    10     8    18   ar
    11     9    11   ar
    12     9    19   ar
    13    10    12   ar
    14    10    19   ar
    15    11    20   ar
    16    12    20   ar
    17    13    16   ar
    18    13    21   ar
    19    14    22   ar
    20    15    22   ar
    21    16    23   ar
    22    17    21   ar
    23    17    24   ar
    24    18    19    1
    25    20    25    1
    26    21    28    1
    27    22    30    1
    28    23    24   ar
    29    23    31    1
    30    24    32    1
    31    25    26    1
    32    25    29    2
    33    26    28    1
    34    27    31    1
    35    27    32    1
    36    28    30    1
    37    29    30    1
    38     1    33    1
    39     2    34    1
    40     3    35    1
    41     4    36    1
    42     5    37    1
    43     6    38    1
    44     7    39    1
    45     8    40    1
    46     9    41    1
    47    10    42    1
    48    11    43    1
    49    12    44    1
    50    13    45    1
    51    14    46    1
    52    15    47    1
    53    16    48    1
    54    17    49    1
    55    26    50    1
    56    26    51    1
    57    27    52    1
    58    27    53    1
    59    28    54    1
