@<TRIPOS>MOLECULE
AG-690/10687032
 41 44 0 0 0
SMALL
USER_CHARGES

@<TRIPOS>ATOM
      1 C           0.6239    0.7853   -2.4595 C.ar    1  LIG1       -0.1049
      2 C           1.8718    1.4027   -2.3740 C.ar    1  LIG1       -0.0996
      3 C          -0.3556    1.0571   -1.5044 C.ar    1  LIG1       -0.0985
      4 C           2.1401    2.2918   -1.3334 C.ar    1  LIG1       -0.0784
      5 C          -0.0872    1.9462   -0.4636 C.ar    1  LIG1       -0.0763
      6 C           0.6613    4.1189    4.8976 C.ar    1  LIG1       -0.0349
      7 C           2.9858    4.7462    4.6968 C.ar    1  LIG1       -0.0461
      8 C           2.9274    5.3080   -1.5658 C.ar    1  LIG1       -0.0657
      9 C           1.1754    6.7763   -0.7838 C.ar    1  LIG1       -0.0727
     10 C           0.7442    4.2553    6.2832 C.ar    1  LIG1       -0.0276
     11 C           3.0687    4.8826    6.0825 C.ar    1  LIG1       -0.0341
     12 C           3.1043    6.1169   -2.6883 C.ar    1  LIG1       -0.0705
     13 C           1.3524    7.5853   -1.9063 C.ar    1  LIG1       -0.0756
     14 C           1.1607    2.5636   -0.3781 C.ar    1  LIG1       -0.0365
     15 C           1.9629    5.6377   -0.6136 C.ar    1  LIG1       -0.0433
     16 C           1.7821    4.3644    4.1043 C.ar    1  LIG1       -0.0040
     17 C           1.9479    4.6372    6.8757 C.ar    1  LIG1        0.0693
     18 C           2.3169    7.2556   -2.8585 C.ar    1  LIG1       -0.0366
     19 C           1.4367    3.4788    0.6936 C.ar    1  LIG1        0.0111
     20 C           1.7806    4.8019    0.5469 C.ar    1  LIG1       -0.0066
     21 C           1.6972    4.2216    2.6712 C.ar    1  LIG1        0.0241
     22 N           1.3863    3.1238    2.0184 N.ar    1  LIG1       -0.3506
     23 N           1.9438    5.2645    1.8222 N.ar    1  LIG1       -0.3190
     24 N           2.0322    4.7758    8.2862 N.pl3   1  LIG1       -0.0618
     25 O           1.0122    4.5501    8.9815 O.2     1  LIG1       -0.1718
     26 O           3.1243    5.1202    8.7993 O.2     1  LIG1       -0.2651
     27 BR          2.5587    8.3538   -4.3776 Br      1  LIG1       -0.1059
     28 H           0.4144    0.0938   -3.2704 H       1  LIG1        0.1176
     29 H           2.6341    1.1922   -3.1184 H       1  LIG1        0.1179
     30 H          -1.3275    0.5772   -1.5718 H       1  LIG1        0.1186
     31 H           3.1179    2.7651   -1.2804 H       1  LIG1        0.1246
     32 H          -0.8615    2.1475    0.2731 H       1  LIG1        0.1303
     33 H          -0.2842    3.8207    4.4509 H       1  LIG1        0.1668
     34 H           3.8688    4.9396    4.0921 H       1  LIG1        0.1410
     35 H           3.5492    4.4236   -1.4476 H       1  LIG1        0.1441
     36 H           0.4197    7.0469   -0.0503 H       1  LIG1        0.1317
     37 H          -0.1368    4.0604    6.8899 H       1  LIG1        0.1742
     38 H           4.0132    5.1793    6.5320 H       1  LIG1        0.1715
     39 H           3.8605    5.8463   -3.4211 H       1  LIG1        0.1407
     40 H           0.7312    8.4696   -2.0233 H       1  LIG1        0.1379
     41 H           2.2006    6.2062    2.0894 H       1  LIG1        0.3650
@<TRIPOS>BOND
     1     1     2   ar
     2     1     3   ar
     3     2     4   ar
     4     3     5   ar
     5     4    14   ar
     6     5    14   ar
     7     6    10   ar
     8     6    16   ar
     9     7    11   ar
    10     7    16   ar
    11     8    12   ar
    12     8    15   ar
    13     9    13   ar
    14     9    15   ar
    15    10    17   ar
    16    11    17   ar
    17    12    18   ar
    18    13    18   ar
    19    14    19    1
    20    15    20    1
    21    16    21    1
    22    17    24    1
    23    18    27    1
    24    19    20   ar
    25    19    22   ar
    26    20    23   ar
    27    21    22   ar
    28    21    23   ar
    29    24    25    1
    30    24    26    2
    31     1    28    1
    32     2    29    1
    33     3    30    1
    34     4    31    1
    35     5    32    1
    36     6    33    1
    37     7    34    1
    38     8    35    1
    39     9    36    1
    40    10    37    1
    41    11    38    1
    42    12    39    1
    43    13    40    1
    44    23    41    1
