@<TRIPOS>MOLECULE
AG-690/10532057
 49 52 0 0 0
SMALL
USER_CHARGES

@<TRIPOS>ATOM
      1 C           2.1938    1.8112   -0.9364 C.ar    1  LIG1       -0.0765
      2 C          -0.1411    2.4269   -0.8610 C.ar    1  LIG1       -0.0779
      3 C           0.8840    6.3493   -1.1362 C.ar    1  LIG1       -0.0842
      4 C           3.2189    5.7335   -1.2127 C.ar    1  LIG1       -0.0776
      5 C           2.9914    4.1238    4.7591 C.ar    1  LIG1       -0.0600
      6 C           0.6566    4.7402    4.8360 C.ar    1  LIG1       -0.0647
      7 C           1.9259    0.9229   -1.9780 C.ar    1  LIG1       -0.0992
      8 C          -0.4091    1.5387   -1.9025 C.ar    1  LIG1       -0.0998
      9 C           1.0604    7.1582   -2.2588 C.ar    1  LIG1       -0.1003
     10 C           3.3954    6.5423   -2.3353 C.ar    1  LIG1       -0.0955
     11 C           3.0736    4.2620    6.1446 C.ar    1  LIG1       -0.0827
     12 C           0.7388    4.8783    6.2215 C.ar    1  LIG1       -0.0807
     13 C           1.1603    2.5632   -0.3779 C.ar    1  LIG1       -0.0405
     14 C           1.9632    5.6370   -0.6130 C.ar    1  LIG1       -0.0526
     15 C           1.7830    4.3629    4.1047 C.ar    1  LIG1       -0.0106
     16 C           0.6246    0.7867   -2.4610 C.ar    1  LIG1       -0.1182
     17 C           2.3162    7.2546   -2.8584 C.ar    1  LIG1       -0.1155
     18 C           1.9472    4.6392    6.8759 C.ar    1  LIG1       -0.0708
     19 C           1.4367    3.4781    0.6939 C.ar    1  LIG1       -0.0010
     20 C           1.7808    4.8012    0.5473 C.ar    1  LIG1       -0.0187
     21 C           1.6978    4.2205    2.6715 C.ar    1  LIG1        0.0160
     22 C           0.3394   -0.1623   -3.5755 C.3     1  LIG1       -0.0445
     23 C           2.5049    8.1197   -4.0583 C.3     1  LIG1       -0.0428
     24 C           0.8033    6.0939    8.8978 C.3     1  LIG1       -0.0132
     25 N           1.3865    3.1229    2.0186 N.ar    1  LIG1       -0.3620
     26 N           1.9444    5.2636    1.8227 N.ar    1  LIG1       -0.3263
     27 S           2.0521    4.8135    8.6462 S.3     1  LIG1       -0.2156
     28 H           3.2137    1.9051   -0.5708 H       1  LIG1        0.1288
     29 H          -0.9576    3.0062   -0.4362 H       1  LIG1        0.1243
     30 H          -0.1010    6.2848   -0.6799 H       1  LIG1        0.1204
     31 H           4.0700    5.1842   -0.8169 H       1  LIG1        0.1315
     32 H           3.8782    3.8286    4.2030 H       1  LIG1        0.1502
     33 H          -0.2925    4.9291    4.3402 H       1  LIG1        0.1291
     34 H           2.7371    0.3414   -2.4080 H       1  LIG1        0.1165
     35 H          -1.4257    1.4385   -2.2733 H       1  LIG1        0.1163
     36 H           0.2142    7.7099   -2.6594 H       1  LIG1        0.1188
     37 H           4.3774    6.6113   -2.7958 H       1  LIG1        0.1216
     38 H           4.0243    4.0714    6.6371 H       1  LIG1        0.1225
     39 H          -0.1494    5.1737    6.7747 H       1  LIG1        0.1329
     40 H           0.0914   -1.1543   -3.1785 H       1  LIG1        0.0560
     41 H          -0.5004    0.1861   -4.1907 H       1  LIG1        0.0528
     42 H           1.2037   -0.2617   -4.2453 H       1  LIG1        0.0526
     43 H           2.7832    9.1367   -3.7562 H       1  LIG1        0.0579
     44 H           3.2908    7.7246   -4.7150 H       1  LIG1        0.0542
     45 H           1.5873    8.1740   -4.6588 H       1  LIG1        0.0537
     46 H           0.7279    6.3360    9.9608 H       1  LIG1        0.0690
     47 H          -0.1679    5.7397    8.5433 H       1  LIG1        0.0690
     48 H           1.0788    6.9949    8.3446 H       1  LIG1        0.0872
     49 H           2.2015    6.2051    2.0900 H       1  LIG1        0.3503
@<TRIPOS>BOND
     1     1     7   ar
     2     1    13   ar
     3     2     8   ar
     4     2    13   ar
     5     3     9   ar
     6     3    14   ar
     7     4    10   ar
     8     4    14   ar
     9     5    11   ar
    10     5    15   ar
    11     6    12   ar
    12     6    15   ar
    13     7    16   ar
    14     8    16   ar
    15     9    17   ar
    16    10    17   ar
    17    11    18   ar
    18    12    18   ar
    19    13    19    1
    20    14    20    1
    21    15    21    1
    22    16    22    1
    23    17    23    1
    24    18    27    1
    25    19    20   ar
    26    19    25   ar
    27    20    26   ar
    28    21    25   ar
    29    21    26   ar
    30    24    27    1
    31     1    28    1
    32     2    29    1
    33     3    30    1
    34     4    31    1
    35     5    32    1
    36     6    33    1
    37     7    34    1
    38     8    35    1
    39     9    36    1
    40    10    37    1
    41    11    38    1
    42    12    39    1
    43    22    40    1
    44    22    41    1
    45    22    42    1
    46    23    43    1
    47    23    44    1
    48    23    45    1
    49    24    46    1
    50    24    47    1
    51    24    48    1
    52    26    49    1
