@<TRIPOS>MOLECULE
AB-131/42301054
 37 39 0 0 0
SMALL
USER_CHARGES

@<TRIPOS>ATOM
      1 C           3.1472    4.3660    2.3769 C.1     1  LIG1       -0.1469
      2 C           3.7032    4.3235    1.3130 C.1     1  LIG1       -0.1556
      3 C           1.1881    4.5152    6.1119 C.ar    1  LIG1       -0.1046
      4 C           2.2462    3.6281    5.9143 C.ar    1  LIG1       -0.0985
      5 C           0.7775    5.3530    5.0750 C.ar    1  LIG1       -0.0977
      6 C           0.2075    0.3581   -1.0568 C.ar    1  LIG1       -0.1032
      7 C           1.5941    0.3934   -0.9436 C.ar    1  LIG1       -0.1015
      8 C           2.8938    3.5789    4.6798 C.ar    1  LIG1       -0.0743
      9 C           1.4251    5.3039    3.8406 C.ar    1  LIG1       -0.0734
     10 C          -0.5105    1.5430   -1.2204 C.ar    1  LIG1       -0.0923
     11 C           2.2682    1.6138   -0.9936 C.ar    1  LIG1       -0.0859
     12 C          -0.5550    3.9830   -1.4373 C.ar    1  LIG1       -0.0895
     13 C           0.1190    5.2035   -1.4874 C.ar    1  LIG1       -0.0969
     14 C           2.4832    4.4168    3.6430 C.ar    1  LIG1       -0.0327
     15 C           0.1515    2.7805   -1.2730 C.ar    1  LIG1       -0.0772
     16 C           1.5617    2.8164   -1.1579 C.ar    1  LIG1       -0.0673
     17 C           2.2237    4.0538   -1.2104 C.ar    1  LIG1       -0.0694
     18 C           1.5057    5.2389   -1.3741 C.ar    1  LIG1       -0.1013
     19 C           4.3656    4.2738    0.0559 C.2     1  LIG1       -0.0384
     20 C           3.6807    4.1502   -1.0964 C.2     1  LIG1       -0.0641
     21 C           2.1828    6.5717   -1.4348 C.3     1  LIG1       -0.0392
     22 H           0.6829    4.5520    7.0726 H       1  LIG1        0.1186
     23 H           2.5654    2.9748    6.7211 H       1  LIG1        0.1195
     24 H          -0.0469    6.0433    5.2280 H       1  LIG1        0.1193
     25 H          -0.3160   -0.5928   -1.0184 H       1  LIG1        0.1153
     26 H           2.1526   -0.5293   -0.8170 H       1  LIG1        0.1155
     27 H           3.7169    2.8819    4.5413 H       1  LIG1        0.1288
     28 H           1.0933    5.9627    3.0418 H       1  LIG1        0.1284
     29 H          -1.5938    1.4917   -1.3069 H       1  LIG1        0.1232
     30 H           3.3516    1.5914   -0.9024 H       1  LIG1        0.1249
     31 H          -1.6393    3.9788   -1.5281 H       1  LIG1        0.1242
     32 H          -0.4501    6.1208   -1.6158 H       1  LIG1        0.1185
     33 H           5.4475    4.3509    0.0652 H       1  LIG1        0.1599
     34 H           4.2369    4.0963   -2.0352 H       1  LIG1        0.1442
     35 H           2.2678    6.9977   -0.4294 H       1  LIG1        0.0581
     36 H           3.1866    6.4841   -1.8659 H       1  LIG1        0.0551
     37 H           1.6215    7.2698   -2.0665 H       1  LIG1        0.0563
@<TRIPOS>BOND
     1     1     2    3
     2     1    14    1
     3     2    19    1
     4     3     4   ar
     5     3     5   ar
     6     4     8   ar
     7     5     9   ar
     8     6     7   ar
     9     6    10   ar
    10     7    11   ar
    11     8    14   ar
    12     9    14   ar
    13    10    15   ar
    14    11    16   ar
    15    12    13   ar
    16    12    15   ar
    17    13    18   ar
    18    15    16   ar
    19    16    17   ar
    20    17    18   ar
    21    17    20    1
    22    18    21    1
    23    19    20    2
    24     3    22    1
    25     4    23    1
    26     5    24    1
    27     6    25    1
    28     7    26    1
    29     8    27    1
    30     9    28    1
    31    10    29    1
    32    11    30    1
    33    12    31    1
    34    13    32    1
    35    19    33    1
    36    20    34    1
    37    21    35    1
    38    21    36    1
    39    21    37    1
