@<TRIPOS>MOLECULE
AO-840/42717968
 48 51 0 0 0
SMALL
USER_CHARGES

@<TRIPOS>ATOM
      1 C           0.2972    0.6421   -1.4921 C.ar    1  LIG1       -0.1079
      2 C           0.9204    4.8416    5.7980 C.ar    1  LIG1       -0.1000
      3 C           1.6878    0.7323   -1.5539 C.ar    1  LIG1       -0.1062
      4 C          -0.4551    1.7404   -1.0758 C.ar    1  LIG1       -0.1073
      5 C           2.0306    4.1438    6.2503 C.ar    1  LIG1       -0.1018
      6 C           0.7629    5.1052    4.4333 C.ar    1  LIG1       -0.0889
      7 C           2.3260    1.9207   -1.1991 C.ar    1  LIG1       -0.1039
      8 C           0.1830    2.9289   -0.7210 C.ar    1  LIG1       -0.1027
      9 C           2.9805    3.7038    5.3359 C.ar    1  LIG1       -0.0967
     10 C           1.7085    4.6749    3.4810 C.ar    1  LIG1       -0.0722
     11 C           1.5736    3.0191   -0.7826 C.ar    1  LIG1       -0.1051
     12 C           2.8244    3.9496    3.9590 C.ar    1  LIG1       -0.0979
     13 C           0.5196    5.6521    1.5200 C.2     1  LIG1       -0.0137
     14 C           1.5654    4.9665    2.0165 C.2     1  LIG1       -0.0764
     15 C           0.3920    5.9744    0.0756 C.2     1  LIG1        0.0995
     16 C           2.4137    6.6761   -1.1958 C.2     1  LIG1        0.1753
     17 C           3.9055    3.4547    3.0332 C.3     1  LIG1       -0.0367
     18 C           3.3613    3.2064    1.6351 C.3     1  LIG1       -0.0444
     19 C           2.2724    4.3218   -0.3935 C.3     1  LIG1        0.0139
     20 C           2.6771    4.4735    1.1017 C.3     1  LIG1       -0.0162
     21 C           1.4770    5.5444   -0.8880 C.3     1  LIG1        0.1515
     22 C           2.8200    7.7568   -3.7975 C.3     1  LIG1       -0.0329
     23 C           2.4044    8.5792   -2.5965 C.3     1  LIG1        0.0258
     24 O          -0.5716    6.6391   -0.3071 O.2     1  LIG1       -0.4536
     25 O           3.6252    6.6267   -1.0318 O.2     1  LIG1       -0.4524
     26 O           1.7044    7.7374   -1.6748 O.3     1  LIG1       -0.3584
     27 H          -0.1996   -0.2830   -1.7696 H       1  LIG1        0.1155
     28 H           0.1727    5.1897    6.5049 H       1  LIG1        0.1191
     29 H           2.2737   -0.1224   -1.8790 H       1  LIG1        0.1164
     30 H          -1.5378    1.6708   -1.0287 H       1  LIG1        0.1143
     31 H           2.1578    3.9440    7.3097 H       1  LIG1        0.1231
     32 H          -0.1247    5.6634    4.1502 H       1  LIG1        0.1302
     33 H           3.4099    1.9819   -1.2501 H       1  LIG1        0.1179
     34 H          -0.4113    3.7794   -0.3977 H       1  LIG1        0.1277
     35 H           3.8498    3.1609    5.7001 H       1  LIG1        0.1204
     36 H          -0.2945    6.0283    2.1272 H       1  LIG1        0.1261
     37 H           4.7115    4.1980    3.0032 H       1  LIG1        0.0715
     38 H           4.3313    2.5182    3.4132 H       1  LIG1        0.0727
     39 H           4.1862    2.9122    0.9751 H       1  LIG1        0.0598
     40 H           2.6556    2.3660    1.6670 H       1  LIG1        0.0591
     41 H           3.2531    4.2976   -0.9906 H       1  LIG1        0.1087
     42 H           3.4404    5.2680    1.1257 H       1  LIG1        0.1085
     43 H           0.9808    5.2929   -1.8364 H       1  LIG1        0.1516
     44 H           3.4819    6.9387   -3.5002 H       1  LIG1        0.0496
     45 H           1.9425    7.3368   -4.3001 H       1  LIG1        0.0493
     46 H           3.3388    8.3817   -4.5322 H       1  LIG1        0.0597
     47 H           1.7427    9.3955   -2.9008 H       1  LIG1        0.1033
     48 H           3.2823    8.9974   -2.0950 H       1  LIG1        0.1044
@<TRIPOS>BOND
     1     1     3   ar
     2     1     4   ar
     3     2     5   ar
     4     2     6   ar
     5     3     7   ar
     6     4     8   ar
     7     5     9   ar
     8     6    10   ar
     9     7    11   ar
    10     8    11   ar
    11     9    12   ar
    12    10    12   ar
    13    10    14    1
    14    11    19    1
    15    12    17    1
    16    13    14    2
    17    13    15    1
    18    14    20    1
    19    15    21    1
    20    15    24    2
    21    16    21    1
    22    16    25    2
    23    16    26    1
    24    17    18    1
    25    18    20    1
    26    19    20    1
    27    19    21    1
    28    22    23    1
    29    23    26    1
    30     1    27    1
    31     2    28    1
    32     3    29    1
    33     4    30    1
    34     5    31    1
    35     6    32    1
    36     7    33    1
    37     8    34    1
    38     9    35    1
    39    13    36    1
    40    17    37    1
    41    17    38    1
    42    18    39    1
    43    18    40    1
    44    19    41    1
    45    20    42    1
    46    21    43    1
    47    22    44    1
    48    22    45    1
    49    22    46    1
    50    23    47    1
    51    23    48    1
