@<TRIPOS>MOLECULE
AK-918/43220141
 29 30 0 0 0
SMALL
USER_CHARGES

@<TRIPOS>ATOM
      1 C           1.3632    4.6588    6.4657 C.ar    1  LIG1       -0.1027
      2 C           2.6758    4.2640    6.2076 C.ar    1  LIG1       -0.0997
      3 C           0.4728    4.8530    5.4097 C.ar    1  LIG1       -0.1004
      4 C           3.0982    4.0634    4.8935 C.ar    1  LIG1       -0.0915
      5 C           0.8951    4.6524    4.0955 C.ar    1  LIG1       -0.0926
      6 C           0.6368    3.3210   -1.4369 C.ar    1  LIG1       -0.0041
      7 C           2.0744    1.6876   -0.3868 C.ar    1  LIG1       -0.0042
      8 C          -0.2084    2.2991   -1.8694 C.ar    1  LIG1       -0.0672
      9 C           1.2292    0.6658   -0.8193 C.ar    1  LIG1       -0.0673
     10 C           2.2078    4.2576    3.8373 C.ar    1  LIG1       -0.0763
     11 C           1.7782    3.0152   -0.6956 C.ar    1  LIG1        0.2559
     12 C           0.0878    0.9715   -1.5606 C.ar    1  LIG1       -0.0293
     13 C           2.6477    4.0487    2.4667 C.2     1  LIG1       -0.0036
     14 C           2.1824    4.7106    1.3867 C.2     1  LIG1        0.2428
     15 O           4.1726    3.7350    0.0389 O.2     1  LIG1       -0.1268
     16 O           2.6732    5.4205   -1.0703 O.2     1  LIG1       -0.1268
     17 S           2.8524    4.3120   -0.1482 S.O2    1  LIG1       -0.1239
     18 BR         -1.0570   -0.4132   -2.1467 Br      1  LIG1       -0.0912
     19 H           1.0340    4.8138    7.4890 H       1  LIG1        0.1237
     20 H           3.3690    4.1117    7.0298 H       1  LIG1        0.1207
     21 H          -0.5496    5.1592    5.6106 H       1  LIG1        0.1196
     22 H           4.1246    3.7558    4.7081 H       1  LIG1        0.1314
     23 H           0.1892    4.8077    3.2831 H       1  LIG1        0.1283
     24 H           0.3967    4.3520   -1.6828 H       1  LIG1        0.1585
     25 H           2.9620    1.4382    0.1885 H       1  LIG1        0.1587
     26 H          -1.0937    2.5539   -2.4463 H       1  LIG1        0.1412
     27 H           1.4753   -0.3637   -0.5716 H       1  LIG1        0.1414
     28 H           3.4347    3.3000    2.3180 H       1  LIG1        0.1722
     29 H           1.4222    5.4791    1.4411 H       1  LIG1        0.1849
@<TRIPOS>BOND
     1     1     2   ar
     2     1     3   ar
     3     2     4   ar
     4     3     5   ar
     5     4    10   ar
     6     5    10   ar
     7     6     8   ar
     8     6    11   ar
     9     7     9   ar
    10     7    11   ar
    11     8    12   ar
    12     9    12   ar
    13    10    13    1
    14    11    17    1
    15    12    18    1
    16    13    14    2
    17    14    17    1
    18    15    17    2
    19    16    17    2
    20     1    19    1
    21     2    20    1
    22     3    21    1
    23     4    22    1
    24     5    23    1
    25     6    24    1
    26     7    25    1
    27     8    26    1
    28     9    27    1
    29    13    28    1
    30    14    29    1
