@<TRIPOS>MOLECULE
AG-690/11741343
 37 39 0 0 0
SMALL
USER_CHARGES

@<TRIPOS>ATOM
      1 C           0.9772    4.8635    3.9077 C.ar    1  LIG1       -0.0534
      2 C           3.2264    4.3608    4.6328 C.ar    1  LIG1       -0.0540
      3 C           1.3531    6.0533   -0.4096 C.ar    1  LIG1       -0.0735
      4 C           3.0819    5.5143   -2.0090 C.ar    1  LIG1       -0.0775
      5 C           1.1112    7.2546   -1.0761 C.ar    1  LIG1       -0.0740
      6 C           2.8399    6.7155   -2.6755 C.ar    1  LIG1       -0.0754
      7 C           0.5296    4.7609    5.2247 C.ar    1  LIG1       -0.0707
      8 C           2.7788    4.2582    5.9499 C.ar    1  LIG1       -0.0741
      9 C           2.3256    4.6634    3.6117 C.ar    1  LIG1        0.0471
     10 C           2.3386    5.1833   -0.8761 C.ar    1  LIG1       -0.0407
     11 C           1.8544    7.5856   -2.2090 C.ar    1  LIG1       -0.0360
     12 C           1.4304    4.4584    6.2459 C.ar    1  LIG1       -0.0380
     13 C           1.1388    2.2240    0.5731 C.2     1  LIG1        0.1447
     14 C           2.7994    4.7723    2.2180 C.2     1  LIG1        0.1747
     15 C           1.7381    2.7385   -0.7012 C.3     1  LIG1        0.0821
     16 C           2.6024    3.8740   -0.1497 C.3     1  LIG1        0.0852
     17 C           0.2504    1.0254    0.5723 C.3     1  LIG1        0.4024
     18 N           1.4188    2.8890    1.6481 N.2     1  LIG1       -0.2742
     19 N           2.2489    3.9099    1.2795 N.am    1  LIG1       -0.2172
     20 O           3.6563    5.6205    1.9761 O.2     1  LIG1       -0.4359
     21 O           3.9733    3.4875   -0.2381 O.3     1  LIG1       -0.4365
     22 F           0.0979    0.5320   -0.6755 F       1  LIG1       -0.1600
     23 F           0.7581    0.0392    1.3429 F       1  LIG1       -0.1594
     24 F          -0.9784    1.3234    1.0473 F       1  LIG1       -0.1592
     25 BR          1.5263    9.2135   -3.1110 Br      1  LIG1       -0.1042
     26 I           0.7635    4.3057    8.2075 I       1  LIG1       -0.0903
     27 H           0.2668    5.0996    3.1195 H       1  LIG1        0.1522
     28 H           4.2792    4.2030    4.4133 H       1  LIG1        0.1671
     29 H           0.7691    5.8035    0.4722 H       1  LIG1        0.1427
     30 H           3.8523    4.8430   -2.3791 H       1  LIG1        0.1273
     31 H           0.3403    7.9219   -0.6988 H       1  LIG1        0.1401
     32 H           3.4275    6.9585   -3.5568 H       1  LIG1        0.1381
     33 H          -0.5252    4.9208    5.4335 H       1  LIG1        0.1378
     34 H           3.4974    4.0215    6.7305 H       1  LIG1        0.1362
     35 H           2.3143    1.9489   -1.1919 H       1  LIG1        0.1336
     36 H           0.9249    3.0735   -1.3533 H       1  LIG1        0.1370
     37 H           4.4934    4.1991    0.1702 H       1  LIG1        0.3557
@<TRIPOS>BOND
     1     1     7   ar
     2     1     9   ar
     3     2     8   ar
     4     2     9   ar
     5     3     5   ar
     6     3    10   ar
     7     4     6   ar
     8     4    10   ar
     9     5    11   ar
    10     6    11   ar
    11     7    12   ar
    12     8    12   ar
    13     9    14    1
    14    10    16    1
    15    11    25    1
    16    12    26    1
    17    13    15    1
    18    13    17    1
    19    13    18    2
    20    14    19   am
    21    14    20    2
    22    15    16    1
    23    16    19    1
    24    16    21    1
    25    17    22    1
    26    17    23    1
    27    17    24    1
    28    18    19    1
    29     1    27    1
    30     2    28    1
    31     3    29    1
    32     4    30    1
    33     5    31    1
    34     6    32    1
    35     7    33    1
    36     8    34    1
    37    15    35    1
    38    15    36    1
    39    21    37    1
