@<TRIPOS>MOLECULE
AB-131/42301092
 37 39 0 0 0
SMALL
USER_CHARGES

@<TRIPOS>ATOM
      1 C           2.3454    1.9494   -1.0641 C.ar    1  LIG1       -0.0876
      2 C           0.1335    2.5816   -0.3259 C.ar    1  LIG1       -0.0874
      3 C           1.0757    6.1902   -0.5883 C.ar    1  LIG1       -0.0848
      4 C           3.2879    5.5580   -1.3257 C.ar    1  LIG1       -0.0865
      5 C           1.8104    0.8386   -1.7161 C.ar    1  LIG1       -0.0997
      6 C          -0.4016    1.4707   -0.9781 C.ar    1  LIG1       -0.0996
      7 C           1.1271    7.3209   -1.4035 C.ar    1  LIG1       -0.0982
      8 C           3.3392    6.6887   -2.1409 C.ar    1  LIG1       -0.0991
      9 C           1.5070    2.8209   -0.3689 C.ar    1  LIG1       -0.0705
     10 C           2.1562    5.3088   -0.5493 C.ar    1  LIG1       -0.0681
     11 C           0.4368    0.5992   -1.6732 C.ar    1  LIG1       -0.1166
     12 C           2.2588    7.5701   -2.1798 C.ar    1  LIG1       -0.1157
     13 C           2.3854    4.4999    3.0845 C.3     1  LIG1       -0.0207
     14 C           3.4900    3.5410    2.7078 C.3     1  LIG1       -0.0201
     15 C           2.0998    4.0538    0.3545 C.3     1  LIG1        0.0160
     16 C          -0.1349   -0.5879   -2.3720 C.3     1  LIG1       -0.0432
     17 C           2.3124    8.7784   -3.0524 C.3     1  LIG1       -0.0429
     18 S           1.0415    4.2719    1.8974 S.3     1  LIG1       -0.2432
     19 S           3.8662    3.8070    0.9599 S.3     1  LIG1       -0.2428
     20 H           3.4168    2.1278   -1.1027 H       1  LIG1        0.1288
     21 H          -0.5271    3.2564    0.2122 H       1  LIG1        0.1296
     22 H           0.1899    6.0042    0.0134 H       1  LIG1        0.1305
     23 H           4.1335    4.8756   -1.3024 H       1  LIG1        0.1254
     24 H           2.4710    0.1660   -2.2567 H       1  LIG1        0.1187
     25 H          -1.4728    1.2915   -0.9397 H       1  LIG1        0.1188
     26 H           0.2800    8.0010   -1.4287 H       1  LIG1        0.1201
     27 H           4.2247    6.8755   -2.7427 H       1  LIG1        0.1196
     28 H           2.0195    4.2958    4.0953 H       1  LIG1        0.0895
     29 H           2.7234    5.5416    3.0572 H       1  LIG1        0.1033
     30 H           4.3862    3.7245    3.3080 H       1  LIG1        0.1076
     31 H           3.1940    2.4976    2.8627 H       1  LIG1        0.0887
     32 H          -0.1566   -1.4535   -1.6987 H       1  LIG1        0.0572
     33 H          -1.1574   -0.3914   -2.7195 H       1  LIG1        0.0538
     34 H           0.4567   -0.8513   -3.2586 H       1  LIG1        0.0538
     35 H           2.7372    9.6276   -2.5032 H       1  LIG1        0.0574
     36 H           2.9264    8.5987   -3.9445 H       1  LIG1        0.0542
     37 H           1.3118    9.0586   -3.4067 H       1  LIG1        0.0540
@<TRIPOS>BOND
     1     1     5   ar
     2     1     9   ar
     3     2     6   ar
     4     2     9   ar
     5     3     7   ar
     6     3    10   ar
     7     4     8   ar
     8     4    10   ar
     9     5    11   ar
    10     6    11   ar
    11     7    12   ar
    12     8    12   ar
    13     9    15    1
    14    10    15    1
    15    11    16    1
    16    12    17    1
    17    13    14    1
    18    13    18    1
    19    14    19    1
    20    15    18    1
    21    15    19    1
    22     1    20    1
    23     2    21    1
    24     3    22    1
    25     4    23    1
    26     5    24    1
    27     6    25    1
    28     7    26    1
    29     8    27    1
    30    13    28    1
    31    13    29    1
    32    14    30    1
    33    14    31    1
    34    16    32    1
    35    16    33    1
    36    16    34    1
    37    17    35    1
    38    17    36    1
    39    17    37    1
