@<TRIPOS>MOLECULE
ZINC00387681
 42 45 0 0 0
SMALL
USER_CHARGES

@<TRIPOS>ATOM
      1 C           1.9221    4.5636    6.7111 C.ar    1  LIG1       -0.0969
      2 C           2.5730    5.5122    5.9223 C.ar    1  LIG1       -0.0868
      3 C           1.2029    3.5311    6.1092 C.ar    1  LIG1       -0.0868
      4 C          -0.4131    1.5230   -1.8893 C.ar    1  LIG1       -0.0945
      5 C           3.3939    6.5425   -2.3771 C.ar    1  LIG1       -0.0945
      6 C          -0.1392    2.4343   -0.8694 C.ar    1  LIG1       -0.0771
      7 C           3.2255    5.7606   -1.2344 C.ar    1  LIG1       -0.0771
      8 C           2.5047    5.4282    4.5316 C.ar    1  LIG1       -0.0412
      9 C           1.1346    3.4471    4.7185 C.ar    1  LIG1       -0.0412
     10 C           0.6174    0.7587   -2.4370 C.ar    1  LIG1       -0.0784
     11 C           2.3109    7.2421   -2.9094 C.ar    1  LIG1       -0.0784
     12 C           2.1956    1.8174   -0.9452 C.ar    1  LIG1       -0.0505
     13 C           0.8909    6.3775   -1.1564 C.ar    1  LIG1       -0.0505
     14 C           1.1651    2.5816   -0.3974 C.ar    1  LIG1       -0.0270
     15 C           1.9740    5.6781   -0.6241 C.ar    1  LIG1       -0.0270
     16 C           1.7855    4.3957    3.9297 C.ar    1  LIG1        0.0357
     17 C           1.9216    0.9061   -1.9650 C.ar    1  LIG1       -0.0963
     18 C           1.0593    7.1595   -2.2991 C.ar    1  LIG1       -0.0963
     19 C           1.4468    3.5195    0.6530 C.ar    1  LIG1        0.0616
     20 C           1.8006    4.8724    0.5544 C.ar    1  LIG1        0.0616
     21 N           1.3939    3.1574    1.9379 N.ar    1  LIG1       -0.2690
     22 N           1.9751    5.3850    1.7757 N.ar    1  LIG1       -0.2690
     23 N           1.7178    4.3125    2.5413 N.ar    1  LIG1       -0.2138
     24 N           2.9629    0.1328   -2.5194 N.pl3   1  LIG1       -0.4249
     25 N          -0.0352    7.8673   -2.8381 N.pl3   1  LIG1       -0.4249
     26 H           1.9764    4.6275    7.7938 H       1  LIG1        0.1257
     27 H           3.1341    6.3155    6.3907 H       1  LIG1        0.1318
     28 H           0.6975    2.7919    6.7241 H       1  LIG1        0.1317
     29 H          -1.4287    1.4085   -2.2569 H       1  LIG1        0.1276
     30 H           4.3685    6.6065   -2.8524 H       1  LIG1        0.1276
     31 H          -0.9530    3.0226   -0.4525 H       1  LIG1        0.1194
     32 H           4.0792    5.2213   -0.8312 H       1  LIG1        0.1194
     33 H           3.0173    6.1737    3.9285 H       1  LIG1        0.1465
     34 H           0.5712    2.6367    4.2624 H       1  LIG1        0.1465
     35 H           0.3922    0.0521   -3.2317 H       1  LIG1        0.1119
     36 H           2.4537    7.8478   -3.8007 H       1  LIG1        0.1119
     37 H           3.2154    1.9286   -0.5816 H       1  LIG1        0.1228
     38 H          -0.0883    6.3163   -0.6851 H       1  LIG1        0.1228
     39 H           2.7453   -0.5502   -3.2165 H       1  LIG1        0.2489
     40 H           3.8848    0.2133   -2.1406 H       1  LIG1        0.2495
     41 H           0.1099    8.4613   -3.6293 H       1  LIG1        0.2489
     42 H          -0.9155    7.8378   -2.3648 H       1  LIG1        0.2495
@<TRIPOS>BOND
     1     1     2   ar
     2     1     3   ar
     3     2     8   ar
     4     3     9   ar
     5     4     6   ar
     6     4    10   ar
     7     5     7   ar
     8     5    11   ar
     9     6    14   ar
    10     7    15   ar
    11     8    16   ar
    12     9    16   ar
    13    10    17   ar
    14    11    18   ar
    15    12    14   ar
    16    12    17   ar
    17    13    15   ar
    18    13    18   ar
    19    14    19    1
    20    15    20    1
    21    16    23    1
    22    17    24    1
    23    18    25    1
    24    19    20   ar
    25    19    21   ar
    26    20    22   ar
    27    21    23   ar
    28    22    23   ar
    29     1    26    1
    30     2    27    1
    31     3    28    1
    32     4    29    1
    33     5    30    1
    34     6    31    1
    35     7    32    1
    36     8    33    1
    37     9    34    1
    38    10    35    1
    39    11    36    1
    40    12    37    1
    41    13    38    1
    42    24    39    1
    43    24    40    1
    44    25    41    1
    45    25    42    1
