@<TRIPOS>MOLECULE
AG-670/34887012
 56 58 0 0 0
SMALL
USER_CHARGES

@<TRIPOS>ATOM
      1 C           2.8708    4.1714    2.5663 C.1     1  LIG1       -0.2031
      2 C           2.9418    3.9994    1.3797 C.1     1  LIG1       -0.1479
      3 C           1.6608    7.3393   -2.1564 C.ar    1  LIG1       -0.1053
      4 C           1.1397    7.0240   -0.9016 C.ar    1  LIG1       -0.1002
      5 C           2.6178    6.5109   -2.7426 C.ar    1  LIG1       -0.1040
      6 C           1.5758    5.8802   -0.2328 C.ar    1  LIG1       -0.0831
      7 C           3.0538    5.3670   -2.0738 C.ar    1  LIG1       -0.0901
      8 C           2.5328    5.0517   -0.8189 C.ar    1  LIG1       -0.0511
      9 C          -0.0063    1.3071   -2.0212 C.3     1  LIG1       -0.0742
     10 C          -0.1196    1.5440   -0.5185 C.3     1  LIG1       -0.0730
     11 C           1.4475    1.1512   -2.4565 C.3     1  LIG1       -0.0718
     12 C           2.3489    5.2801    8.6521 C.3     1  LIG1       -0.0688
     13 C           1.0265    5.4295    7.9075 C.3     1  LIG1       -0.0745
     14 C           3.4460    6.1166    8.0026 C.3     1  LIG1       -0.0740
     15 C           0.7297    2.7311   -0.0697 C.3     1  LIG1       -0.0609
     16 C           2.2994    2.3375   -2.0109 C.3     1  LIG1       -0.0576
     17 C           1.1769    5.1220    6.4246 C.3     1  LIG1       -0.1043
     18 C           3.5875    5.8071    6.5193 C.3     1  LIG1       -0.1038
     19 C           2.1949    2.5737   -0.4982 C.3     1  LIG1       -0.0205
     20 C           2.7682    4.3960    4.0150 C.3     1  LIG1       -0.0191
     21 C           2.3635    5.8254    4.3469 C.3     1  LIG1       -0.0814
     22 C           3.0120    3.7965   -0.0854 C.3     1  LIG1        0.0529
     23 N           2.2545    6.0018    5.8364 N.4     1  LIG1        0.4057
     24 O           4.3788    3.5221   -0.4242 O.3     1  LIG1       -0.4455
     25 H           1.3203    8.2292   -2.6776 H       1  LIG1        0.1193
     26 H           0.3938    7.6683   -0.4456 H       1  LIG1        0.1193
     27 H           3.0229    6.7555   -3.7200 H       1  LIG1        0.1173
     28 H           1.1644    5.6424    0.7447 H       1  LIG1        0.1335
     29 H           3.7999    4.7276   -2.5381 H       1  LIG1        0.1156
     30 H          -0.5719    0.4101   -2.2975 H       1  LIG1        0.0416
     31 H          -0.4595    2.1493   -2.5583 H       1  LIG1        0.0408
     32 H          -1.1680    1.7186   -0.2515 H       1  LIG1        0.0409
     33 H           0.2008    0.6425    0.0182 H       1  LIG1        0.0418
     34 H           1.8581    0.2268   -2.0317 H       1  LIG1        0.0399
     35 H           1.4968    1.0509   -3.5466 H       1  LIG1        0.0442
     36 H           2.2223    5.5812    9.6980 H       1  LIG1        0.0592
     37 H           2.6481    4.2247    8.6562 H       1  LIG1        0.0502
     38 H           0.2789    4.7604    8.3480 H       1  LIG1        0.0565
     39 H           0.6515    6.4529    8.0344 H       1  LIG1        0.0738
     40 H           3.2189    7.1819    8.1358 H       1  LIG1        0.0565
     41 H           4.3997    5.9294    8.5086 H       1  LIG1        0.0741
     42 H           0.3132    3.6534   -0.4949 H       1  LIG1        0.0448
     43 H           0.6671    2.8283    1.0207 H       1  LIG1        0.0386
     44 H           3.3442    2.1566   -2.2901 H       1  LIG1        0.0491
     45 H           1.9772    3.2364   -2.5521 H       1  LIG1        0.0521
     46 H           1.4668    4.0817    6.2522 H       1  LIG1        0.0887
     47 H           0.2489    5.3426    5.8911 H       1  LIG1        0.0873
     48 H           4.2977    6.4920    6.0493 H       1  LIG1        0.0882
     49 H           3.8993    4.7729    6.3483 H       1  LIG1        0.0896
     50 H           2.6133    1.6991    0.0177 H       1  LIG1        0.0760
     51 H           3.7424    4.1910    4.4745 H       1  LIG1        0.1085
     52 H           2.0561    3.6871    4.4534 H       1  LIG1        0.1079
     53 H           1.3920    6.0975    3.9223 H       1  LIG1        0.0986
     54 H           3.1224    6.5363    4.0069 H       1  LIG1        0.0972
     55 H           1.9702    6.9790    5.9999 H       1  LIG1        0.1645
     56 H           4.8842    4.2969   -0.1421 H       1  LIG1        0.3401
@<TRIPOS>BOND
     1     1     2    3
     2     1    20    1
     3     2    22    1
     4     3     4   ar
     5     3     5   ar
     6     4     6   ar
     7     5     7   ar
     8     6     8   ar
     9     7     8   ar
    10     8    22    1
    11     9    10    1
    12     9    11    1
    13    10    15    1
    14    11    16    1
    15    12    13    1
    16    12    14    1
    17    13    17    1
    18    14    18    1
    19    15    19    1
    20    16    19    1
    21    17    23    1
    22    18    23    1
    23    19    22    1
    24    20    21    1
    25    21    23    1
    26    22    24    1
    27     3    25    1
    28     4    26    1
    29     5    27    1
    30     6    28    1
    31     7    29    1
    32     9    30    1
    33     9    31    1
    34    10    32    1
    35    10    33    1
    36    11    34    1
    37    11    35    1
    38    12    36    1
    39    12    37    1
    40    13    38    1
    41    13    39    1
    42    14    40    1
    43    14    41    1
    44    15    42    1
    45    15    43    1
    46    16    44    1
    47    16    45    1
    48    17    46    1
    49    17    47    1
    50    18    48    1
    51    18    49    1
    52    19    50    1
    53    20    51    1
    54    20    52    1
    55    21    53    1
    56    21    54    1
    57    23    55    1
    58    24    56    1
