@<TRIPOS>MOLECULE
AK-778/43420907
 45 47 0 0 0
SMALL
USER_CHARGES

@<TRIPOS>ATOM
      1 C           1.0801    4.4506    6.4560 C.ar    1  LIG1       -0.1010
      2 C           0.5436    4.8182    5.2221 C.ar    1  LIG1       -0.0993
      3 C           2.3994    4.0052    6.5381 C.ar    1  LIG1       -0.0964
      4 C           2.8650    7.1801   -2.2492 C.ar    1  LIG1       -0.0938
      5 C           1.5463    7.0041   -2.7007 C.ar    1  LIG1       -0.0913
      6 C           1.3264    4.7404    4.0702 C.ar    1  LIG1       -0.0847
      7 C           3.1822    3.9274    5.3862 C.ar    1  LIG1       -0.0804
      8 C           3.3702    6.4065   -1.2012 C.ar    1  LIG1       -0.0778
      9 C           0.7113    6.0517   -2.1124 C.ar    1  LIG1       -0.0623
     10 C           2.6457    4.2950    4.1523 C.ar    1  LIG1       -0.0139
     11 C           2.5369    5.4651   -0.6210 C.ar    1  LIG1       -0.0151
     12 C           1.2281    5.2945   -1.0753 C.ar    1  LIG1       -0.0287
     13 C           1.4718    3.7537    0.6363 C.2     1  LIG1        0.1527
     14 C           3.4724    4.2129    2.9356 C.2     1  LIG1        0.0856
     15 C           2.8097    4.5091    0.5044 C.3     1  LIG1        0.1294
     16 C          -0.0332    1.5840   -1.4349 C.3     1  LIG1       -0.0667
     17 C          -2.3218    2.4723   -1.9811 C.3     1  LIG1       -0.0653
     18 C           3.1843    5.1995    1.8078 C.3     1  LIG1        0.0880
     19 C          -0.7569    3.8485   -0.5290 C.3     1  LIG1       -0.0086
     20 C          -0.8685    2.8415   -1.6801 C.3     1  LIG1       -0.0560
     21 N           0.6046    4.2852   -0.3292 N.am    1  LIG1       -0.3107
     22 O           1.2504    2.8524    1.4322 O.2     1  LIG1       -0.4350
     23 O           4.3736    3.3815    2.8086 O.2     1  LIG1       -0.4497
     24 O           3.8075    3.5836    0.1191 O.3     1  LIG1       -0.4423
     25 H           0.4706    4.5111    7.3529 H       1  LIG1        0.1264
     26 H          -0.4837    5.1647    5.1583 H       1  LIG1        0.1199
     27 H           2.8173    3.7193    7.4989 H       1  LIG1        0.1208
     28 H           3.4980    7.9265   -2.7217 H       1  LIG1        0.1202
     29 H           1.1737    7.6164   -3.5176 H       1  LIG1        0.1328
     30 H           0.8983    5.0294    3.1138 H       1  LIG1        0.1309
     31 H           4.2091    3.5789    5.4620 H       1  LIG1        0.1383
     32 H           4.3893    6.5448   -0.8569 H       1  LIG1        0.1393
     33 H          -0.3045    5.9221   -2.4684 H       1  LIG1        0.1270
     34 H          -0.3756    1.0325   -0.5534 H       1  LIG1        0.0336
     35 H          -0.0971    0.9076   -2.2942 H       1  LIG1        0.0339
     36 H           1.0216    1.8397   -1.2901 H       1  LIG1        0.0330
     37 H          -2.7988    1.9750   -1.1301 H       1  LIG1        0.0355
     38 H          -2.3765    1.7922   -2.8380 H       1  LIG1        0.0353
     39 H          -2.9068    3.3649   -2.2263 H       1  LIG1        0.0377
     40 H           2.3556    5.8484    2.1098 H       1  LIG1        0.1170
     41 H           4.0774    5.8092    1.6358 H       1  LIG1        0.1094
     42 H          -1.3781    4.7291   -0.7249 H       1  LIG1        0.1165
     43 H          -1.1098    3.3945    0.4035 H       1  LIG1        0.1140
     44 H          -0.4628    3.3322   -2.5748 H       1  LIG1        0.0545
     45 H           3.9519    2.9867    0.8736 H       1  LIG1        0.3476
@<TRIPOS>BOND
     1     1     2   ar
     2     1     3   ar
     3     2     6   ar
     4     3     7   ar
     5     4     5   ar
     6     4     8   ar
     7     5     9   ar
     8     6    10   ar
     9     7    10   ar
    10     8    11   ar
    11     9    12   ar
    12    10    14    1
    13    11    12   ar
    14    11    15    1
    15    12    21    1
    16    13    15    1
    17    13    21   am
    18    13    22    2
    19    14    18    1
    20    14    23    2
    21    15    18    1
    22    15    24    1
    23    16    20    1
    24    17    20    1
    25    19    20    1
    26    19    21    1
    27     1    25    1
    28     2    26    1
    29     3    27    1
    30     4    28    1
    31     5    29    1
    32     6    30    1
    33     7    31    1
    34     8    32    1
    35     9    33    1
    36    16    34    1
    37    16    35    1
    38    16    36    1
    39    17    37    1
    40    17    38    1
    41    17    39    1
    42    18    40    1
    43    18    41    1
    44    19    42    1
    45    19    43    1
    46    20    44    1
    47    24    45    1
