@<TRIPOS>MOLECULE
AG-205/05879064
 28 29 0 0 0
SMALL
USER_CHARGES

@<TRIPOS>ATOM
      1 C           2.5483    4.0252    6.2831 C.ar    1  LIG1       -0.0942
      2 C           1.2498    4.4324    6.5890 C.ar    1  LIG1       -0.0907
      3 C           3.0283    4.1464    4.9789 C.ar    1  LIG1       -0.0815
      4 C           1.3381    5.5444   -0.3619 C.ar    1  LIG1       -0.0691
      5 C           3.4836    5.7869   -1.4459 C.ar    1  LIG1       -0.0659
      6 C           0.4312    4.9608    5.5907 C.ar    1  LIG1       -0.0444
      7 C           0.8279    6.5845   -1.1387 C.ar    1  LIG1       -0.0746
      8 C           2.9734    6.8270   -2.2229 C.ar    1  LIG1       -0.0724
      9 C           2.6659    5.1456   -0.5155 C.ar    1  LIG1        0.0022
     10 C           2.2097    4.6747    3.9808 C.ar    1  LIG1       -0.0281
     11 C           0.9111    5.0820    4.2866 C.ar    1  LIG1        0.0756
     12 C           1.6456    7.2258   -2.0692 C.ar    1  LIG1       -0.0362
     13 C           2.7218    4.8006    2.6049 C.2     1  LIG1       -0.0636
     14 C           2.6302    3.8441    1.6692 C.2     1  LIG1       -0.0106
     15 C           3.1977    4.0611    0.2945 C.2     1  LIG1        0.0902
     16 O           4.0833    3.3127   -0.1464 O.2     1  LIG1       -0.4567
     17 F           0.1119    5.5919    3.3381 F       1  LIG1       -0.2592
     18 BR          0.9544    8.6350   -3.1217 Br      1  LIG1       -0.1022
     19 H           3.1856    3.6132    7.0605 H       1  LIG1        0.1248
     20 H           0.8759    4.3380    7.6042 H       1  LIG1        0.1359
     21 H           4.0426    3.8238    4.7566 H       1  LIG1        0.1392
     22 H           0.6921    5.0515    0.3601 H       1  LIG1        0.1430
     23 H           4.5197    5.4842   -1.5738 H       1  LIG1        0.1484
     24 H          -0.5800    5.2781    5.8285 H       1  LIG1        0.1337
     25 H          -0.2089    6.8830   -1.0067 H       1  LIG1        0.1375
     26 H           3.6238    7.3163   -2.9434 H       1  LIG1        0.1384
     27 H           3.2144    5.7435    2.3792 H       1  LIG1        0.1534
     28 H           2.1698    2.8851    1.8756 H       1  LIG1        0.1274
@<TRIPOS>BOND
     1     1     2   ar
     2     1     3   ar
     3     2     6   ar
     4     3    10   ar
     5     4     7   ar
     6     4     9   ar
     7     5     8   ar
     8     5     9   ar
     9     6    11   ar
    10     7    12   ar
    11     8    12   ar
    12     9    15    1
    13    10    11   ar
    14    10    13    1
    15    11    17    1
    16    12    18    1
    17    13    14    2
    18    14    15    1
    19    15    16    2
    20     1    19    1
    21     2    20    1
    22     3    21    1
    23     4    22    1
    24     5    23    1
    25     6    24    1
    26     7    25    1
    27     8    26    1
    28    13    27    1
    29    14    28    1
