@<TRIPOS>MOLECULE
AK-968/40605784
 33 35 0 0 0
SMALL
USER_CHARGES

@<TRIPOS>ATOM
      1 C           3.0731    7.2650   -2.0453 C.ar    1  LIG1       -0.0893
      2 C           1.7581    7.3274   -2.5063 C.ar    1  LIG1       -0.0877
      3 C           3.4398    6.2954   -1.1119 C.ar    1  LIG1       -0.0637
      4 C           0.8097    6.4203   -2.0338 C.ar    1  LIG1       -0.0691
      5 C           2.4913    5.3883   -0.6394 C.ar    1  LIG1        0.0496
      6 C           1.1763    5.4507   -1.1004 C.ar    1  LIG1        0.0028
      7 C           2.5701    3.9925    3.7365 C.2     1  LIG1       -0.0346
      8 C           2.9349    4.3760    0.3538 C.2     1  LIG1        0.1520
      9 C           2.9210    3.2092    4.9723 C.3     1  LIG1       -0.0086
     10 C           0.6657    5.1395    4.6950 C.3     1  LIG1       -0.0607
     11 C           0.9575    4.4033    6.0202 C.3     1  LIG1       -0.0670
     12 C           2.9168    5.5801    5.3617 C.3     1  LIG1       -0.0553
     13 C           2.0655    5.3617    4.1102 C.3     1  LIG1       -0.0242
     14 C           2.4943    4.2606    6.0207 C.3     1  LIG1       -0.0538
     15 N           2.6766    3.5361    2.5371 N.2     1  LIG1       -0.3391
     16 N           2.3026    4.4213    1.5823 N.am    1  LIG1       -0.2612
     17 O           3.8244    3.5845    0.0513 O.2     1  LIG1       -0.4346
     18 BR         -0.1534    4.2435   -0.4878 Br      1  LIG1       -0.0702
     19 H           3.8114    7.9712   -2.4133 H       1  LIG1        0.1311
     20 H           1.4729    8.0824   -3.2332 H       1  LIG1        0.1377
     21 H           4.4677    6.2580   -0.7612 H       1  LIG1        0.1326
     22 H          -0.2103    6.4848   -2.4050 H       1  LIG1        0.1409
     23 H           2.3561    2.2768    5.0347 H       1  LIG1        0.0892
     24 H           3.9973    3.0188    4.9939 H       1  LIG1        0.0894
     25 H           0.0248    4.5410    4.0391 H       1  LIG1        0.0519
     26 H           0.1659    6.0933    4.8958 H       1  LIG1        0.0448
     27 H           0.6251    5.0139    6.8674 H       1  LIG1        0.0473
     28 H           0.4471    3.4364    6.0731 H       1  LIG1        0.0480
     29 H           3.9920    5.6246    5.1557 H       1  LIG1        0.0583
     30 H           2.6153    6.4626    5.9355 H       1  LIG1        0.0541
     31 H           2.1472    6.1087    3.3218 H       1  LIG1        0.0803
     32 H           2.9139    4.0769    7.0121 H       1  LIG1        0.0832
     33 H           1.5864    5.0993    1.8224 H       1  LIG1        0.3254
@<TRIPOS>BOND
     1     1     2   ar
     2     1     3   ar
     3     2     4   ar
     4     3     5   ar
     5     4     6   ar
     6     5     6   ar
     7     5     8    1
     8     6    18    1
     9     7     9    1
    10     7    13    1
    11     7    15    2
    12     8    16   am
    13     8    17    2
    14     9    14    1
    15    10    11    1
    16    10    13    1
    17    11    14    1
    18    12    13    1
    19    12    14    1
    20    15    16    1
    21     1    19    1
    22     2    20    1
    23     3    21    1
    24     4    22    1
    25     9    23    1
    26     9    24    1
    27    10    25    1
    28    10    26    1
    29    11    27    1
    30    11    28    1
    31    12    29    1
    32    12    30    1
    33    13    31    1
    34    14    32    1
    35    16    33    1
