@<TRIPOS>MOLECULE
AG-690/11629085
 37 39 0 0 0
SMALL
USER_CHARGES

@<TRIPOS>ATOM
      1 C           1.9110    7.5650   -2.3125 C.ar    1  LIG1       -0.1052
      2 C           0.1313    0.7576   -1.8191 C.ar    1  LIG1       -0.1053
      3 C           1.0599    7.2757   -1.2460 C.ar    1  LIG1       -0.1024
      4 C           2.9400    6.6829   -2.6428 C.ar    1  LIG1       -0.1034
      5 C           1.4472    0.9722   -2.2288 C.ar    1  LIG1       -0.1025
      6 C          -0.4319    1.5648   -0.8307 C.ar    1  LIG1       -0.1034
      7 C           1.2376    6.1044   -0.5097 C.ar    1  LIG1       -0.0917
      8 C           3.1178    5.5117   -1.9064 C.ar    1  LIG1       -0.0939
      9 C           2.2001    1.9940   -1.6500 C.ar    1  LIG1       -0.0917
     10 C           0.3209    2.5865   -0.2518 C.ar    1  LIG1       -0.0939
     11 C           2.2666    5.2224   -0.8399 C.ar    1  LIG1       -0.0727
     12 C           1.6369    2.8012   -0.6615 C.ar    1  LIG1       -0.0728
     13 C           3.5495    4.4659    1.9493 C.2     1  LIG1        0.1208
     14 C           3.7829    5.1014    3.2621 C.2     1  LIG1        0.2122
     15 C           2.1748    4.1529    1.4806 C.3     1  LIG1        0.0461
     16 C           2.4643    3.9248   -0.0245 C.3     1  LIG1        0.0268
     17 C           3.4336    4.7705    5.5600 C.3     1  LIG1        0.0396
     18 N           4.5161    4.0983    1.1819 N.2     1  LIG1       -0.3019
     19 N           3.9148    3.5597    0.0842 N.pl3   1  LIG1       -0.3128
     20 O           4.3360    6.1750    3.3915 O.2     1  LIG1       -0.4398
     21 O           3.2829    4.2876    4.2210 O.3     1  LIG1       -0.3406
     22 H           1.7716    8.4763   -2.8866 H       1  LIG1        0.1179
     23 H          -0.4551   -0.0371   -2.2708 H       1  LIG1        0.1178
     24 H           0.2579    7.9618   -0.9895 H       1  LIG1        0.1202
     25 H           3.6022    6.9074   -3.4737 H       1  LIG1        0.1184
     26 H           1.8856    0.3445   -2.9992 H       1  LIG1        0.1201
     27 H          -1.4567    1.3987   -0.5122 H       1  LIG1        0.1184
     28 H           0.5697    5.8873    0.3197 H       1  LIG1        0.1236
     29 H           3.9221    4.8304   -2.1708 H       1  LIG1        0.1151
     30 H           3.2247    2.1538   -1.9753 H       1  LIG1        0.1235
     31 H          -0.1261    3.2103    0.5177 H       1  LIG1        0.1150
     32 H           1.7758    3.2672    1.9882 H       1  LIG1        0.1050
     33 H           1.5321    5.0208    1.6770 H       1  LIG1        0.1048
     34 H           3.0021    4.0497    6.2588 H       1  LIG1        0.1254
     35 H           2.9308    5.7359    5.6588 H       1  LIG1        0.0950
     36 H           4.4976    4.8923    5.7763 H       1  LIG1        0.0950
     37 H           4.0752    2.5638    0.0160 H       1  LIG1        0.3729
@<TRIPOS>BOND
     1     1     3   ar
     2     1     4   ar
     3     2     5   ar
     4     2     6   ar
     5     3     7   ar
     6     4     8   ar
     7     5     9   ar
     8     6    10   ar
     9     7    11   ar
    10     8    11   ar
    11     9    12   ar
    12    10    12   ar
    13    11    16    1
    14    12    16    1
    15    13    14    1
    16    13    15    1
    17    13    18    2
    18    14    20    2
    19    14    21    1
    20    15    16    1
    21    16    19    1
    22    17    21    1
    23    18    19    1
    24     1    22    1
    25     2    23    1
    26     3    24    1
    27     4    25    1
    28     5    26    1
    29     6    27    1
    30     7    28    1
    31     8    29    1
    32     9    30    1
    33    10    31    1
    34    15    32    1
    35    15    33    1
    36    17    34    1
    37    17    35    1
    38    17    36    1
    39    19    37    1
