@<TRIPOS>MOLECULE
AJ-292/13893142
 46 48 0 0 0
SMALL
USER_CHARGES

@<TRIPOS>ATOM
      1 C           0.5019    0.8690   -1.0920 C.ar    1  LIG1       -0.1106
      2 C           2.6642    4.2833    6.0114 C.ar    1  LIG1       -0.0986
      3 C           1.8257    1.0876   -1.4733 C.ar    1  LIG1       -0.1082
      4 C          -0.2922    1.9403   -0.6826 C.ar    1  LIG1       -0.1094
      5 C           1.3226    3.9168    6.1189 C.ar    1  LIG1       -0.1004
      6 C           3.1605    4.7653    4.8001 C.ar    1  LIG1       -0.0661
      7 C           2.3556    2.3777   -1.4450 C.ar    1  LIG1       -0.1028
      8 C           0.2378    3.2303   -0.6544 C.ar    1  LIG1       -0.1037
      9 C           0.4774    4.0323    5.0154 C.ar    1  LIG1       -0.0609
     10 C           2.3152    4.8808    3.6966 C.ar    1  LIG1        0.0618
     11 C           1.5616    3.4490   -1.0355 C.ar    1  LIG1       -0.1066
     12 C           0.9737    4.5143    3.8042 C.ar    1  LIG1        0.0258
     13 C           2.8646    5.3965    2.4162 C.2     1  LIG1        0.1079
     14 C           2.6744    6.8821   -2.2875 C.3     1  LIG1       -0.0696
     15 C           1.6860    7.2636   -1.1917 C.3     1  LIG1       -0.0695
     16 C           2.6349    5.3593   -2.3816 C.3     1  LIG1       -0.0562
     17 C           1.0958    5.9528   -0.6794 C.3     1  LIG1       -0.0556
     18 C           2.1416    4.8625   -1.0041 C.3     1  LIG1       -0.0377
     19 C          -1.2227    4.2240    2.9396 C.3     1  LIG1        0.0318
     20 C           3.2896    4.8850    0.0259 C.3     1  LIG1       -0.0230
     21 N           2.7858    4.5429    1.3121 N.am    1  LIG1       -0.3459
     22 O           3.3708    6.5152    2.3877 O.2     1  LIG1       -0.4729
     23 O           0.1317    4.6218    2.7377 O.3     1  LIG1       -0.3990
     24 H           0.0890   -0.1354   -1.1154 H       1  LIG1        0.1114
     25 H           3.3222    4.1931    6.8710 H       1  LIG1        0.1137
     26 H           2.4437    0.2537   -1.7932 H       1  LIG1        0.1133
     27 H          -1.3231    1.7705   -0.3868 H       1  LIG1        0.1126
     28 H           0.9370    3.5410    7.0621 H       1  LIG1        0.1326
     29 H           4.2075    5.0484    4.7280 H       1  LIG1        0.1369
     30 H           3.3881    2.5386   -1.7436 H       1  LIG1        0.1169
     31 H          -0.3882    4.0588   -0.3338 H       1  LIG1        0.1188
     32 H          -0.5667    3.7452    5.1060 H       1  LIG1        0.1154
     33 H           2.4187    7.3453   -3.2460 H       1  LIG1        0.0443
     34 H           3.6807    7.2233   -2.0188 H       1  LIG1        0.0443
     35 H           2.2073    7.7908   -0.3842 H       1  LIG1        0.0431
     36 H           0.9035    7.9325   -1.5644 H       1  LIG1        0.0444
     37 H           1.9290    5.0694   -3.1719 H       1  LIG1        0.0539
     38 H           3.6107    4.9438   -2.6562 H       1  LIG1        0.0512
     39 H           0.8545    6.0041    0.3882 H       1  LIG1        0.0538
     40 H           0.1550    5.7547   -1.2111 H       1  LIG1        0.0540
     41 H          -1.7850    4.3597    2.0125 H       1  LIG1        0.0901
     42 H          -1.6649    4.8254    3.7378 H       1  LIG1        0.0901
     43 H          -1.2447    3.1697    3.2254 H       1  LIG1        0.1242
     44 H           3.7062    5.8821    0.0548 H       1  LIG1        0.1064
     45 H           4.0386    4.1649   -0.2713 H       1  LIG1        0.1022
     46 H           2.4023    3.6020    1.4467 H       1  LIG1        0.2958
@<TRIPOS>BOND
     1     1     3   ar
     2     1     4   ar
     3     2     5   ar
     4     2     6   ar
     5     3     7   ar
     6     4     8   ar
     7     5     9   ar
     8     6    10   ar
     9     7    11   ar
    10     8    11   ar
    11     9    12   ar
    12    10    12   ar
    13    10    13    1
    14    11    18    1
    15    12    23    1
    16    13    21   am
    17    13    22    2
    18    14    15    1
    19    14    16    1
    20    15    17    1
    21    16    18    1
    22    17    18    1
    23    18    20    1
    24    19    23    1
    25    20    21    1
    26     1    24    1
    27     2    25    1
    28     3    26    1
    29     4    27    1
    30     5    28    1
    31     6    29    1
    32     7    30    1
    33     8    31    1
    34     9    32    1
    35    14    33    1
    36    14    34    1
    37    15    35    1
    38    15    36    1
    39    16    37    1
    40    16    38    1
    41    17    39    1
    42    17    40    1
    43    19    41    1
    44    19    42    1
    45    19    43    1
    46    20    44    1
    47    20    45    1
    48    21    46    1
