@<TRIPOS>MOLECULE
AG-670/34887018
 52 53 0 0 0
SMALL
USER_CHARGES

@<TRIPOS>ATOM
      1 C           2.0671    4.0978    1.4345 C.1     1  LIG1       -0.1150
      2 C           1.7587    4.2278    2.5888 C.1     1  LIG1       -0.2003
      3 C           0.1900    0.7188   -1.8000 C.ar    1  LIG1       -0.1022
      4 C           1.9843    7.5675   -2.2947 C.ar    1  LIG1       -0.1030
      5 C          -0.4756    1.8186   -1.2588 C.ar    1  LIG1       -0.1023
      6 C           1.5829    0.6563   -1.7575 C.ar    1  LIG1       -0.1000
      7 C           1.1529    7.3252   -1.2013 C.ar    1  LIG1       -0.0967
      8 C           2.9640    6.6386   -2.6455 C.ar    1  LIG1       -0.1035
      9 C           0.2516    2.8561   -0.6752 C.ar    1  LIG1       -0.0931
     10 C           2.3101    1.6938   -1.1740 C.ar    1  LIG1       -0.0890
     11 C           1.3013    6.1540   -0.4584 C.ar    1  LIG1       -0.0787
     12 C           3.1124    5.4673   -1.9026 C.ar    1  LIG1       -0.0894
     13 C           1.6445    2.7937   -0.6328 C.ar    1  LIG1       -0.0492
     14 C           2.2810    5.2250   -0.8091 C.ar    1  LIG1       -0.0398
     15 C          -0.6879    2.8308    3.7433 C.3     1  LIG1       -0.0588
     16 C           1.2839    6.9913    3.8417 C.3     1  LIG1       -0.0603
     17 C           2.3316    4.7262    6.2689 C.3     1  LIG1       -0.0847
     18 C           3.4918    3.2657    4.6192 C.3     1  LIG1       -0.0849
     19 C           0.5955    3.1513    4.5040 C.3     1  LIG1       -0.0549
     20 C           0.5574    5.6985    4.2082 C.3     1  LIG1       -0.0551
     21 C           2.4451    3.9348    0.0088 C.3     1  LIG1        0.0839
     22 C           1.3616    4.3962    3.9990 C.3     1  LIG1       -0.0849
     23 N           2.6205    4.4725    4.8174 N.4     1  LIG1        0.4069
     24 O           3.8378    3.5803    0.0360 O.3     1  LIG1       -0.4315
     25 H          -0.3764   -0.0896   -2.2531 H       1  LIG1        0.1232
     26 H           1.8677    8.4789   -2.8739 H       1  LIG1        0.1224
     27 H          -1.5602    1.8668   -1.2908 H       1  LIG1        0.1197
     28 H           2.1014   -0.2003   -2.1777 H       1  LIG1        0.1235
     29 H           0.3893    8.0478   -0.9288 H       1  LIG1        0.1235
     30 H           3.6107    6.8264   -3.4974 H       1  LIG1        0.1184
     31 H          -0.2755    3.7093   -0.2563 H       1  LIG1        0.1150
     32 H           3.3950    1.6367   -1.1456 H       1  LIG1        0.1283
     33 H           0.6491    5.9736    0.3921 H       1  LIG1        0.1366
     34 H           3.8784    4.7493   -2.1832 H       1  LIG1        0.1127
     35 H          -0.4638    2.6938    2.6802 H       1  LIG1        0.0423
     36 H          -1.4202    3.6390    3.8264 H       1  LIG1        0.0487
     37 H          -1.1474    1.9056    4.1027 H       1  LIG1        0.0406
     38 H           1.6099    6.9486    2.7970 H       1  LIG1        0.0350
     39 H           2.1727    7.1457    4.4605 H       1  LIG1        0.0407
     40 H           0.6311    7.8633    3.9436 H       1  LIG1        0.0466
     41 H           1.7687    3.8728    6.6514 H       1  LIG1        0.0849
     42 H           3.2870    4.8302    6.7866 H       1  LIG1        0.0774
     43 H           1.7460    5.6450    6.3374 H       1  LIG1        0.0820
     44 H           2.9431    2.3945    4.9817 H       1  LIG1        0.0779
     45 H           3.7053    3.1793    3.5521 H       1  LIG1        0.0829
     46 H           4.4088    3.4180    5.1919 H       1  LIG1        0.0834
     47 H           0.3363    3.2822    5.5631 H       1  LIG1        0.0774
     48 H           1.2472    2.2681    4.4531 H       1  LIG1        0.0661
     49 H           0.2442    5.7717    5.2578 H       1  LIG1        0.0840
     50 H          -0.3627    5.6623    3.6109 H       1  LIG1        0.0693
     51 H           3.1502    5.2837    4.4718 H       1  LIG1        0.1735
     52 H           4.2893    4.3169    0.4691 H       1  LIG1        0.3506
@<TRIPOS>BOND
     1     1     2    3
     2     1    21    1
     3     2    22    1
     4     3     5   ar
     5     3     6   ar
     6     4     7   ar
     7     4     8   ar
     8     5     9   ar
     9     6    10   ar
    10     7    11   ar
    11     8    12   ar
    12     9    13   ar
    13    10    13   ar
    14    11    14   ar
    15    12    14   ar
    16    13    21    1
    17    14    21    1
    18    15    19    1
    19    16    20    1
    20    17    23    1
    21    18    23    1
    22    19    22    1
    23    20    22    1
    24    21    24    1
    25    22    23    1
    26     3    25    1
    27     4    26    1
    28     5    27    1
    29     6    28    1
    30     7    29    1
    31     8    30    1
    32     9    31    1
    33    10    32    1
    34    11    33    1
    35    12    34    1
    36    15    35    1
    37    15    36    1
    38    15    37    1
    39    16    38    1
    40    16    39    1
    41    16    40    1
    42    17    41    1
    43    17    42    1
    44    17    43    1
    45    18    44    1
    46    18    45    1
    47    18    46    1
    48    19    47    1
    49    19    48    1
    50    20    49    1
    51    20    50    1
    52    23    51    1
    53    24    52    1
