@<TRIPOS>MOLECULE
AK-778/41182457
 45 47 0 0 0
SMALL
USER_CHARGES

@<TRIPOS>ATOM
      1 C           0.9779    0.7086   -1.3366 C.ar    1  LIG1       -0.0937
      2 C          -0.1391    1.4727   -1.7144 C.ar    1  LIG1       -0.0914
      3 C           2.9392    3.9613    4.7353 C.ar    1  LIG1       -0.0844
      4 C           0.5458    4.1615    4.4738 C.ar    1  LIG1       -0.0800
      5 C           2.0162    1.2794   -0.5968 C.ar    1  LIG1       -0.0778
      6 C           2.8741    4.7135    5.9080 C.ar    1  LIG1       -0.0986
      7 C           0.4807    4.9138    5.6467 C.ar    1  LIG1       -0.0957
      8 C          -0.2358    2.8200   -1.3598 C.ar    1  LIG1       -0.0631
      9 C           1.7751    3.6853    4.0181 C.ar    1  LIG1       -0.0153
     10 C           1.9130    2.6150   -0.2471 C.ar    1  LIG1       -0.0156
     11 C           1.6448    5.1897    6.3638 C.ar    1  LIG1       -0.1139
     12 C           0.8021    3.3692   -0.6269 C.ar    1  LIG1       -0.0304
     13 C           2.1506    4.8426    0.5465 C.2     1  LIG1        0.1545
     14 C           1.8426    2.8904    2.7796 C.2     1  LIG1        0.0864
     15 C           2.8665    3.4763    0.5332 C.3     1  LIG1        0.1296
     16 C           1.5755    5.9933    7.6185 C.3     1  LIG1       -0.0399
     17 C           1.5908    7.1447   -1.7133 C.3     1  LIG1       -0.0659
     18 C           3.1186    2.9721    1.9467 C.3     1  LIG1        0.0861
     19 C           0.2229    6.4782   -1.6807 C.3     1  LIG1       -0.0498
     20 C          -0.0311    5.7179   -0.3846 C.3     1  LIG1       -0.0097
     21 N           0.9466    4.6808   -0.1547 N.am    1  LIG1       -0.3130
     22 O           2.5891    5.8594    1.0647 O.2     1  LIG1       -0.4290
     23 O           0.9107    2.1753    2.4063 O.2     1  LIG1       -0.4439
     24 O           4.0814    3.6163   -0.1773 O.3     1  LIG1       -0.4413
     25 H           1.0332   -0.3380   -1.6243 H       1  LIG1        0.1204
     26 H          -0.9356    1.0085   -2.2901 H       1  LIG1        0.1332
     27 H           3.9021    3.5947    4.3888 H       1  LIG1        0.1314
     28 H          -0.3677    3.9528    3.9232 H       1  LIG1        0.1390
     29 H           2.8773    0.6865   -0.3084 H       1  LIG1        0.1398
     30 H           3.7860    4.9235    6.4606 H       1  LIG1        0.1200
     31 H          -0.4815    5.2805    5.9947 H       1  LIG1        0.1208
     32 H          -1.1010    3.4018   -1.6570 H       1  LIG1        0.1261
     33 H           1.6898    7.0609    7.3950 H       1  LIG1        0.0604
     34 H           0.6173    5.8461    8.1333 H       1  LIG1        0.0564
     35 H           2.3635    5.6989    8.3239 H       1  LIG1        0.0563
     36 H           1.7010    7.8546   -0.8874 H       1  LIG1        0.0335
     37 H           2.3793    6.3910   -1.6191 H       1  LIG1        0.0359
     38 H           1.7509    7.6817   -2.6534 H       1  LIG1        0.0330
     39 H           3.8194    3.6534    2.4405 H       1  LIG1        0.1019
     40 H           3.5653    1.9740    1.8870 H       1  LIG1        0.1177
     41 H           0.1543    5.7778   -2.5211 H       1  LIG1        0.0483
     42 H          -0.5523    7.2395   -1.8286 H       1  LIG1        0.0480
     43 H           0.0223    6.4025    0.4678 H       1  LIG1        0.1119
     44 H          -1.0212    5.2511   -0.3851 H       1  LIG1        0.1142
     45 H           4.6657    4.1778    0.3609 H       1  LIG1        0.3475
@<TRIPOS>BOND
     1     1     2   ar
     2     1     5   ar
     3     2     8   ar
     4     3     6   ar
     5     3     9   ar
     6     4     7   ar
     7     4     9   ar
     8     5    10   ar
     9     6    11   ar
    10     7    11   ar
    11     8    12   ar
    12     9    14    1
    13    10    12   ar
    14    10    15    1
    15    11    16    1
    16    12    21    1
    17    13    15    1
    18    13    21   am
    19    13    22    2
    20    14    18    1
    21    14    23    2
    22    15    18    1
    23    15    24    1
    24    17    19    1
    25    19    20    1
    26    20    21    1
    27     1    25    1
    28     2    26    1
    29     3    27    1
    30     4    28    1
    31     5    29    1
    32     6    30    1
    33     7    31    1
    34     8    32    1
    35    16    33    1
    36    16    34    1
    37    16    35    1
    38    17    36    1
    39    17    37    1
    40    17    38    1
    41    18    39    1
    42    18    40    1
    43    19    41    1
    44    19    42    1
    45    20    43    1
    46    20    44    1
    47    24    45    1
