@<TRIPOS>MOLECULE
AG-690/11190003
 41 44 0 0 0
SMALL
USER_CHARGES

@<TRIPOS>ATOM
      1 C           1.9376    5.0713    6.0631 C.ar    1  LIG1       -0.0893
      2 C           1.7521    0.7868   -1.2635 C.ar    1  LIG1       -0.0843
      3 C           1.7506    3.6914    6.0901 C.ar    1  LIG1       -0.0833
      4 C           1.3732    7.1013   -1.7164 C.ar    1  LIG1       -0.0872
      5 C           2.4361    6.6951   -2.5230 C.ar    1  LIG1       -0.0966
      6 C           0.6822    1.1234   -2.0926 C.ar    1  LIG1       -0.0865
      7 C           1.9964    5.7430    4.8428 C.ar    1  LIG1       -0.0628
      8 C           2.0370    1.5651   -0.1416 C.ar    1  LIG1       -0.0487
      9 C           1.6193    2.9817    4.8956 C.ar    1  LIG1       -0.0501
     10 C           1.1691    6.4980   -0.4753 C.ar    1  LIG1       -0.0494
     11 C           3.2952    5.6856   -2.0885 C.ar    1  LIG1       -0.0580
     12 C          -0.1030    2.2385   -1.7998 C.ar    1  LIG1       -0.0378
     13 C           1.8642    5.0265    3.6472 C.ar    1  LIG1        0.0578
     14 C           1.2519    2.6803    0.1512 C.ar    1  LIG1        0.0701
     15 C           1.6753    3.6427    3.6628 C.ar    1  LIG1       -0.0032
     16 C           2.0281    5.4887   -0.0409 C.ar    1  LIG1        0.0329
     17 C           3.0911    5.0824   -0.8474 C.ar    1  LIG1        0.0269
     18 C           0.1819    3.0170   -0.6779 C.ar    1  LIG1        0.1038
     19 C           1.5583    3.5049    1.3449 C.ar    1  LIG1        0.0888
     20 C           1.9553    5.7203    2.3437 C.ar    1  LIG1        0.1576
     21 C           5.0932    4.5005    0.2966 C.3     1  LIG1        0.0270
     22 N           1.5110    2.8950    2.4904 N.ar    1  LIG1       -0.3407
     23 N           1.8077    4.8858    1.2202 N.ar    1  LIG1       -0.2187
     24 O           2.2020    6.9236    2.3372 O.2     1  LIG1       -0.4521
     25 O           3.9420    4.0977   -0.4421 O.3     1  LIG1       -0.4053
     26 F          -0.5797    4.0868   -0.4068 F       1  LIG1       -0.2525
     27 H           2.0355    5.6242    6.9927 H       1  LIG1        0.1244
     28 H           2.3634   -0.0814   -1.4916 H       1  LIG1        0.1289
     29 H           1.7090    3.1668    7.0401 H       1  LIG1        0.1371
     30 H           0.7047    7.8876   -2.0547 H       1  LIG1        0.1217
     31 H           2.5954    7.1653   -3.4889 H       1  LIG1        0.1344
     32 H           0.4603    0.5173   -2.9660 H       1  LIG1        0.1390
     33 H           2.1407    6.8198    4.8428 H       1  LIG1        0.1458
     34 H           2.8733    1.2928    0.4972 H       1  LIG1        0.1517
     35 H           1.4759    1.9042    4.9322 H       1  LIG1        0.1450
     36 H           0.3372    6.8233    0.1443 H       1  LIG1        0.1507
     37 H           4.1214    5.3743   -2.7220 H       1  LIG1        0.1192
     38 H          -0.9362    2.5009   -2.4451 H       1  LIG1        0.1367
     39 H           5.6858    3.6203    0.5578 H       1  LIG1        0.0919
     40 H           4.7804    5.0245    1.2033 H       1  LIG1        0.1233
     41 H           5.6946    5.1719   -0.3206 H       1  LIG1        0.0913
@<TRIPOS>BOND
     1     1     3   ar
     2     1     7   ar
     3     2     6   ar
     4     2     8   ar
     5     3     9   ar
     6     4     5   ar
     7     4    10   ar
     8     5    11   ar
     9     6    12   ar
    10     7    13   ar
    11     8    14   ar
    12     9    15   ar
    13    10    16   ar
    14    11    17   ar
    15    12    18   ar
    16    13    15   ar
    17    13    20   ar
    18    14    18   ar
    19    14    19    1
    20    15    22   ar
    21    16    17   ar
    22    16    23    1
    23    17    25    1
    24    18    26    1
    25    19    22   ar
    26    19    23   ar
    27    20    23   ar
    28    20    24    2
    29    21    25    1
    30     1    27    1
    31     2    28    1
    32     3    29    1
    33     4    30    1
    34     5    31    1
    35     6    32    1
    36     7    33    1
    37     8    34    1
    38     9    35    1
    39    10    36    1
    40    11    37    1
    41    12    38    1
    42    21    39    1
    43    21    40    1
    44    21    41    1
