@<TRIPOS>MOLECULE
AO-080/07165035
 40 42 0 0 0
SMALL
USER_CHARGES

@<TRIPOS>ATOM
      1 C           0.6874    0.7625   -0.7304 C.ar    1  LIG1       -0.0935
      2 C           0.1298    1.1370   -1.9645 C.ar    1  LIG1       -0.0912
      3 C           0.9939    4.7675    4.0483 C.ar    1  LIG1       -0.0830
      4 C           3.0192    3.7820    4.9223 C.ar    1  LIG1       -0.0692
      5 C           1.5090    1.6424   -0.0218 C.ar    1  LIG1       -0.0777
      6 C           0.3852    2.3966   -2.5109 C.ar    1  LIG1       -0.0633
      7 C           0.6251    5.1525    5.3372 C.ar    1  LIG1       -0.0651
      8 C           2.6505    4.1671    6.2113 C.ar    1  LIG1       -0.0495
      9 C           2.1910    4.0821    3.8408 C.ar    1  LIG1       -0.0133
     10 C           1.7565    2.8901   -0.5683 C.ar    1  LIG1       -0.0159
     11 C           1.2014    3.2556   -1.7954 C.ar    1  LIG1       -0.0321
     12 C           1.4534    4.8525    6.4187 C.ar    1  LIG1       -0.0096
     13 C           2.4452    5.0938   -1.1320 C.2     1  LIG1        0.1521
     14 C           2.5809    3.6754    2.4796 C.2     1  LIG1        0.0827
     15 C           2.5913    4.0204   -0.0340 C.3     1  LIG1        0.1294
     16 C           1.2120    5.2298   -3.3352 C.3     1  LIG1       -0.0033
     17 C           1.9872    4.8889    8.7359 C.3     1  LIG1        0.0263
     18 C           2.1127    4.5412    1.3134 C.3     1  LIG1        0.0858
     19 N           1.6090    4.5561   -2.1217 N.am    1  LIG1       -0.3148
     20 O           2.9866    6.1899   -1.1181 O.2     1  LIG1       -0.4321
     21 O           3.2624    2.6714    2.2638 O.2     1  LIG1       -0.4496
     22 O           3.9489    3.6289    0.0292 O.3     1  LIG1       -0.4415
     23 O           1.0936    5.2279    7.6764 O.3     1  LIG1       -0.4132
     24 H           0.4765   -0.2232   -0.3242 H       1  LIG1        0.1208
     25 H          -0.5067    0.4367   -2.4991 H       1  LIG1        0.1336
     26 H           0.3407    5.0071    3.2132 H       1  LIG1        0.1397
     27 H           3.9542    3.2485    4.7712 H       1  LIG1        0.1530
     28 H           1.9387    1.3489    0.9297 H       1  LIG1        0.1401
     29 H          -0.0486    2.6760   -3.4644 H       1  LIG1        0.1269
     30 H          -0.3087    5.6861    5.4924 H       1  LIG1        0.1149
     31 H           3.2996    3.9302    7.0498 H       1  LIG1        0.1326
     32 H           0.2843    5.7842   -3.1710 H       1  LIG1        0.1110
     33 H           1.0506    4.5028   -4.1357 H       1  LIG1        0.0976
     34 H           1.9897    5.9309   -3.6501 H       1  LIG1        0.0976
     35 H           1.5805    5.2463    9.6850 H       1  LIG1        0.0914
     36 H           2.9631    5.3449    8.5506 H       1  LIG1        0.1239
     37 H           2.0963    3.8025    8.7749 H       1  LIG1        0.0911
     38 H           1.0179    4.5656    1.3094 H       1  LIG1        0.1018
     39 H           2.4970    5.5571    1.4519 H       1  LIG1        0.1179
     40 H           4.4501    4.3861    0.3784 H       1  LIG1        0.3480
@<TRIPOS>BOND
     1     1     2   ar
     2     1     5   ar
     3     2     6   ar
     4     3     7   ar
     5     3     9   ar
     6     4     8   ar
     7     4     9   ar
     8     5    10   ar
     9     6    11   ar
    10     7    12   ar
    11     8    12   ar
    12     9    14    1
    13    10    11   ar
    14    10    15    1
    15    11    19    1
    16    12    23    1
    17    13    15    1
    18    13    19   am
    19    13    20    2
    20    14    18    1
    21    14    21    2
    22    15    18    1
    23    15    22    1
    24    16    19    1
    25    17    23    1
    26     1    24    1
    27     2    25    1
    28     3    26    1
    29     4    27    1
    30     5    28    1
    31     6    29    1
    32     7    30    1
    33     8    31    1
    34    16    32    1
    35    16    33    1
    36    16    34    1
    37    17    35    1
    38    17    36    1
    39    17    37    1
    40    18    38    1
    41    18    39    1
    42    22    40    1
