@<TRIPOS>MOLECULE
AK-778/15575001
 36 38 0 0 0
SMALL
USER_CHARGES

@<TRIPOS>ATOM
      1 C           0.6873    0.7625   -0.7303 C.ar    1  LIG1       -0.0930
      2 C           0.1298    1.1369   -1.9646 C.ar    1  LIG1       -0.0907
      3 C           2.6509    4.1667    6.2108 C.ar    1  LIG1       -0.0828
      4 C           3.0192    3.7820    4.9216 C.ar    1  LIG1       -0.0701
      5 C           1.5089    1.6426   -0.0218 C.ar    1  LIG1       -0.0774
      6 C           0.3854    2.3964   -2.5111 C.ar    1  LIG1       -0.0631
      7 C           1.4538    4.8519    6.4190 C.ar    1  LIG1       -0.0759
      8 C           0.9936    4.7680    4.0488 C.ar    1  LIG1       -0.0602
      9 C           2.1905    4.0827    3.8406 C.ar    1  LIG1       -0.0024
     10 C           1.7565    2.8902   -0.5685 C.ar    1  LIG1       -0.0160
     11 C           1.2016    3.2555   -1.7956 C.ar    1  LIG1       -0.0320
     12 C           0.6252    5.1525    5.3381 C.ar    1  LIG1       -0.0341
     13 C           2.4454    5.0937   -1.1324 C.2     1  LIG1        0.1519
     14 C           2.5805    3.6758    2.4795 C.2     1  LIG1        0.0922
     15 C           2.5913    4.0205   -0.0342 C.3     1  LIG1        0.1296
     16 C           1.2125    5.2295   -3.3358 C.3     1  LIG1       -0.0031
     17 C           2.1125    4.5415    1.3131 C.3     1  LIG1        0.0883
     18 N           1.6093    4.5560   -2.1221 N.am    1  LIG1       -0.3145
     19 O           2.9869    6.1898   -1.1186 O.2     1  LIG1       -0.4328
     20 O           3.2620    2.6717    2.2639 O.2     1  LIG1       -0.4412
     21 O           3.9489    3.6289    0.0292 O.3     1  LIG1       -0.4411
     22 BR         -0.9962    6.0813    5.6205 Br      1  LIG1       -0.1078
     23 H           0.4762   -0.2231   -0.3240 H       1  LIG1        0.1215
     24 H          -0.5066    0.4366   -2.4992 H       1  LIG1        0.1341
     25 H           3.2962    3.9324    7.0523 H       1  LIG1        0.1336
     26 H           3.9542    3.2486    4.7716 H       1  LIG1        0.1492
     27 H           1.9384    1.3492    0.9299 H       1  LIG1        0.1405
     28 H          -0.0483    2.6758   -3.4647 H       1  LIG1        0.1271
     29 H           1.1819    5.1443    7.4300 H       1  LIG1        0.1443
     30 H           0.3509    5.0001    3.2022 H       1  LIG1        0.1481
     31 H           0.2848    5.7839   -3.1717 H       1  LIG1        0.0953
     32 H           1.0511    4.5024   -4.1361 H       1  LIG1        0.1070
     33 H           1.9903    5.9304   -3.6507 H       1  LIG1        0.1046
     34 H           1.0178    4.5659    1.3089 H       1  LIG1        0.1035
     35 H           2.4969    5.5573    1.4514 H       1  LIG1        0.1199
     36 H           4.4500    4.3861    0.3783 H       1  LIG1        0.3477
@<TRIPOS>BOND
     1     1     2   ar
     2     1     5   ar
     3     2     6   ar
     4     3     4   ar
     5     3     7   ar
     6     4     9   ar
     7     5    10   ar
     8     6    11   ar
     9     7    12   ar
    10     8     9   ar
    11     8    12   ar
    12     9    14    1
    13    10    11   ar
    14    10    15    1
    15    11    18    1
    16    12    22    1
    17    13    15    1
    18    13    18   am
    19    13    19    2
    20    14    17    1
    21    14    20    2
    22    15    17    1
    23    15    21    1
    24    16    18    1
    25     1    23    1
    26     2    24    1
    27     3    25    1
    28     4    26    1
    29     5    27    1
    30     6    28    1
    31     7    29    1
    32     8    30    1
    33    16    31    1
    34    16    32    1
    35    16    33    1
    36    17    34    1
    37    17    35    1
    38    21    36    1
