@<TRIPOS>MOLECULE
AG-690/11142068
 49 53 0 0 0
SMALL
USER_CHARGES

@<TRIPOS>ATOM
      1 C           2.3097    7.2585   -2.8568 C.ar    1  LIG1       -0.1040
      2 C           4.2309    0.2303   -2.1900 C.ar    1  LIG1       -0.1042
      3 C           4.5556    1.1019   -1.1548 C.ar    1  LIG1       -0.1014
      4 C           3.1130    6.1315   -2.6830 C.ar    1  LIG1       -0.0970
      5 C           1.3369    7.5745   -1.9084 C.ar    1  LIG1       -0.1017
      6 C          -0.4343    1.5706   -1.8555 C.ar    1  LIG1       -0.0935
      7 C           2.9100    0.1256   -2.6266 C.ar    1  LIG1       -0.0925
      8 C           3.5606    1.8720   -0.5521 C.ar    1  LIG1       -0.0810
      9 C           0.5608    0.8004   -2.4582 C.ar    1  LIG1       -0.0892
     10 C           2.9435    5.3205   -1.5610 C.ar    1  LIG1       -0.0789
     11 C           1.1673    6.7634   -0.7864 C.ar    1  LIG1       -0.0853
     12 C          -0.1096    2.4421   -0.8202 C.ar    1  LIG1       -0.0716
     13 C           3.0001    4.1417    4.7643 C.ar    1  LIG1       -0.0632
     14 C           0.6560    4.7231    4.8321 C.ar    1  LIG1       -0.0643
     15 C           3.0748    4.2815    6.1500 C.ar    1  LIG1       -0.0595
     16 C           0.7308    4.8628    6.2179 C.ar    1  LIG1       -0.0530
     17 C           1.8956    0.8931   -2.0315 C.ar    1  LIG1       -0.0743
     18 C           2.2257    1.7794   -0.9787 C.ar    1  LIG1       -0.0496
     19 C           1.9706    5.6365   -0.6125 C.ar    1  LIG1       -0.0528
     20 C           1.7906    4.3625    4.1052 C.ar    1  LIG1       -0.0141
     21 C           1.2114    2.5470   -0.3835 C.ar    1  LIG1       -0.0242
     22 C           1.9403    4.6419    6.8768 C.ar    1  LIG1       -0.0117
     23 C           1.4711    3.4707    0.6937 C.ar    1  LIG1        0.0049
     24 C           1.7961    4.7987    0.5475 C.ar    1  LIG1       -0.0170
     25 C           1.7133    4.2180    2.6719 C.ar    1  LIG1        0.0135
     26 C           0.8155    5.1491    8.9100 C.3     1  LIG1        0.0243
     27 N           1.4208    3.1155    2.0184 N.ar    1  LIG1       -0.3607
     28 N           1.9477    5.2641    1.8233 N.ar    1  LIG1       -0.3262
     29 O           2.0133    4.7784    8.2292 O.3     1  LIG1       -0.4170
     30 H           2.4422    7.8903   -3.7303 H       1  LIG1        0.1186
     31 H           5.0059   -0.3686   -2.6595 H       1  LIG1        0.1152
     32 H           5.5842    1.1830   -0.8159 H       1  LIG1        0.1133
     33 H           3.8703    5.8855   -3.4217 H       1  LIG1        0.1210
     34 H           0.7121    8.4527   -2.0432 H       1  LIG1        0.1182
     35 H          -1.4628    1.4890   -2.1947 H       1  LIG1        0.1197
     36 H           2.6788   -0.5620   -3.4376 H       1  LIG1        0.1222
     37 H           3.8609    2.5391    0.2524 H       1  LIG1        0.1325
     38 H           0.2841    0.1261   -3.2660 H       1  LIG1        0.1248
     39 H           3.5793    4.4470   -1.4385 H       1  LIG1        0.1297
     40 H           0.4038    7.0227   -0.0567 H       1  LIG1        0.1193
     41 H          -0.9003    3.0333   -0.3636 H       1  LIG1        0.1259
     42 H           3.8934    3.8600    4.2118 H       1  LIG1        0.1516
     43 H          -0.2940    4.8987    4.3330 H       1  LIG1        0.1326
     44 H           4.0198    4.1081    6.6578 H       1  LIG1        0.1183
     45 H          -0.1564    5.1439    6.7789 H       1  LIG1        0.1323
     46 H           1.0130    5.2231    9.9822 H       1  LIG1        0.1224
     47 H           0.0418    4.4004    8.7220 H       1  LIG1        0.0903
     48 H           0.4797    6.1192    8.5359 H       1  LIG1        0.0903
     49 H           2.1897    6.2096    2.0911 H       1  LIG1        0.3464
@<TRIPOS>BOND
     1     1     4   ar
     2     1     5   ar
     3     2     3   ar
     4     2     7   ar
     5     3     8   ar
     6     4    10   ar
     7     5    11   ar
     8     6     9   ar
     9     6    12   ar
    10     7    17   ar
    11     8    18   ar
    12     9    17   ar
    13    10    19   ar
    14    11    19   ar
    15    12    21   ar
    16    13    15   ar
    17    13    20   ar
    18    14    16   ar
    19    14    20   ar
    20    15    22   ar
    21    16    22   ar
    22    17    18   ar
    23    18    21   ar
    24    19    24    1
    25    20    25    1
    26    21    23    1
    27    22    29    1
    28    23    24   ar
    29    23    27   ar
    30    24    28   ar
    31    25    27   ar
    32    25    28   ar
    33    26    29    1
    34     1    30    1
    35     2    31    1
    36     3    32    1
    37     4    33    1
    38     5    34    1
    39     6    35    1
    40     7    36    1
    41     8    37    1
    42     9    38    1
    43    10    39    1
    44    11    40    1
    45    12    41    1
    46    13    42    1
    47    14    43    1
    48    15    44    1
    49    16    45    1
    50    26    46    1
    51    26    47    1
    52    26    48    1
    53    28    49    1
