@<TRIPOS>MOLECULE
AF-399/42385979
 53 55 0 0 0
SMALL
USER_CHARGES

@<TRIPOS>ATOM
      1 C           1.2696    4.1752    6.2888 C.ar    1  LIG1       -0.1092
      2 C           2.6145    7.1462   -2.7171 C.ar    1  LIG1       -0.1059
      3 C           0.8571    5.2761    5.5382 C.ar    1  LIG1       -0.1083
      4 C           2.2384    3.3090    5.7821 C.ar    1  LIG1       -0.1055
      5 C           1.2798    6.7471   -2.6481 C.ar    1  LIG1       -0.1049
      6 C           3.4833    6.8605   -1.6637 C.ar    1  LIG1       -0.1045
      7 C           1.4135    5.5108    4.2807 C.ar    1  LIG1       -0.1011
      8 C           2.7947    3.5435    4.5247 C.ar    1  LIG1       -0.0965
      9 C           0.8136    6.0624   -1.5259 C.ar    1  LIG1       -0.1000
     10 C           3.0172    6.1758   -0.5415 C.ar    1  LIG1       -0.1001
     11 C           2.0878    2.4370   -1.4182 C.ar    1  LIG1       -0.0417
     12 C           0.5266    1.6310    0.2242 C.ar    1  LIG1       -0.0279
     13 C           1.2870    1.8539   -2.3868 C.ar    1  LIG1       -0.0350
     14 C           1.6933    2.3188   -0.0901 C.ar    1  LIG1        0.0373
     15 C           2.3822    4.6445    3.7739 C.ar    1  LIG1       -0.0853
     16 C           1.6823    5.7766   -0.4725 C.ar    1  LIG1       -0.0903
     17 C          -0.2046    1.0843   -0.8181 C.ar    1  LIG1       -0.0412
     18 C           2.4976    2.9140    0.9651 C.2     1  LIG1        0.1280
     19 C          -2.4999    1.2537    0.2059 C.3     1  LIG1       -0.0519
     20 C          -1.1871   -0.8844    0.4091 C.3     1  LIG1       -0.0516
     21 C          -2.2131   -0.2389   -1.7617 C.3     1  LIG1       -0.0520
     22 C           2.9813    4.8963    2.4205 C.3     1  LIG1        0.0084
     23 C           1.1812    5.0398    0.7359 C.3     1  LIG1        0.0056
     24 C          -1.5008    0.3176   -0.5081 C.3     1  LIG1       -0.0283
     25 N           0.1468    1.1783   -2.1201 N.ar    1  LIG1       -0.3910
     26 N           2.2303    4.2375    1.3610 N.am    1  LIG1       -0.3329
     27 O           3.3768    2.2031    1.4701 O.2     1  LIG1       -0.4646
     28 H           0.8373    3.9934    7.2685 H       1  LIG1        0.1140
     29 H           2.9776    7.6782   -3.5915 H       1  LIG1        0.1176
     30 H           0.1037    5.9514    5.9330 H       1  LIG1        0.1129
     31 H           2.5605    2.4523    6.3668 H       1  LIG1        0.1141
     32 H           0.6036    6.9685   -3.4686 H       1  LIG1        0.1174
     33 H           4.5227    7.1701   -1.7175 H       1  LIG1        0.1177
     34 H           1.0859    6.3709    3.7028 H       1  LIG1        0.1146
     35 H           3.5488    2.8633    4.1380 H       1  LIG1        0.1250
     36 H          -0.2280    5.7555   -1.4808 H       1  LIG1        0.1185
     37 H           3.7011    5.9576    0.2745 H       1  LIG1        0.1167
     38 H           2.9930    2.9659   -1.6970 H       1  LIG1        0.1347
     39 H           0.1974    1.5265    1.2534 H       1  LIG1        0.1469
     40 H           1.5510    1.9179   -3.4374 H       1  LIG1        0.2049
     41 H          -3.4347    0.7305    0.4387 H       1  LIG1        0.0409
     42 H          -2.1043    1.6381    1.1524 H       1  LIG1        0.0470
     43 H          -2.7485    2.1177   -0.4218 H       1  LIG1        0.0394
     44 H          -2.0843   -1.4619    0.6571 H       1  LIG1        0.0410
     45 H          -0.4843   -1.5753   -0.0713 H       1  LIG1        0.0407
     46 H          -0.7374   -0.5536    1.3527 H       1  LIG1        0.0480
     47 H          -3.1297   -0.7760   -1.4896 H       1  LIG1        0.0407
     48 H          -2.5028    0.5629   -2.4508 H       1  LIG1        0.0461
     49 H          -1.5765   -0.9450   -2.3075 H       1  LIG1        0.0399
     50 H           3.0029    5.9694    2.2015 H       1  LIG1        0.1302
     51 H           4.0137    4.5340    2.3741 H       1  LIG1        0.1309
     52 H           0.8013    5.7419    1.4861 H       1  LIG1        0.1383
     53 H           0.3577    4.3677    0.4728 H       1  LIG1        0.1126
@<TRIPOS>BOND
     1     1     3   ar
     2     1     4   ar
     3     2     5   ar
     4     2     6   ar
     5     3     7   ar
     6     4     8   ar
     7     5     9   ar
     8     6    10   ar
     9     7    15   ar
    10     8    15   ar
    11     9    16   ar
    12    10    16   ar
    13    11    13   ar
    14    11    14   ar
    15    12    14   ar
    16    12    17   ar
    17    13    25   ar
    18    14    18    1
    19    15    22    1
    20    16    23    1
    21    17    24    1
    22    17    25   ar
    23    18    26   am
    24    18    27    2
    25    19    24    1
    26    20    24    1
    27    21    24    1
    28    22    26    1
    29    23    26    1
    30     1    28    1
    31     2    29    1
    32     3    30    1
    33     4    31    1
    34     5    32    1
    35     6    33    1
    36     7    34    1
    37     8    35    1
    38     9    36    1
    39    10    37    1
    40    11    38    1
    41    12    39    1
    42    13    40    1
    43    19    41    1
    44    19    42    1
    45    19    43    1
    46    20    44    1
    47    20    45    1
    48    20    46    1
    49    21    47    1
    50    21    48    1
    51    21    49    1
    52    22    50    1
    53    22    51    1
    54    23    52    1
    55    23    53    1
