@<TRIPOS>MOLECULE
AJ-091/33281008
 44 47 0 0 0
SMALL
USER_CHARGES

@<TRIPOS>ATOM
      1 C           0.4413    1.2236   -2.4906 C.ar    1  LIG1       -0.1051
      2 C          -0.2207    2.2582   -1.8298 C.ar    1  LIG1       -0.1026
      3 C           1.5554    0.6222   -1.9051 C.ar    1  LIG1       -0.1026
      4 C           2.4551    5.3381    5.8075 C.ar    1  LIG1       -0.0865
      5 C           1.8905    4.0988    6.0903 C.ar    1  LIG1       -0.0952
      6 C           3.1755    5.5302   -1.1293 C.ar    1  LIG1       -0.0726
      7 C           1.1776    6.6922   -0.4257 C.ar    1  LIG1       -0.0691
      8 C           0.2314    2.6917   -0.5835 C.ar    1  LIG1       -0.0968
      9 C           2.0076    1.0556   -0.6588 C.ar    1  LIG1       -0.0971
     10 C           2.4119    5.8423    4.5078 C.ar    1  LIG1       -0.0530
     11 C           3.1192    6.1800   -2.3622 C.ar    1  LIG1       -0.0640
     12 C           1.1213    7.3422   -1.6586 C.ar    1  LIG1       -0.0550
     13 C           1.2831    3.3621    5.0742 C.ar    1  LIG1       -0.0835
     14 C           2.2046    5.7863   -0.1610 C.ar    1  LIG1       -0.0266
     15 C           1.3456    2.0904    0.0020 C.ar    1  LIG1       -0.0937
     16 C           1.8161    5.1108    3.4698 C.ar    1  LIG1       -0.0340
     17 C           2.0922    7.0860   -2.6269 C.ar    1  LIG1       -0.0139
     18 C           1.2460    3.8569    3.7629 C.ar    1  LIG1       -0.0302
     19 C           2.2645    5.0924    1.1560 C.2     1  LIG1       -0.0261
     20 C           2.8771    3.6954    1.2256 C.3     1  LIG1        0.0265
     21 C           1.8396    2.5631    1.3619 C.3     1  LIG1        0.0153
     22 C           0.9602    8.6337   -4.0336 C.3     1  LIG1        0.0243
     23 N           1.7746    5.7058    2.1936 N.2     1  LIG1       -0.4045
     24 O           2.0370    7.7201   -3.8299 O.3     1  LIG1       -0.4169
     25 S           0.4313    2.8758    2.5126 S.3     1  LIG1       -0.1846
     26 H           0.0883    0.8853   -3.4605 H       1  LIG1        0.1181
     27 H          -1.0889    2.7259   -2.2851 H       1  LIG1        0.1189
     28 H           2.0704   -0.1842   -2.4188 H       1  LIG1        0.1187
     29 H           2.9346    5.9104    6.5961 H       1  LIG1        0.1256
     30 H           1.9270    3.7026    7.1008 H       1  LIG1        0.1273
     31 H           3.9805    4.8265   -0.9342 H       1  LIG1        0.1469
     32 H           0.4164    6.8990    0.3223 H       1  LIG1        0.1424
     33 H          -0.2905    3.4987   -0.0760 H       1  LIG1        0.1230
     34 H           2.8765    0.5814   -0.2104 H       1  LIG1        0.1211
     35 H           2.8491    6.8176    4.3060 H       1  LIG1        0.1417
     36 H           3.8783    5.9762   -3.1125 H       1  LIG1        0.1118
     37 H           0.3188    8.0466   -1.8592 H       1  LIG1        0.1292
     38 H           0.8382    2.4013    5.3219 H       1  LIG1        0.1279
     39 H           3.5431    3.5428    0.3543 H       1  LIG1        0.0957
     40 H           3.5632    3.6569    2.0940 H       1  LIG1        0.0982
     41 H           2.3768    1.6766    1.8067 H       1  LIG1        0.0997
     42 H           1.0350    9.0693   -5.0330 H       1  LIG1        0.0897
     43 H           1.0014    9.4214   -3.2772 H       1  LIG1        0.1221
     44 H           0.0144    8.0942   -3.9437 H       1  LIG1        0.0899
@<TRIPOS>BOND
     1     1     2   ar
     2     1     3   ar
     3     2     8   ar
     4     3     9   ar
     5     4     5   ar
     6     4    10   ar
     7     5    13   ar
     8     6    11   ar
     9     6    14   ar
    10     7    12   ar
    11     7    14   ar
    12     8    15   ar
    13     9    15   ar
    14    10    16   ar
    15    11    17   ar
    16    12    17   ar
    17    13    18   ar
    18    14    19    1
    19    15    21    1
    20    16    18   ar
    21    16    23    1
    22    17    24    1
    23    18    25    1
    24    19    20    1
    25    19    23    2
    26    20    21    1
    27    21    25    1
    28    22    24    1
    29     1    26    1
    30     2    27    1
    31     3    28    1
    32     4    29    1
    33     5    30    1
    34     6    31    1
    35     7    32    1
    36     8    33    1
    37     9    34    1
    38    10    35    1
    39    11    36    1
    40    12    37    1
    41    13    38    1
    42    20    39    1
    43    20    40    1
    44    21    41    1
    45    22    42    1
    46    22    43    1
    47    22    44    1
