@<TRIPOS>MOLECULE
AK-778/41314809
 42 44 0 0 0
SMALL
USER_CHARGES

@<TRIPOS>ATOM
      1 C           0.9779    0.7085   -1.3368 C.ar    1  LIG1       -0.0934
      2 C          -0.1390    1.4726   -1.7147 C.ar    1  LIG1       -0.0911
      3 C           2.9391    3.9609    4.7348 C.ar    1  LIG1       -0.0730
      4 C           0.5455    4.1619    4.4742 C.ar    1  LIG1       -0.0687
      5 C           2.0162    1.2794   -0.5968 C.ar    1  LIG1       -0.0778
      6 C          -0.2358    2.8200   -1.3601 C.ar    1  LIG1       -0.0629
      7 C           2.8746    4.7131    5.9076 C.ar    1  LIG1       -0.0669
      8 C           0.4810    4.9143    5.6470 C.ar    1  LIG1       -0.0640
      9 C           1.7746    3.6853    4.0180 C.ar    1  LIG1       -0.0078
     10 C           1.9129    2.6150   -0.2471 C.ar    1  LIG1       -0.0157
     11 C           0.8020    3.3692   -0.6270 C.ar    1  LIG1       -0.0304
     12 C           1.6456    5.1899    6.3637 C.ar    1  LIG1       -0.0101
     13 C           2.1504    4.8425    0.5465 C.2     1  LIG1        0.1543
     14 C           1.8422    2.8904    2.7795 C.2     1  LIG1        0.0907
     15 C           2.8663    3.4763    0.5333 C.3     1  LIG1        0.1297
     16 C           1.5908    7.1447   -1.7134 C.3     1  LIG1       -0.0659
     17 C           3.1183    2.9721    1.9468 C.3     1  LIG1        0.0872
     18 C           0.2229    6.4782   -1.6809 C.3     1  LIG1       -0.0498
     19 C          -0.0313    5.7178   -0.3849 C.3     1  LIG1       -0.0097
     20 N           0.9464    4.6808   -0.1549 N.am    1  LIG1       -0.3130
     21 O           2.5888    5.8594    1.0647 O.2     1  LIG1       -0.4295
     22 O           0.9104    2.1752    2.4062 O.2     1  LIG1       -0.4397
     23 O           4.0813    3.6163   -0.1771 O.3     1  LIG1       -0.4411
     24 CL          1.5660    6.1167    7.8112 Cl      1  LIG1       -0.1334
     25 H           1.0333   -0.3380   -1.6244 H       1  LIG1        0.1207
     26 H          -0.9355    1.0084   -2.2904 H       1  LIG1        0.1335
     27 H           3.9020    3.5948    4.3881 H       1  LIG1        0.1428
     28 H          -0.3682    3.9530    3.9239 H       1  LIG1        0.1503
     29 H           2.8773    0.6865   -0.3084 H       1  LIG1        0.1400
     30 H          -1.1010    3.4018   -1.6574 H       1  LIG1        0.1263
     31 H           3.7898    4.9199    6.4564 H       1  LIG1        0.1363
     32 H          -0.4836    5.2793    5.9901 H       1  LIG1        0.1372
     33 H           1.7009    7.8546   -0.8874 H       1  LIG1        0.0331
     34 H           2.3792    6.3910   -1.6191 H       1  LIG1        0.0335
     35 H           1.7509    7.6816   -2.6534 H       1  LIG1        0.0360
     36 H           3.8190    3.6534    2.4407 H       1  LIG1        0.1030
     37 H           3.5650    1.9741    1.8871 H       1  LIG1        0.1191
     38 H           0.1543    5.7778   -2.5214 H       1  LIG1        0.0483
     39 H          -0.5523    7.2394   -1.8289 H       1  LIG1        0.0480
     40 H           0.0221    6.4024    0.4676 H       1  LIG1        0.1120
     41 H          -1.0213    5.2510   -0.3854 H       1  LIG1        0.1144
     42 H           4.6655    4.1779    0.3612 H       1  LIG1        0.3476
@<TRIPOS>BOND
     1     1     2   ar
     2     1     5   ar
     3     2     6   ar
     4     3     7   ar
     5     3     9   ar
     6     4     8   ar
     7     4     9   ar
     8     5    10   ar
     9     6    11   ar
    10     7    12   ar
    11     8    12   ar
    12     9    14    1
    13    10    11   ar
    14    10    15    1
    15    11    20    1
    16    12    24    1
    17    13    15    1
    18    13    20   am
    19    13    21    2
    20    14    17    1
    21    14    22    2
    22    15    17    1
    23    15    23    1
    24    16    18    1
    25    18    19    1
    26    19    20    1
    27     1    25    1
    28     2    26    1
    29     3    27    1
    30     4    28    1
    31     5    29    1
    32     6    30    1
    33     7    31    1
    34     8    32    1
    35    16    33    1
    36    16    34    1
    37    16    35    1
    38    17    36    1
    39    17    37    1
    40    18    38    1
    41    18    39    1
    42    19    40    1
    43    19    41    1
    44    23    42    1
