@<TRIPOS>MOLECULE
AJ-292/14407011
 48 52 0 0 0
SMALL
USER_CHARGES

@<TRIPOS>ATOM
      1 C           1.0600    3.9200    5.9883 C.ar    1  LIG1       -0.0908
      2 C           1.8746    5.0208    6.3015 C.ar    1  LIG1       -0.0894
      3 C          -0.2710    1.2060   -1.3064 C.ar    1  LIG1       -0.0897
      4 C           0.7163    1.3613   -2.2666 C.ar    1  LIG1       -0.0938
      5 C           1.0328    3.3915    4.6911 C.ar    1  LIG1       -0.0723
      6 C           2.6736    5.6091    5.3235 C.ar    1  LIG1       -0.0683
      7 C          -0.0339    1.6288    0.0013 C.ar    1  LIG1       -0.0621
      8 C           1.5059    7.2810   -2.3581 C.ar    1  LIG1       -0.0716
      9 C           0.7619    6.6060   -1.3904 C.ar    1  LIG1       -0.0691
     10 C           1.9359    1.9343   -1.9136 C.ar    1  LIG1       -0.0785
     11 C           3.5243    6.2425   -1.5306 C.ar    1  LIG1       -0.0316
     12 C           1.8268    3.9763    3.7146 C.ar    1  LIG1       -0.0200
     13 C           2.6212    5.0619    4.0551 C.ar    1  LIG1        0.0168
     14 C           2.7802    5.5675   -0.5629 C.ar    1  LIG1       -0.0221
     15 C           1.1913    2.2186    0.3872 C.ar    1  LIG1       -0.0497
     16 C           2.8871    7.0991   -2.4283 C.ar    1  LIG1       -0.0073
     17 C           1.3989    5.7493   -0.4928 C.ar    1  LIG1        0.0024
     18 C           2.1824    2.3746   -0.5983 C.ar    1  LIG1       -0.0246
     19 C           2.0143    3.6581    2.2913 C.2     1  LIG1       -0.0231
     20 C           3.3337    5.4596    2.8554 C.2     1  LIG1        0.1084
     21 C           2.9048    4.5286    1.7744 C.2     1  LIG1        0.0377
     22 C           3.4907    4.6387    0.4062 C.3     1  LIG1        0.0538
     23 C           5.0205    7.5261   -3.3888 C.3     1  LIG1        0.0208
     24 C          -0.7477    5.3432    0.4466 C.3     1  LIG1        0.0256
     25 N           1.2814    2.6496    1.7270 N.pl3   1  LIG1       -0.3558
     26 O           4.1215    6.3783    2.7658 O.2     1  LIG1       -0.4369
     27 O           3.6126    7.7578   -3.3729 O.3     1  LIG1       -0.4215
     28 O           0.6573    5.0988    0.4469 O.3     1  LIG1       -0.4110
     29 S           3.8341    2.9873   -0.2938 S.3     1  LIG1       -0.1582
     30 H           0.4440    3.4716    6.7634 H       1  LIG1        0.1282
     31 H           1.8802    5.4142    7.3143 H       1  LIG1        0.1258
     32 H          -1.2248    0.7589   -1.5699 H       1  LIG1        0.1293
     33 H           0.5439    1.0311   -3.2866 H       1  LIG1        0.1233
     34 H           0.3970    2.5389    4.4771 H       1  LIG1        0.1396
     35 H           3.3059    6.4582    5.5550 H       1  LIG1        0.1496
     36 H          -0.8300    1.5028    0.7340 H       1  LIG1        0.1338
     37 H           1.0042    7.9467   -3.0549 H       1  LIG1        0.1179
     38 H          -0.3143    6.7504   -1.3430 H       1  LIG1        0.1168
     39 H           2.6988    2.0291   -2.6845 H       1  LIG1        0.1398
     40 H           4.6012    6.1036   -1.5876 H       1  LIG1        0.1543
     41 H           4.5258    5.0850    0.5186 H       1  LIG1        0.1255
     42 H           5.4778    8.1120   -4.1898 H       1  LIG1        0.0865
     43 H           5.2138    6.4619   -3.5451 H       1  LIG1        0.1202
     44 H           5.4421    7.8338   -2.4290 H       1  LIG1        0.0868
     45 H          -1.2193    4.7638    1.2440 H       1  LIG1        0.1192
     46 H          -1.1676    5.0594   -0.5218 H       1  LIG1        0.0846
     47 H          -0.9235    6.4075    0.6198 H       1  LIG1        0.0862
     48 H           0.5933    2.2237    2.3399 H       1  LIG1        0.3141
@<TRIPOS>BOND
     1     1     2   ar
     2     1     5   ar
     3     2     6   ar
     4     3     4   ar
     5     3     7   ar
     6     4    10   ar
     7     5    12   ar
     8     6    13   ar
     9     7    15   ar
    10     8     9   ar
    11     8    16   ar
    12     9    17   ar
    13    10    18   ar
    14    11    14   ar
    15    11    16   ar
    16    12    13   ar
    17    12    19    1
    18    13    20    1
    19    14    17   ar
    20    14    22    1
    21    15    18   ar
    22    15    25    1
    23    16    27    1
    24    17    28    1
    25    18    29    1
    26    19    21    2
    27    19    25    1
    28    20    21    1
    29    20    26    2
    30    21    22    1
    31    22    29    1
    32    23    27    1
    33    24    28    1
    34     1    30    1
    35     2    31    1
    36     3    32    1
    37     4    33    1
    38     5    34    1
    39     6    35    1
    40     7    36    1
    41     8    37    1
    42     9    38    1
    43    10    39    1
    44    11    40    1
    45    22    41    1
    46    23    42    1
    47    23    43    1
    48    23    44    1
    49    24    45    1
    50    24    46    1
    51    24    47    1
    52    25    48    1
