@<TRIPOS>MOLECULE
AE-641/30104015
 45 47 0 0 0
SMALL
USER_CHARGES

@<TRIPOS>ATOM
      1 C           2.2622    1.9735   -1.5263 C.ar    1  LIG1       -0.0819
      2 C           0.2661    2.4926   -0.2682 C.ar    1  LIG1       -0.0837
      3 C           0.9635    5.8985   -1.0921 C.ar    1  LIG1       -0.0813
      4 C           1.6113    0.8873   -2.1110 C.ar    1  LIG1       -0.0469
      5 C          -0.3850    1.4064   -0.8529 C.ar    1  LIG1       -0.0471
      6 C           1.0790    7.0755   -1.8344 C.ar    1  LIG1       -0.0726
      7 C           3.4978    6.8475   -1.8873 C.ar    1  LIG1       -0.0711
      8 C           1.5898    2.7762   -0.6049 C.ar    1  LIG1       -0.0654
      9 C           2.1213    5.2091   -0.7626 C.ar    1  LIG1       -0.0634
     10 C           3.3666    5.6805   -1.1544 C.ar    1  LIG1       -0.0679
     11 C           0.2877    0.6037   -1.7743 C.ar    1  LIG1        0.0636
     12 C           2.3394    7.5469   -2.2305 C.ar    1  LIG1       -0.0302
     13 C           4.4262    4.7763   -0.6533 C.3     1  LIG1        0.0385
     14 C           2.2855    3.9392    0.0205 C.3     1  LIG1        0.0382
     15 C           2.2551    4.4510    5.7405 C.3     1  LIG1       -0.0920
     16 C           4.0879    4.0632    4.1000 C.3     1  LIG1       -0.0918
     17 C           1.8933    4.0906    1.4857 C.3     1  LIG1       -0.0183
     18 C           2.2233    2.8313    2.2833 C.3     1  LIG1       -0.0622
     19 C           1.8601    3.0072    3.7502 C.3     1  LIG1       -0.1049
     20 N           2.5953    4.1732    4.2963 N.4     1  LIG1        0.4077
     21 O           3.7211    3.6665   -0.0491 O.3     1  LIG1       -0.4261
     22 F          -0.3384   -0.4379   -2.3378 F       1  LIG1       -0.2659
     23 BR          2.4699    9.1451   -3.2330 Br      1  LIG1       -0.0954
     24 H           3.2938    2.1860   -1.7944 H       1  LIG1        0.1392
     25 H          -0.2660    3.1127    0.4485 H       1  LIG1        0.1320
     26 H          -0.0118    5.5377   -0.7833 H       1  LIG1        0.1346
     27 H           2.1345    0.2627   -2.8288 H       1  LIG1        0.1328
     28 H          -1.4152    1.1851   -0.5907 H       1  LIG1        0.1335
     29 H           0.1758    7.6200   -2.0990 H       1  LIG1        0.1434
     30 H           4.4812    7.2017   -2.1802 H       1  LIG1        0.1447
     31 H           5.0560    4.3882   -1.4582 H       1  LIG1        0.1253
     32 H           5.0391    5.2552    0.1155 H       1  LIG1        0.1416
     33 H           2.5567    3.5817    6.3277 H       1  LIG1        0.0787
     34 H           2.8052    5.3424    6.0478 H       1  LIG1        0.0799
     35 H           1.1775    4.6132    5.8047 H       1  LIG1        0.0777
     36 H           4.4329    3.1846    4.6482 H       1  LIG1        0.0784
     37 H           4.2773    3.9577    3.0301 H       1  LIG1        0.0791
     38 H           4.5444    4.9743    4.4915 H       1  LIG1        0.0801
     39 H           2.4222    4.9513    1.9083 H       1  LIG1        0.0792
     40 H           0.8209    4.3031    1.5468 H       1  LIG1        0.0791
     41 H           1.6776    1.9763    1.8649 H       1  LIG1        0.0652
     42 H           3.2929    2.6057    2.1896 H       1  LIG1        0.0594
     43 H           0.7940    3.2115    3.8871 H       1  LIG1        0.0871
     44 H           2.1492    2.1400    4.3511 H       1  LIG1        0.0873
     45 H           2.2989    5.0115    3.7671 H       1  LIG1        0.1616
@<TRIPOS>BOND
     1     1     4   ar
     2     1     8   ar
     3     2     5   ar
     4     2     8   ar
     5     3     6   ar
     6     3     9   ar
     7     4    11   ar
     8     5    11   ar
     9     6    12   ar
    10     7    10   ar
    11     7    12   ar
    12     8    14    1
    13     9    10   ar
    14     9    14    1
    15    10    13    1
    16    11    22    1
    17    12    23    1
    18    13    21    1
    19    14    17    1
    20    14    21    1
    21    15    20    1
    22    16    20    1
    23    17    18    1
    24    18    19    1
    25    19    20    1
    26     1    24    1
    27     2    25    1
    28     3    26    1
    29     4    27    1
    30     5    28    1
    31     6    29    1
    32     7    30    1
    33    13    31    1
    34    13    32    1
    35    15    33    1
    36    15    34    1
    37    15    35    1
    38    16    36    1
    39    16    37    1
    40    16    38    1
    41    17    39    1
    42    17    40    1
    43    18    41    1
    44    18    42    1
    45    19    43    1
    46    19    44    1
    47    20    45    1
