@<TRIPOS>MOLECULE
AN-329/42685651
 53 55 0 0 0
SMALL
USER_CHARGES

@<TRIPOS>ATOM
      1 C           0.3844    0.6116   -1.8793 C.ar    1  LIG1       -0.1074
      2 C           2.1987    7.5575   -2.4028 C.ar    1  LIG1       -0.1054
      3 C           1.7169    0.9614   -2.0976 C.ar    1  LIG1       -0.1019
      4 C          -0.4048    1.3741   -1.0183 C.ar    1  LIG1       -0.1061
      5 C           1.1004    6.6996   -2.4614 C.ar    1  LIG1       -0.1041
      6 C           3.2534    7.2819   -1.5324 C.ar    1  LIG1       -0.1040
      7 C           2.2602    2.0738   -1.4550 C.ar    1  LIG1       -0.0921
      8 C           0.1385    2.4865   -0.3756 C.ar    1  LIG1       -0.0975
      9 C           1.0567    5.5662   -1.6496 C.ar    1  LIG1       -0.0992
     10 C           3.2096    6.1485   -0.7205 C.ar    1  LIG1       -0.0986
     11 C           3.1242    4.1346    4.8101 C.ar    1  LIG1       -0.0560
     12 C           0.8089    4.6548    4.3566 C.ar    1  LIG1       -0.0487
     13 C           2.8914    4.2899    6.1765 C.ar    1  LIG1       -0.0005
     14 C           0.5761    4.8100    5.7231 C.ar    1  LIG1        0.0036
     15 C           1.4710    2.8363   -0.5940 C.ar    1  LIG1       -0.0688
     16 C           2.1113    5.2906   -0.7791 C.ar    1  LIG1       -0.0752
     17 C           2.0829    4.3171    3.9000 C.ar    1  LIG1       -0.0425
     18 C           1.6174    4.6276    6.6330 C.ar    1  LIG1        0.2878
     19 C           1.4053    4.3131    1.4720 C.2     1  LIG1        0.1146
     20 C           1.2045    1.1087    7.6889 C.3     1  LIG1       -0.0484
     21 C           2.1599    1.5206    9.9831 C.3     1  LIG1       -0.0475
     22 C           2.0641    4.0518    0.1089 C.3     1  LIG1        0.0878
     23 C           1.8286    2.1299    8.6286 C.3     1  LIG1        0.0043
     24 N           2.3157    4.1617    2.5332 N.am    1  LIG1       -0.3024
     25 N           0.8790    3.2522    8.8263 N.3     1  LIG1       -0.1665
     26 O           0.2202    4.6175    1.5739 O.2     1  LIG1       -0.4616
     27 O           2.5805    5.1766    8.9955 O.2     1  LIG1       -0.0800
     28 O           0.1696    5.6942    8.5011 O.2     1  LIG1       -0.0800
     29 S           1.3226    4.8248    8.3648 S.O2    1  LIG1       -0.0542
     30 H          -0.0389   -0.2539   -2.3809 H       1  LIG1        0.1155
     31 H           2.2333    8.4393   -3.0360 H       1  LIG1        0.1180
     32 H           2.3312    0.3683   -2.7688 H       1  LIG1        0.1155
     33 H          -1.4426    1.1026   -0.8490 H       1  LIG1        0.1148
     34 H           0.2797    6.9135   -3.1399 H       1  LIG1        0.1182
     35 H           4.1091    7.9490   -1.4873 H       1  LIG1        0.1187
     36 H           3.2994    2.3388   -1.6310 H       1  LIG1        0.1238
     37 H          -0.4839    3.0747    0.2936 H       1  LIG1        0.1183
     38 H           0.1969    4.9035   -1.7018 H       1  LIG1        0.1178
     39 H           4.0358    5.9418   -0.0454 H       1  LIG1        0.1211
     40 H           4.1211    3.8714    4.4656 H       1  LIG1        0.1298
     41 H          -0.0101    4.7993    3.6564 H       1  LIG1        0.1469
     42 H           3.7099    4.1456    6.8768 H       1  LIG1        0.1534
     43 H          -0.4203    5.0732    6.0680 H       1  LIG1        0.1547
     44 H           0.2891    0.6902    8.1200 H       1  LIG1        0.0476
     45 H           0.9521    1.5572    6.7214 H       1  LIG1        0.0409
     46 H           1.8977    0.2822    7.4974 H       1  LIG1        0.0453
     47 H           1.2605    1.1088   10.4540 H       1  LIG1        0.0439
     48 H           2.5808    2.2737   10.6571 H       1  LIG1        0.0504
     49 H           2.8847    0.7042    9.8884 H       1  LIG1        0.0454
     50 H           3.1122    3.8052    0.3408 H       1  LIG1        0.1462
     51 H           2.7412    2.5344    8.1776 H       1  LIG1        0.1021
     52 H           3.2743    3.9129    2.2636 H       1  LIG1        0.3287
     53 H          -0.1082    2.9908    8.8488 H       1  LIG1        0.3473
@<TRIPOS>BOND
     1     1     3   ar
     2     1     4   ar
     3     2     5   ar
     4     2     6   ar
     5     3     7   ar
     6     4     8   ar
     7     5     9   ar
     8     6    10   ar
     9     7    15   ar
    10     8    15   ar
    11     9    16   ar
    12    10    16   ar
    13    11    13   ar
    14    11    17   ar
    15    12    14   ar
    16    12    17   ar
    17    13    18   ar
    18    14    18   ar
    19    15    22    1
    20    16    22    1
    21    17    24    1
    22    18    29    1
    23    19    22    1
    24    19    24   am
    25    19    26    2
    26    20    23    1
    27    21    23    1
    28    23    25    1
    29    25    29    1
    30    27    29    2
    31    28    29    2
    32     1    30    1
    33     2    31    1
    34     3    32    1
    35     4    33    1
    36     5    34    1
    37     6    35    1
    38     7    36    1
    39     8    37    1
    40     9    38    1
    41    10    39    1
    42    11    40    1
    43    12    41    1
    44    13    42    1
    45    14    43    1
    46    20    44    1
    47    20    45    1
    48    20    46    1
    49    21    47    1
    50    21    48    1
    51    21    49    1
    52    22    50    1
    53    23    51    1
    54    24    52    1
    55    25    53    1
