@<TRIPOS>MOLECULE
AO-081/41194887
 51 55 0 0 0
SMALL
USER_CHARGES

@<TRIPOS>ATOM
      1 C           7.0857    6.2477    0.2104 C.ar    1  LIG1       -0.1086
      2 C           1.9464    7.6166   -1.8401 C.ar    1  LIG1       -0.1073
      3 C           0.1158    0.6807   -1.8941 C.ar    1  LIG1       -0.1073
      4 C           6.7180    5.5364   -0.9318 C.ar    1  LIG1       -0.1030
      5 C           6.4117    6.0335    1.4126 C.ar    1  LIG1       -0.1060
      6 C           1.1560    7.2124   -0.7644 C.ar    1  LIG1       -0.1024
      7 C           2.9214    6.7592   -2.3502 C.ar    1  LIG1       -0.1029
      8 C           1.3881    0.9533   -2.3965 C.ar    1  LIG1       -0.1052
      9 C          -0.3755    1.4060   -0.8085 C.ar    1  LIG1       -0.1031
     10 C           1.0137    4.3222    3.8514 C.ar    1  LIG1       -0.0705
     11 C           3.1847    4.9848    4.6790 C.ar    1  LIG1       -0.0674
     12 C           5.6759    4.6111   -0.8717 C.ar    1  LIG1       -0.0958
     13 C           5.3696    5.1083    1.4727 C.ar    1  LIG1       -0.0981
     14 C           1.3405    5.9508   -0.1985 C.ar    1  LIG1       -0.0904
     15 C           3.1059    5.4977   -1.7844 C.ar    1  LIG1       -0.0895
     16 C           2.1693    1.9510   -1.8134 C.ar    1  LIG1       -0.0959
     17 C           0.4057    2.4036   -0.2254 C.ar    1  LIG1       -0.0932
     18 C           0.5539    4.1918    5.1618 C.ar    1  LIG1       -0.0748
     19 C           2.7249    4.8545    5.9895 C.ar    1  LIG1       -0.0726
     20 C           2.3292    4.7187    3.6099 C.ar    1  LIG1       -0.0031
     21 C           5.0017    4.3970    0.3305 C.ar    1  LIG1       -0.0995
     22 C           2.3154    5.0935   -0.7085 C.ar    1  LIG1       -0.0831
     23 C           1.6781    2.6763   -0.7278 C.ar    1  LIG1       -0.0900
     24 C           1.4095    4.4579    6.2308 C.ar    1  LIG1       -0.0362
     25 C           2.8085    4.8545    2.2437 C.2     1  LIG1        0.0877
     26 C           3.8905    3.4119    0.3949 C.3     1  LIG1       -0.0054
     27 C           2.7729    3.6332    1.3715 C.3     1  LIG1        0.0484
     28 C           2.5142    3.7435   -0.1025 C.3     1  LIG1       -0.0012
     29 O           3.2464    5.8953    1.7487 O.2     1  LIG1       -0.4348
     30 BR          0.7865    4.2814    8.0062 Br      1  LIG1       -0.1023
     31 H           7.8973    6.9680    0.1636 H       1  LIG1        0.1112
     32 H           1.8026    8.5987   -2.2808 H       1  LIG1        0.1124
     33 H          -0.4926   -0.0960   -2.3483 H       1  LIG1        0.1151
     34 H           7.2428    5.7029   -1.8681 H       1  LIG1        0.1113
     35 H           6.6982    6.5875    2.3019 H       1  LIG1        0.1115
     36 H           0.3966    7.8797   -0.3670 H       1  LIG1        0.1124
     37 H           3.5370    7.0742   -3.1879 H       1  LIG1        0.1132
     38 H           1.7708    0.3889   -3.2420 H       1  LIG1        0.1163
     39 H          -1.3663    1.1935   -0.4173 H       1  LIG1        0.1167
     40 H           0.3385    4.1123    3.0257 H       1  LIG1        0.1426
     41 H           4.2116    5.2944    4.5023 H       1  LIG1        0.1475
     42 H           5.3963    4.0625   -1.7671 H       1  LIG1        0.1143
     43 H           4.8503    4.9493    2.4143 H       1  LIG1        0.1193
     44 H           0.7202    5.6454    0.6399 H       1  LIG1        0.1149
     45 H           3.8689    4.8376   -2.1889 H       1  LIG1        0.1232
     46 H           3.1595    2.1555   -2.2117 H       1  LIG1        0.1195
     47 H           0.0137    2.9625    0.6206 H       1  LIG1        0.1217
     48 H          -0.4739    3.8820    5.3327 H       1  LIG1        0.1371
     49 H           3.4043    5.0657    6.8112 H       1  LIG1        0.1375
     50 H           4.2158    2.3812    0.2659 H       1  LIG1        0.1106
     51 H           2.3785    2.7591    1.8827 H       1  LIG1        0.1053
@<TRIPOS>BOND
     1     1     4   ar
     2     1     5   ar
     3     2     6   ar
     4     2     7   ar
     5     3     8   ar
     6     3     9   ar
     7     4    12   ar
     8     5    13   ar
     9     6    14   ar
    10     7    15   ar
    11     8    16   ar
    12     9    17   ar
    13    10    18   ar
    14    10    20   ar
    15    11    19   ar
    16    11    20   ar
    17    12    21   ar
    18    13    21   ar
    19    14    22   ar
    20    15    22   ar
    21    16    23   ar
    22    17    23   ar
    23    18    24   ar
    24    19    24   ar
    25    20    25    1
    26    21    26    1
    27    22    28    1
    28    23    28    1
    29    24    30    1
    30    25    27    1
    31    25    29    2
    32    26    27    1
    33    26    28    1
    34    27    28    1
    35     1    31    1
    36     2    32    1
    37     3    33    1
    38     4    34    1
    39     5    35    1
    40     6    36    1
    41     7    37    1
    42     8    38    1
    43     9    39    1
    44    10    40    1
    45    11    41    1
    46    12    42    1
    47    13    43    1
    48    14    44    1
    49    15    45    1
    50    16    46    1
    51    17    47    1
    52    18    48    1
    53    19    49    1
    54    26    50    1
    55    27    51    1
