@<TRIPOS>MOLECULE
AP-064/40095934
 38 41 0 0 0
SMALL
USER_CHARGES

@<TRIPOS>ATOM
      1 C           1.9064    5.0416    6.0299 C.ar    1  LIG1       -0.0899
      2 C           1.7482    3.6583    6.0596 C.ar    1  LIG1       -0.0838
      3 C           1.4001    7.1089   -1.7138 C.ar    1  LIG1       -0.0861
      4 C           2.4145    6.6551   -2.5569 C.ar    1  LIG1       -0.0935
      5 C           1.3901    0.9809   -1.5230 C.ar    1  LIG1       -0.1107
      6 C           1.9571    5.7112    4.8080 C.ar    1  LIG1       -0.0632
      7 C           1.6377    2.9428    4.8665 C.ar    1  LIG1       -0.0496
      8 C           1.2020    6.5038   -0.4728 C.ar    1  LIG1       -0.0509
      9 C           3.2306    5.5963   -2.1590 C.ar    1  LIG1       -0.0543
     10 C           1.9704    1.5067   -0.3326 C.ar    1  LIG1       -0.0719
     11 C           0.2982    1.7135   -1.9336 C.ar    1  LIG1       -0.0388
     12 C           1.8458    4.9891    3.6138 C.ar    1  LIG1        0.0588
     13 C           1.6859    3.6016    3.6321 C.ar    1  LIG1       -0.0017
     14 C           2.0181    5.4450   -0.0748 C.ar    1  LIG1        0.0322
     15 C           3.0325    4.9911   -0.9179 C.ar    1  LIG1        0.0290
     16 C           1.3000    2.6214    0.1212 C.ar    1  LIG1        0.0751
     17 C           1.9288    5.6812    2.3088 C.ar    1  LIG1        0.1584
     18 C           1.5832    3.4554    1.3141 C.ar    1  LIG1        0.0876
     19 C           5.0342    4.2900    0.1578 C.3     1  LIG1        0.0285
     20 N           1.5430    2.8476    2.4610 N.ar    1  LIG1       -0.3374
     21 N           1.8042    4.8409    1.1869 N.ar    1  LIG1       -0.2181
     22 O           2.1503    6.8894    2.3002 O.2     1  LIG1       -0.4515
     23 O           3.8409    3.9577   -0.5485 O.3     1  LIG1       -0.4031
     24 S          -0.0234    3.0294   -0.8861 S.2     1  LIG1       -0.0714
     25 H           1.9881    5.5991    6.9583 H       1  LIG1        0.1230
     26 H           1.7130    3.1356    7.0110 H       1  LIG1        0.1367
     27 H           0.7652    7.9338   -2.0237 H       1  LIG1        0.1256
     28 H           2.5693    7.1267   -3.5229 H       1  LIG1        0.1383
     29 H           1.7543    0.1091   -2.0504 H       1  LIG1        0.1070
     30 H           2.0790    6.7908    4.8057 H       1  LIG1        0.1456
     31 H           1.5171    1.8627    4.9056 H       1  LIG1        0.1442
     32 H           0.4083    6.8664    0.1756 H       1  LIG1        0.1504
     33 H           4.0191    5.2479   -2.8207 H       1  LIG1        0.1233
     34 H           2.8365    1.0846    0.1615 H       1  LIG1        0.1503
     35 H          -0.3264    1.5381   -2.7981 H       1  LIG1        0.1515
     36 H           5.5862    3.3764    0.3920 H       1  LIG1        0.0930
     37 H           4.7781    4.8199    1.0786 H       1  LIG1        0.1240
     38 H           5.6519    4.9349   -0.4716 H       1  LIG1        0.0932
@<TRIPOS>BOND
     1     1     2   ar
     2     1     6   ar
     3     2     7   ar
     4     3     4   ar
     5     3     8   ar
     6     4     9   ar
     7     5    10   ar
     8     5    11   ar
     9     6    12   ar
    10     7    13   ar
    11     8    14   ar
    12     9    15   ar
    13    10    16   ar
    14    11    24   ar
    15    12    13   ar
    16    12    17   ar
    17    13    20   ar
    18    14    15   ar
    19    14    21    1
    20    15    23    1
    21    16    18    1
    22    16    24   ar
    23    17    21   ar
    24    17    22    2
    25    18    20   ar
    26    18    21   ar
    27    19    23    1
    28     1    25    1
    29     2    26    1
    30     3    27    1
    31     4    28    1
    32     5    29    1
    33     6    30    1
    34     7    31    1
    35     8    32    1
    36     9    33    1
    37    10    34    1
    38    11    35    1
    39    19    36    1
    40    19    37    1
    41    19    38    1
