@<TRIPOS>MOLECULE
AE-848/36959007
 42 45 0 0 0
SMALL
USER_CHARGES

@<TRIPOS>ATOM
      1 C           2.6841    3.9283    6.1646 C.ar    1  LIG1       -0.0924
      2 C           0.8435    6.9335   -1.7059 C.ar    1  LIG1       -0.0918
      3 C           0.0400    0.6854   -1.2105 C.ar    1  LIG1       -0.0906
      4 C           0.8460    1.2682   -2.1910 C.ar    1  LIG1       -0.0949
      5 C           1.3260    4.0630    6.4525 C.ar    1  LIG1       -0.0924
      6 C           1.5498    7.7278   -2.6092 C.ar    1  LIG1       -0.0907
      7 C           3.1391    4.0905    4.8560 C.ar    1  LIG1       -0.0790
      8 C           1.4923    5.8997   -1.0307 C.ar    1  LIG1       -0.0857
      9 C           0.1011    1.1131    0.1218 C.ar    1  LIG1       -0.0604
     10 C           1.7404    2.2973   -1.8781 C.ar    1  LIG1       -0.0690
     11 C           0.4228    4.3598    5.4318 C.ar    1  LIG1       -0.0722
     12 C           2.9048    7.4880   -2.8373 C.ar    1  LIG1       -0.0784
     13 C           2.2360    4.3873    3.8353 C.ar    1  LIG1       -0.0264
     14 C           2.8473    5.6600   -1.2587 C.ar    1  LIG1       -0.0629
     15 C           0.9942    2.1458    0.4540 C.ar    1  LIG1       -0.0163
     16 C           1.7844    2.7071   -0.5451 C.ar    1  LIG1       -0.0238
     17 C           0.8777    4.5220    4.1232 C.ar    1  LIG1       -0.0065
     18 C           3.5536    6.4542   -2.1620 C.ar    1  LIG1       -0.0332
     19 C           2.1660    3.6460    1.4215 C.ar    1  LIG1        0.0416
     20 C           3.5041    4.5338   -0.5072 C.3     1  LIG1        0.0218
     21 C           2.7760    4.5552    2.4134 C.3     1  LIG1        0.0865
     22 N           1.2450    2.7418    1.6686 N.ar    1  LIG1       -0.3675
     23 N           2.5238    3.6637    0.1020 N.ar    1  LIG1       -0.3319
     24 O           2.6731    5.9495    2.0473 O.3     1  LIG1       -0.4412
     25 CL         -0.2693    4.8889    2.8868 Cl      1  LIG1       -0.1437
     26 BR          5.3958    6.1653   -2.5081 Br      1  LIG1       -0.1030
     27 H           3.3874    3.6980    6.9597 H       1  LIG1        0.1288
     28 H          -0.2112    7.1203   -1.5285 H       1  LIG1        0.1320
     29 H          -0.6464   -0.1116   -1.4847 H       1  LIG1        0.1214
     30 H           0.7778    0.9158   -3.2175 H       1  LIG1        0.1245
     31 H           0.9723    3.9378    7.4717 H       1  LIG1        0.1309
     32 H           1.0444    8.5327   -3.1346 H       1  LIG1        0.1321
     33 H           4.1996    3.9838    4.6426 H       1  LIG1        0.1365
     34 H           0.9321    5.2873   -0.3291 H       1  LIG1        0.1321
     35 H          -0.5299    0.6541    0.8758 H       1  LIG1        0.1407
     36 H           2.3651    2.7498   -2.6401 H       1  LIG1        0.1291
     37 H          -0.6321    4.4626    5.6731 H       1  LIG1        0.1343
     38 H           3.4386    8.1176   -3.5451 H       1  LIG1        0.1367
     39 H           4.1342    3.9293   -1.1709 H       1  LIG1        0.1406
     40 H           4.1617    4.9155    0.2833 H       1  LIG1        0.1444
     41 H           3.8741    4.3962    2.4662 H       1  LIG1        0.1944
     42 H           1.7338    6.1602    2.1029 H       1  LIG1        0.3456
@<TRIPOS>BOND
     1     1     5   ar
     2     1     7   ar
     3     2     6   ar
     4     2     8   ar
     5     3     4   ar
     6     3     9   ar
     7     4    10   ar
     8     5    11   ar
     9     6    12   ar
    10     7    13   ar
    11     8    14   ar
    12     9    15   ar
    13    10    16   ar
    14    11    17   ar
    15    12    18   ar
    16    13    17   ar
    17    13    21    1
    18    14    18   ar
    19    14    20    1
    20    15    16   ar
    21    15    22   ar
    22    16    23   ar
    23    17    25    1
    24    18    26    1
    25    19    21    1
    26    19    22   ar
    27    19    23   ar
    28    20    23    1
    29    21    24    1
    30     1    27    1
    31     2    28    1
    32     3    29    1
    33     4    30    1
    34     5    31    1
    35     6    32    1
    36     7    33    1
    37     8    34    1
    38     9    35    1
    39    10    36    1
    40    11    37    1
    41    12    38    1
    42    20    39    1
    43    20    40    1
    44    21    41    1
    45    24    42    1
