@<TRIPOS>MOLECULE
AK-968/40709537
 41 42 0 0 0
SMALL
USER_CHARGES

@<TRIPOS>ATOM
      1 C           0.3215    0.6388   -1.8672 C.ar    1  LIG1       -0.1075
      2 C          -0.2881    1.4284   -0.8922 C.ar    1  LIG1       -0.1066
      3 C           1.5397    1.0317   -2.4215 C.ar    1  LIG1       -0.1046
      4 C           3.3532    4.3291    4.2288 C.ar    1  LIG1       -0.0751
      5 C           0.3204    2.6108   -0.4715 C.ar    1  LIG1       -0.0992
      6 C           2.1483    2.2142   -2.0007 C.ar    1  LIG1       -0.0959
      7 C           2.9804    4.6084    5.5435 C.ar    1  LIG1       -0.0977
      8 C           1.0472    4.5211    3.5340 C.ar    1  LIG1       -0.0656
      9 C           2.3866    4.2855    3.2240 C.ar    1  LIG1        0.0202
     10 C           1.5387    3.0038   -1.0257 C.ar    1  LIG1       -0.0873
     11 C           1.6410    4.8442    5.8535 C.ar    1  LIG1       -0.1128
     12 C           0.6744    4.8005    4.8488 C.ar    1  LIG1       -0.1058
     13 C           2.7841    3.9891    1.8235 C.2     1  LIG1        0.1020
     14 C           1.2658    5.1421    7.2681 C.3     1  LIG1       -0.0396
     15 C          -0.7655    5.0514    5.1569 C.3     1  LIG1       -0.0408
     16 C           2.4034    6.7946   -0.9734 C.3     1  LIG1       -0.0636
     17 C           1.7517    5.4907   -1.4174 C.3     1  LIG1       -0.0430
     18 C           2.2003    4.2884   -0.5693 C.3     1  LIG1       -0.0141
     19 N           1.9602    4.5104    0.8392 N.am    1  LIG1       -0.3387
     20 O           3.7800    3.3012    1.6153 O.2     1  LIG1       -0.4784
     21 H          -0.1519   -0.2825   -2.1938 H       1  LIG1        0.1154
     22 H          -1.2362    1.1220   -0.4598 H       1  LIG1        0.1164
     23 H           2.0152    0.4168   -3.1799 H       1  LIG1        0.1178
     24 H           4.3998    4.1470    3.9985 H       1  LIG1        0.1236
     25 H          -0.1619    3.2197    0.2886 H       1  LIG1        0.1136
     26 H           3.0974    2.5125   -2.4382 H       1  LIG1        0.1210
     27 H           3.7415    4.6411    6.3186 H       1  LIG1        0.1211
     28 H           0.2922    4.4872    2.7518 H       1  LIG1        0.1434
     29 H           1.3065    6.2218    7.4525 H       1  LIG1        0.0595
     30 H           0.2525    4.7869    7.4927 H       1  LIG1        0.0585
     31 H           1.9427    4.6414    7.9715 H       1  LIG1        0.0547
     32 H          -1.2691    4.1112    5.4094 H       1  LIG1        0.0577
     33 H          -0.8753    5.7444    6.0000 H       1  LIG1        0.0544
     34 H          -1.2805    5.5053    4.3011 H       1  LIG1        0.0572
     35 H           3.4950    6.7169   -1.0018 H       1  LIG1        0.0330
     36 H           2.1051    7.6101   -1.6400 H       1  LIG1        0.0367
     37 H           2.1028    7.0655    0.0433 H       1  LIG1        0.0278
     38 H           0.6620    5.6116   -1.3744 H       1  LIG1        0.0583
     39 H           2.0101    5.3171   -2.4699 H       1  LIG1        0.0517
     40 H           3.2882    4.1832   -0.6644 H       1  LIG1        0.1340
     41 H           1.1178    5.0176    1.0888 H       1  LIG1        0.2985
@<TRIPOS>BOND
     1     1     2   ar
     2     1     3   ar
     3     2     5   ar
     4     3     6   ar
     5     4     7   ar
     6     4     9   ar
     7     5    10   ar
     8     6    10   ar
     9     7    11   ar
    10     8     9   ar
    11     8    12   ar
    12     9    13    1
    13    10    18    1
    14    11    12   ar
    15    11    14    1
    16    12    15    1
    17    13    19   am
    18    13    20    2
    19    16    17    1
    20    17    18    1
    21    18    19    1
    22     1    21    1
    23     2    22    1
    24     3    23    1
    25     4    24    1
    26     5    25    1
    27     6    26    1
    28     7    27    1
    29     8    28    1
    30    14    29    1
    31    14    30    1
    32    14    31    1
    33    15    32    1
    34    15    33    1
    35    15    34    1
    36    16    35    1
    37    16    36    1
    38    16    37    1
    39    17    38    1
    40    17    39    1
    41    18    40    1
    42    19    41    1
