@<TRIPOS>MOLECULE
AE-641/05583031
 36 39 0 0 0
SMALL
USER_CHARGES

@<TRIPOS>ATOM
      1 C           1.8877    3.6066    4.6350 C.ar    1  LIG1       -0.1089
      2 C           2.2399    2.3024    4.2879 C.ar    1  LIG1       -0.1056
      3 C           1.8937    4.6116    3.6677 C.ar    1  LIG1       -0.1070
      4 C           0.9323    0.2600   -1.5529 C.ar    1  LIG1       -0.1030
      5 C           3.1987    7.0945   -1.7474 C.ar    1  LIG1       -0.0948
      6 C          -0.1713    1.0464   -1.8810 C.ar    1  LIG1       -0.0962
      7 C           1.8198    7.2593   -1.7429 C.ar    1  LIG1       -0.0949
      8 C           2.5983    2.0032    2.9735 C.ar    1  LIG1       -0.0939
      9 C           2.2520    4.3124    2.3533 C.ar    1  LIG1       -0.0955
     10 C           1.9601    0.7849   -0.7666 C.ar    1  LIG1       -0.0890
     11 C           3.7633    5.9325   -1.2157 C.ar    1  LIG1       -0.0640
     12 C          -0.2477    2.3622   -1.4302 C.ar    1  LIG1       -0.0551
     13 C           1.0103    6.2577   -1.2170 C.ar    1  LIG1       -0.0514
     14 C           2.6044    3.0082    2.0061 C.ar    1  LIG1       -0.0757
     15 C           1.8962    2.1061   -0.3027 C.ar    1  LIG1       -0.0333
     16 C           2.9714    4.9037   -0.6689 C.ar    1  LIG1       -0.0361
     17 C           0.7915    2.8887   -0.6614 C.ar    1  LIG1        0.0217
     18 C           1.5777    5.0819   -0.7026 C.ar    1  LIG1        0.0407
     19 C           2.9976    2.6807    0.5643 C.3     1  LIG1       -0.0023
     20 N           3.6209    3.8012   -0.1357 N.pl3   1  LIG1       -0.4042
     21 O           0.6622    4.1781   -0.2042 O.3     1  LIG1       -0.3611
     22 H           1.6074    3.8392    5.6582 H       1  LIG1        0.1134
     23 H           2.2343    1.5196    5.0407 H       1  LIG1        0.1130
     24 H           1.6183    5.6269    3.9373 H       1  LIG1        0.1142
     25 H           0.9905   -0.7659   -1.9051 H       1  LIG1        0.1164
     26 H           3.8391    7.8700   -2.1570 H       1  LIG1        0.1215
     27 H          -0.9728    0.6325   -2.4859 H       1  LIG1        0.1263
     28 H           1.3760    8.1634   -2.1480 H       1  LIG1        0.1234
     29 H           2.8716    0.9843    2.7122 H       1  LIG1        0.1169
     30 H           2.2540    5.1019    1.6064 H       1  LIG1        0.1173
     31 H           2.8077    0.1525   -0.5147 H       1  LIG1        0.1230
     32 H           4.8484    5.8384   -1.2228 H       1  LIG1        0.1308
     33 H          -1.1112    2.9707   -1.6833 H       1  LIG1        0.1284
     34 H          -0.0690    6.3906   -1.2169 H       1  LIG1        0.1337
     35 H           3.7920    1.8998    0.6682 H       1  LIG1        0.1533
     36 H           4.6357    3.8074   -0.1641 H       1  LIG1        0.2779
@<TRIPOS>BOND
     1     1     2   ar
     2     1     3   ar
     3     2     8   ar
     4     3     9   ar
     5     4     6   ar
     6     4    10   ar
     7     5     7   ar
     8     5    11   ar
     9     6    12   ar
    10     7    13   ar
    11     8    14   ar
    12     9    14   ar
    13    10    15   ar
    14    11    16   ar
    15    12    17   ar
    16    13    18   ar
    17    14    19    1
    18    15    17   ar
    19    15    19    1
    20    16    18   ar
    21    16    20    1
    22    17    21    1
    23    18    21    1
    24    19    20    1
    25     1    22    1
    26     2    23    1
    27     3    24    1
    28     4    25    1
    29     5    26    1
    30     6    27    1
    31     7    28    1
    32     8    29    1
    33     9    30    1
    34    10    31    1
    35    11    32    1
    36    12    33    1
    37    13    34    1
    38    19    35    1
    39    20    36    1
