@<TRIPOS>MOLECULE
AK-778/15642233
 40 42 0 0 0
SMALL
USER_CHARGES

@<TRIPOS>ATOM
      1 C           1.2135    5.0268    6.3991 C.ar    1  LIG1       -0.1013
      2 C           0.5333    4.7933    5.2039 C.ar    1  LIG1       -0.0996
      3 C           2.5865    4.7935    6.4772 C.ar    1  LIG1       -0.0968
      4 C           1.1502    0.6375   -1.7655 C.ar    1  LIG1       -0.0935
      5 C           0.0601    1.3695   -2.2657 C.ar    1  LIG1       -0.0910
      6 C           1.2260    4.3266    4.0869 C.ar    1  LIG1       -0.0850
      7 C           3.2793    4.3267    5.3602 C.ar    1  LIG1       -0.0808
      8 C           2.0143    1.1987   -0.8223 C.ar    1  LIG1       -0.0775
      9 C          -0.1832    2.6746   -1.8321 C.ar    1  LIG1       -0.0624
     10 C           2.5990    4.0932    4.1650 C.ar    1  LIG1       -0.0149
     11 C           1.7662    2.4920   -0.3953 C.ar    1  LIG1       -0.0149
     12 C           0.6831    3.2147   -0.8973 C.ar    1  LIG1       -0.0280
     13 C           1.7218    4.6535    0.5917 C.2     1  LIG1        0.1551
     14 C           0.2553    7.4542   -2.0449 C.2     1  LIG1       -0.1277
     15 C           0.0307    6.1420   -1.9125 C.2     1  LIG1       -0.1128
     16 C           3.3307    3.6002    2.9852 C.2     1  LIG1        0.0860
     17 C           2.5207    3.3341    0.5954 C.3     1  LIG1        0.1297
     18 C          -0.3346    5.4857   -0.6216 C.3     1  LIG1        0.0045
     19 C           2.5743    2.7257    1.9892 C.3     1  LIG1        0.0876
     20 N           0.6607    4.4872   -0.3105 N.am    1  LIG1       -0.3065
     21 O           2.0012    5.6447    1.2507 O.2     1  LIG1       -0.4312
     22 O           4.5167    3.8711    2.7871 O.2     1  LIG1       -0.4465
     23 O           3.8223    3.5995    0.1098 O.3     1  LIG1       -0.4417
     24 H           0.6740    5.3901    7.2688 H       1  LIG1        0.1259
     25 H          -0.5359    4.9749    5.1433 H       1  LIG1        0.1197
     26 H           3.1162    4.9755    7.4077 H       1  LIG1        0.1205
     27 H           1.3216   -0.3762   -2.1177 H       1  LIG1        0.1206
     28 H          -0.5997    0.9137   -2.9993 H       1  LIG1        0.1333
     29 H           0.6861    4.1480    3.1605 H       1  LIG1        0.1308
     30 H           4.3491    4.1483    5.4325 H       1  LIG1        0.1379
     31 H           2.8554    0.6308   -0.4398 H       1  LIG1        0.1398
     32 H          -1.0261    3.2319   -2.2247 H       1  LIG1        0.1260
     33 H           0.5112    7.8722   -3.0124 H       1  LIG1        0.0834
     34 H           0.1895    8.1297   -1.1991 H       1  LIG1        0.0866
     35 H           0.1039    5.5107   -2.7945 H       1  LIG1        0.0960
     36 H          -1.3088    4.9964   -0.7175 H       1  LIG1        0.1300
     37 H          -0.3897    6.1986    0.2074 H       1  LIG1        0.1247
     38 H           3.0714    1.7520    1.9262 H       1  LIG1        0.1098
     39 H           1.5496    2.5865    2.3492 H       1  LIG1        0.1170
     40 H           4.2727    4.1440    0.7785 H       1  LIG1        0.3473
@<TRIPOS>BOND
     1     1     2   ar
     2     1     3   ar
     3     2     6   ar
     4     3     7   ar
     5     4     5   ar
     6     4     8   ar
     7     5     9   ar
     8     6    10   ar
     9     7    10   ar
    10     8    11   ar
    11     9    12   ar
    12    10    16    1
    13    11    12   ar
    14    11    17    1
    15    12    20    1
    16    13    17    1
    17    13    20   am
    18    13    21    2
    19    14    15    2
    20    15    18    1
    21    16    19    1
    22    16    22    2
    23    17    19    1
    24    17    23    1
    25    18    20    1
    26     1    24    1
    27     2    25    1
    28     3    26    1
    29     4    27    1
    30     5    28    1
    31     6    29    1
    32     7    30    1
    33     8    31    1
    34     9    32    1
    35    14    33    1
    36    14    34    1
    37    15    35    1
    38    18    36    1
    39    18    37    1
    40    19    38    1
    41    19    39    1
    42    23    40    1
