@<TRIPOS>MOLECULE
AG-670/34887035
 47 49 0 0 0
SMALL
USER_CHARGES

@<TRIPOS>ATOM
      1 C           2.5966    4.1885    2.6363 C.1     1  LIG1       -0.1924
      2 C           2.6259    4.0249    1.4462 C.1     1  LIG1       -0.1318
      3 C           0.0438    0.6931   -1.4194 C.ar    1  LIG1       -0.1049
      4 C           1.8300    7.5247   -2.0984 C.ar    1  LIG1       -0.1039
      5 C          -0.2893    1.4300   -0.2829 C.ar    1  LIG1       -0.0992
      6 C           1.2269    0.9663   -2.1059 C.ar    1  LIG1       -0.1035
      7 C           0.8795    6.9721   -1.2401 C.ar    1  LIG1       -0.1036
      8 C           3.0546    6.8842   -2.2879 C.ar    1  LIG1       -0.1012
      9 C           0.5608    2.4403    0.1670 C.ar    1  LIG1       -0.0800
     10 C           2.0769    1.9766   -1.6559 C.ar    1  LIG1       -0.0874
     11 C           1.1535    5.7792   -0.5711 C.ar    1  LIG1       -0.0930
     12 C           3.3286    5.6914   -1.6190 C.ar    1  LIG1       -0.0889
     13 C           1.7439    2.7136   -0.5195 C.ar    1  LIG1       -0.0404
     14 C           2.3781    5.1388   -0.7606 C.ar    1  LIG1       -0.0500
     15 C           1.6313    3.4991    6.2673 C.3     1  LIG1       -0.0668
     16 C           1.6245    3.3640    4.7477 C.3     1  LIG1       -0.0449
     17 C           3.0407    3.4160    6.8336 C.3     1  LIG1       -0.1022
     18 C           3.9683    4.2971    4.6758 C.3     1  LIG1       -0.0796
     19 C           2.5573    4.3892    4.0947 C.3     1  LIG1       -0.0261
     20 C           5.2819    4.5066    6.7861 C.3     1  LIG1       -0.0884
     21 C           2.6805    3.8263   -0.0246 C.3     1  LIG1        0.0764
     22 N           3.9074    4.4632    6.1768 N.4     1  LIG1        0.4087
     23 O           4.0387    3.4376   -0.2914 O.3     1  LIG1       -0.4348
     24 H          -0.6176   -0.0944   -1.7689 H       1  LIG1        0.1199
     25 H           1.6159    8.4528   -2.6203 H       1  LIG1        0.1211
     26 H          -1.2099    1.2168    0.2523 H       1  LIG1        0.1205
     27 H           1.4871    0.3920   -2.9901 H       1  LIG1        0.1173
     28 H          -0.0745    7.4701   -1.0932 H       1  LIG1        0.1181
     29 H           3.7944    7.3135   -2.9571 H       1  LIG1        0.1218
     30 H           0.2930    3.0095    1.0533 H       1  LIG1        0.1350
     31 H           2.9966    2.1825   -2.1972 H       1  LIG1        0.1164
     32 H           0.4070    5.3562    0.0960 H       1  LIG1        0.1152
     33 H           4.2855    5.1994   -1.7726 H       1  LIG1        0.1284
     34 H           1.1765    4.4567    6.5501 H       1  LIG1        0.0793
     35 H           1.0119    2.7103    6.7087 H       1  LIG1        0.0606
     36 H           1.9304    2.3450    4.4743 H       1  LIG1        0.0630
     37 H           0.6007    3.4907    4.3744 H       1  LIG1        0.0717
     38 H           3.0365    3.6195    7.9094 H       1  LIG1        0.0876
     39 H           3.4990    2.4386    6.6460 H       1  LIG1        0.0906
     40 H           4.4440    3.3303    4.4686 H       1  LIG1        0.0999
     41 H           4.6069    5.0980    4.2850 H       1  LIG1        0.0987
     42 H           2.1614    5.3943    4.2920 H       1  LIG1        0.1176
     43 H           5.7606    3.5435    6.5990 H       1  LIG1        0.0812
     44 H           5.8336    5.3186    6.3089 H       1  LIG1        0.0825
     45 H           5.1671    4.6861    7.8569 H       1  LIG1        0.0795
     46 H           3.4773    5.3791    6.3657 H       1  LIG1        0.1642
     47 H           4.1836    2.6244    0.2099 H       1  LIG1        0.3479
@<TRIPOS>BOND
     1     1     2    3
     2     1    19    1
     3     2    21    1
     4     3     5   ar
     5     3     6   ar
     6     4     7   ar
     7     4     8   ar
     8     5     9   ar
     9     6    10   ar
    10     7    11   ar
    11     8    12   ar
    12     9    13   ar
    13    10    13   ar
    14    11    14   ar
    15    12    14   ar
    16    13    21    1
    17    14    21    1
    18    15    16    1
    19    15    17    1
    20    16    19    1
    21    17    22    1
    22    18    19    1
    23    18    22    1
    24    20    22    1
    25    21    23    1
    26     3    24    1
    27     4    25    1
    28     5    26    1
    29     6    27    1
    30     7    28    1
    31     8    29    1
    32     9    30    1
    33    10    31    1
    34    11    32    1
    35    12    33    1
    36    15    34    1
    37    15    35    1
    38    16    36    1
    39    16    37    1
    40    17    38    1
    41    17    39    1
    42    18    40    1
    43    18    41    1
    44    19    42    1
    45    20    43    1
    46    20    44    1
    47    20    45    1
    48    22    46    1
    49    23    47    1
