@<TRIPOS>MOLECULE
AH-034/11365822
 44 47 0 0 0
SMALL
USER_CHARGES

@<TRIPOS>ATOM
      1 C           1.5396    4.6612    6.5918 C.ar    1  LIG1       -0.0989
      2 C           2.5036    3.7679    6.1248 C.ar    1  LIG1       -0.0972
      3 C           0.9364    5.5595    5.7115 C.ar    1  LIG1       -0.0936
      4 C           0.8568    6.8578   -1.4862 C.ar    1  LIG1       -0.0961
      5 C           1.9956    7.4364   -2.0468 C.ar    1  LIG1       -0.0932
      6 C           2.8647    3.7729    4.7775 C.ar    1  LIG1       -0.0747
      7 C           1.2973    5.5645    4.3642 C.ar    1  LIG1       -0.0686
      8 C           0.9578    5.6553   -0.7866 C.ar    1  LIG1       -0.0850
      9 C          -0.4821    1.5915   -1.5811 C.ar    1  LIG1       -0.0540
     10 C           3.2353    6.8123   -1.9078 C.ar    1  LIG1       -0.0705
     11 C           0.2872    0.8593   -2.4826 C.ar    1  LIG1       -0.0700
     12 C           2.2788    1.8534   -1.5641 C.ar    1  LIG1       -0.0565
     13 C           2.2615    4.6712    3.8971 C.ar    1  LIG1        0.0243
     14 C           2.1977    5.0313   -0.6476 C.ar    1  LIG1       -0.0435
     15 C           1.5219    2.6136   -0.6463 C.ar    1  LIG1       -0.0220
     16 C           0.1243    2.4355   -0.6358 C.ar    1  LIG1       -0.0294
     17 C           3.3364    5.6098   -1.2082 C.ar    1  LIG1       -0.0023
     18 C           1.6703    0.9777   -2.4632 C.ar    1  LIG1       -0.0316
     19 C          -0.4484    3.4968    1.5472 C.2     1  LIG1        0.1193
     20 C           2.6422    4.6765    2.4769 C.2     1  LIG1        0.1289
     21 C           0.8670    3.0364    2.1183 C.3     1  LIG1        0.1061
     22 C           2.2645    3.7112    0.1261 C.3     1  LIG1        0.0437
     23 N          -0.7470    3.0713    0.2720 N.am    1  LIG1       -0.2972
     24 N           1.9384    3.8523    1.5733 N.am    1  LIG1       -0.3008
     25 O          -1.2247    4.1813    2.2158 O.2     1  LIG1       -0.4727
     26 O           3.5732    5.4264    2.1814 O.2     1  LIG1       -0.4580
     27 CL          4.8870    4.8672   -1.0567 Cl      1  LIG1       -0.1308
     28 BR          2.7246   -0.0456   -3.6526 Br      1  LIG1       -0.1071
     29 H           1.2585    4.6573    7.6408 H       1  LIG1        0.1267
     30 H           2.9733    3.0687    6.8104 H       1  LIG1        0.1235
     31 H           0.1855    6.2549    6.0751 H       1  LIG1        0.1241
     32 H          -0.1084    7.3443   -1.5938 H       1  LIG1        0.1248
     33 H           1.9167    8.3732   -2.5904 H       1  LIG1        0.1310
     34 H           3.6171    3.0725    4.4242 H       1  LIG1        0.1245
     35 H           0.8208    6.2690    3.6873 H       1  LIG1        0.1368
     36 H           0.0644    5.2133   -0.3533 H       1  LIG1        0.1284
     37 H          -1.5585    1.4937   -1.6341 H       1  LIG1        0.1349
     38 H           4.1132    7.2768   -2.3495 H       1  LIG1        0.1344
     39 H          -0.2088    0.2039   -3.1946 H       1  LIG1        0.1489
     40 H           3.3613    1.9479   -1.5713 H       1  LIG1        0.1504
     41 H           0.8298    3.0839    3.1951 H       1  LIG1        0.1813
     42 H           1.0172    2.0072    1.8137 H       1  LIG1        0.1605
     43 H           3.3525    3.4627    0.0700 H       1  LIG1        0.1794
     44 H          -1.6463    3.2410   -0.0199 H       1  LIG1        0.3220
@<TRIPOS>BOND
     1     1     2   ar
     2     1     3   ar
     3     2     6   ar
     4     3     7   ar
     5     4     5   ar
     6     4     8   ar
     7     5    10   ar
     8     6    13   ar
     9     7    13   ar
    10     8    14   ar
    11     9    11   ar
    12     9    16   ar
    13    10    17   ar
    14    11    18   ar
    15    12    15   ar
    16    12    18   ar
    17    13    20    1
    18    14    17   ar
    19    14    22    1
    20    15    16   ar
    21    15    22    1
    22    16    23    1
    23    17    27    1
    24    18    28    1
    25    19    21    1
    26    19    23   am
    27    19    25    2
    28    20    24   am
    29    20    26    2
    30    21    24    1
    31    22    24    1
    32     1    29    1
    33     2    30    1
    34     3    31    1
    35     4    32    1
    36     5    33    1
    37     6    34    1
    38     7    35    1
    39     8    36    1
    40     9    37    1
    41    10    38    1
    42    11    39    1
    43    12    40    1
    44    21    41    1
    45    21    42    1
    46    22    43    1
    47    23    44    1
