@<TRIPOS>MOLECULE
AK-968/36803004
 35 37 0 0 0
SMALL
USER_CHARGES

@<TRIPOS>ATOM
      1 C           0.7745    1.7572    3.5222 C.1     1  LIG1       -0.1782
      2 C           1.5856    2.4294    2.9463 C.1     1  LIG1       -0.1728
      3 C           0.2351    0.5625   -1.7768 C.ar    1  LIG1       -0.1015
      4 C           2.3866    7.5443   -2.2017 C.ar    1  LIG1       -0.0827
      5 C           1.5535    0.8427   -2.1361 C.ar    1  LIG1       -0.0992
      6 C          -0.4191    1.3662   -0.8430 C.ar    1  LIG1       -0.0988
      7 C           1.1223    7.1006   -1.7809 C.ar    1  LIG1       -0.0823
      8 C           3.5321    6.8101   -1.8957 C.ar    1  LIG1       -0.0636
      9 C           2.2177    1.9264   -1.5616 C.ar    1  LIG1       -0.0862
     10 C           0.2451    2.4499   -0.2685 C.ar    1  LIG1       -0.0848
     11 C           0.9889    5.9155   -1.0504 C.ar    1  LIG1       -0.0669
     12 C           3.3663    5.6420   -1.1734 C.ar    1  LIG1        0.0492
     13 C           1.5634    2.7301   -0.6278 C.ar    1  LIG1       -0.0291
     14 C           2.1303    5.1864   -0.7559 C.ar    1  LIG1        0.0006
     15 C           4.3909    4.7148   -0.7260 C.2     1  LIG1        0.2092
     16 C           2.2878    3.9128   -0.0003 C.3     1  LIG1        0.1545
     17 C           3.4201    4.0553    3.2199 C.3     1  LIG1       -0.0163
     18 C           2.5796    3.2478    2.2416 C.3     1  LIG1        0.0625
     19 O           5.5877    4.8040   -0.9139 O.2     1  LIG1       -0.4080
     20 O           3.7340    3.7200   -0.0536 O.3     1  LIG1       -0.2793
     21 O           1.9099    4.1376    1.3576 O.3     1  LIG1       -0.3733
     22 H           0.0549    1.1610    4.0329 H       1  LIG1        0.2358
     23 H          -0.2824   -0.2806   -2.2252 H       1  LIG1        0.1236
     24 H           2.4710    8.4680   -2.7674 H       1  LIG1        0.1353
     25 H           2.0626    0.2177   -2.8639 H       1  LIG1        0.1219
     26 H          -1.4458    1.1490   -0.5639 H       1  LIG1        0.1222
     27 H           0.2396    7.6857   -2.0246 H       1  LIG1        0.1416
     28 H           4.5106    7.1504   -2.2147 H       1  LIG1        0.1497
     29 H           3.2448    2.1370   -1.8475 H       1  LIG1        0.1244
     30 H          -0.2725    3.0704    0.4581 H       1  LIG1        0.1304
     31 H           0.0098    5.5797   -0.7252 H       1  LIG1        0.1420
     32 H           2.7914    4.7094    3.8353 H       1  LIG1        0.0511
     33 H           4.1561    4.6767    2.6990 H       1  LIG1        0.0556
     34 H           3.9516    3.3905    3.9096 H       1  LIG1        0.0596
     35 H           3.2290    2.6034    1.6392 H       1  LIG1        0.1534
@<TRIPOS>BOND
     1     1     2    3
     2     2    18    1
     3     3     5   ar
     4     3     6   ar
     5     4     7   ar
     6     4     8   ar
     7     5     9   ar
     8     6    10   ar
     9     7    11   ar
    10     8    12   ar
    11     9    13   ar
    12    10    13   ar
    13    11    14   ar
    14    12    14   ar
    15    12    15    1
    16    13    16    1
    17    14    16    1
    18    15    19    2
    19    15    20    1
    20    16    20    1
    21    16    21    1
    22    17    18    1
    23    18    21    1
    24     1    22    1
    25     3    23    1
    26     4    24    1
    27     5    25    1
    28     6    26    1
    29     7    27    1
    30     8    28    1
    31     9    29    1
    32    10    30    1
    33    11    31    1
    34    17    32    1
    35    17    33    1
    36    17    34    1
    37    18    35    1
