@<TRIPOS>MOLECULE
AN-892/40779940
 48 52 0 0 0
SMALL
USER_CHARGES

@<TRIPOS>ATOM
      1 C           2.0131    7.3763   -2.9266 C.ar    1  LIG1       -0.1057
      2 C           3.2640    6.8413   -2.6192 C.ar    1  LIG1       -0.0984
      3 C           0.9058    7.0576   -2.1405 C.ar    1  LIG1       -0.0963
      4 C           3.1205    4.1927    4.7471 C.ar    1  LIG1       -0.0646
      5 C           0.7593    4.3989    4.2782 C.ar    1  LIG1       -0.0619
      6 C           0.6125    2.5270    0.1096 C.ar    1  LIG1       -0.0713
      7 C           3.4076    5.9873   -1.5257 C.ar    1  LIG1       -0.0613
      8 C           1.0494    6.2037   -1.0470 C.ar    1  LIG1       -0.0566
      9 C           2.8514    4.2234    6.1155 C.ar    1  LIG1       -0.0635
     10 C           0.4903    4.4295    5.6466 C.ar    1  LIG1       -0.0626
     11 C          -0.3566    1.7343   -0.5051 C.ar    1  LIG1       -0.0601
     12 C           1.2578    1.0494   -2.1669 C.ar    1  LIG1       -0.0386
     13 C           6.5048    3.4277    2.5964 C.ar    1  LIG1       -0.0501
     14 C           5.3647    3.9566    2.0388 C.ar    1  LIG1       -0.0492
     15 C           5.0121    1.9273    2.8226 C.ar    1  LIG1        0.0001
     16 C           2.0744    4.2805    3.8285 C.ar    1  LIG1       -0.0198
     17 C           1.9043    2.5810   -0.4139 C.ar    1  LIG1       -0.0370
     18 C           2.3003    5.6685   -0.7396 C.ar    1  LIG1       -0.0252
     19 C           1.5364    4.3419    6.5652 C.ar    1  LIG1       -0.0101
     20 C          -0.0340    0.9954   -1.6434 C.ar    1  LIG1        0.0005
     21 C           2.2270    1.8422   -1.5521 C.ar    1  LIG1        0.0074
     22 C           2.3545    4.2482    2.4019 C.2     1  LIG1        0.0513
     23 C           2.9131    3.4446    0.2727 C.3     1  LIG1        0.0586
     24 C           3.0400    3.0574    1.7635 C.3     1  LIG1        0.0803
     25 N           6.2787    2.1642    3.0824 N.ar    1  LIG1       -0.4018
     26 N           2.0595    5.2121    1.5844 N.2     1  LIG1       -0.3017
     27 N           4.4172    2.9837    2.1908 N.ar    1  LIG1       -0.3407
     28 N           2.4410    4.8301    0.3343 N.pl3   1  LIG1       -0.3085
     29 CL          1.2044    4.3782    8.2531 Cl      1  LIG1       -0.1369
     30 CL         -1.2295    0.0161   -2.4006 Cl      1  LIG1       -0.1256
     31 CL          3.8142    1.8851   -2.2294 Cl      1  LIG1       -0.1205
     32 H           1.9014    8.0412   -3.7784 H       1  LIG1        0.1103
     33 H           4.1259    7.0894   -3.2313 H       1  LIG1        0.1254
     34 H          -0.0683    7.4744   -2.3801 H       1  LIG1        0.1259
     35 H           4.1489    4.1008    4.4076 H       1  LIG1        0.1384
     36 H          -0.0635    4.4677    3.5714 H       1  LIG1        0.1476
     37 H           0.3501    3.1003    0.9951 H       1  LIG1        0.1453
     38 H           4.3867    5.5755   -1.2947 H       1  LIG1        0.1161
     39 H           0.1794    5.9625   -0.4414 H       1  LIG1        0.1292
     40 H           3.6761    4.1536    6.8201 H       1  LIG1        0.1385
     41 H          -0.5394    4.5225    5.9823 H       1  LIG1        0.1384
     42 H          -1.3590    1.7012   -0.0858 H       1  LIG1        0.1440
     43 H           1.5076    0.4731   -3.0554 H       1  LIG1        0.1514
     44 H           7.4769    3.8926    2.6728 H       1  LIG1        0.1818
     45 H           5.1542    4.9051    1.5649 H       1  LIG1        0.1774
     46 H           4.4769    1.0194    3.0652 H       1  LIG1        0.2554
     47 H           3.8671    3.3733   -0.2622 H       1  LIG1        0.1621
     48 H           2.5612    2.1135    2.0372 H       1  LIG1        0.1823
@<TRIPOS>BOND
     1     1     2   ar
     2     1     3   ar
     3     2     7   ar
     4     3     8   ar
     5     4     9   ar
     6     4    16   ar
     7     5    10   ar
     8     5    16   ar
     9     6    11   ar
    10     6    17   ar
    11     7    18   ar
    12     8    18   ar
    13     9    19   ar
    14    10    19   ar
    15    11    20   ar
    16    12    20   ar
    17    12    21   ar
    18    13    14   ar
    19    13    25   ar
    20    14    27   ar
    21    15    25   ar
    22    15    27   ar
    23    16    22    1
    24    17    21   ar
    25    17    23    1
    26    18    28    1
    27    19    29    1
    28    20    30    1
    29    21    31    1
    30    22    24    1
    31    22    26    2
    32    23    24    1
    33    23    28    1
    34    24    27    1
    35    26    28    1
    36     1    32    1
    37     2    33    1
    38     3    34    1
    39     4    35    1
    40     5    36    1
    41     6    37    1
    42     7    38    1
    43     8    39    1
    44     9    40    1
    45    10    41    1
    46    11    42    1
    47    12    43    1
    48    13    44    1
    49    14    45    1
    50    15    46    1
    51    23    47    1
    52    24    48    1
