@<TRIPOS>MOLECULE
AG-690/36759049
 43 46 0 0 0
SMALL
USER_CHARGES

@<TRIPOS>ATOM
      1 C           2.9914    4.1239    4.7590 C.ar    1  LIG1       -0.0597
      2 C           0.6566    4.7399    4.8358 C.ar    1  LIG1       -0.0644
      3 C           2.1942    1.8116   -0.9374 C.ar    1  LIG1       -0.0640
      4 C          -0.1408    2.4269   -0.8601 C.ar    1  LIG1       -0.0664
      5 C           0.8842    6.3500   -1.1359 C.ar    1  LIG1       -0.0663
      6 C           3.2191    5.7339   -1.2130 C.ar    1  LIG1       -0.0720
      7 C           3.0735    4.2619    6.1446 C.ar    1  LIG1       -0.0820
      8 C           0.7386    4.8778    6.2214 C.ar    1  LIG1       -0.0800
      9 C           1.9256    0.9227   -1.9781 C.ar    1  LIG1       -0.0748
     10 C          -0.4095    1.5380   -1.9009 C.ar    1  LIG1       -0.0759
     11 C           1.0604    7.1584   -2.2589 C.ar    1  LIG1       -0.0719
     12 C           3.3953    6.5423   -2.3361 C.ar    1  LIG1       -0.0760
     13 C           1.1610    2.5638   -0.3783 C.ar    1  LIG1       -0.0321
     14 C           1.9636    5.6377   -0.6130 C.ar    1  LIG1       -0.0447
     15 C           1.7831    4.3630    4.1046 C.ar    1  LIG1       -0.0091
     16 C           1.9470    4.6388    6.8758 C.ar    1  LIG1       -0.0698
     17 C           0.6238    0.7859   -2.4598 C.ar    1  LIG1       -0.0415
     18 C           2.3159    7.2545   -2.8589 C.ar    1  LIG1       -0.0379
     19 C           1.4373    3.4785    0.6936 C.ar    1  LIG1        0.0039
     20 C           1.7812    4.8017    0.5472 C.ar    1  LIG1       -0.0142
     21 C           1.6980    4.2207    2.6714 C.ar    1  LIG1        0.0189
     22 C           0.8027    6.0930    8.8978 C.3     1  LIG1       -0.0126
     23 N           1.3869    3.1232    2.0183 N.ar    1  LIG1       -0.3587
     24 N           1.9447    5.2639    1.8227 N.ar    1  LIG1       -0.3236
     25 S           2.0518    4.8129    8.6462 S.3     1  LIG1       -0.2143
     26 BR          0.2596   -0.4195   -3.8690 Br      1  LIG1       -0.1139
     27 BR          2.5543    8.3469   -4.3826 Br      1  LIG1       -0.1081
     28 H           3.8782    3.8290    4.2030 H       1  LIG1        0.1510
     29 H          -0.2926    4.9288    4.3399 H       1  LIG1        0.1298
     30 H           3.2143    1.9067   -0.5731 H       1  LIG1        0.1402
     31 H          -0.9575    3.0052   -0.4339 H       1  LIG1        0.1337
     32 H          -0.1008    6.2857   -0.6796 H       1  LIG1        0.1410
     33 H           4.0702    5.1846   -0.8174 H       1  LIG1        0.1316
     34 H           4.0242    4.0713    6.6371 H       1  LIG1        0.1231
     35 H          -0.1497    5.1731    6.7745 H       1  LIG1        0.1335
     36 H           2.7419    0.3434   -2.4014 H       1  LIG1        0.1354
     37 H          -1.4298    1.4419   -2.2636 H       1  LIG1        0.1351
     38 H           0.2091    7.7067   -2.6543 H       1  LIG1        0.1401
     39 H           4.3799    6.6054   -2.7923 H       1  LIG1        0.1375
     40 H           0.7271    6.3350    9.9608 H       1  LIG1        0.0693
     41 H          -0.1684    5.7388    8.5431 H       1  LIG1        0.0693
     42 H           1.0782    6.9943    8.3448 H       1  LIG1        0.0875
     43 H           2.2015    6.2055    2.0902 H       1  LIG1        0.3529
@<TRIPOS>BOND
     1     1     7   ar
     2     1    15   ar
     3     2     8   ar
     4     2    15   ar
     5     3     9   ar
     6     3    13   ar
     7     4    10   ar
     8     4    13   ar
     9     5    11   ar
    10     5    14   ar
    11     6    12   ar
    12     6    14   ar
    13     7    16   ar
    14     8    16   ar
    15     9    17   ar
    16    10    17   ar
    17    11    18   ar
    18    12    18   ar
    19    13    19    1
    20    14    20    1
    21    15    21    1
    22    16    25    1
    23    17    26    1
    24    18    27    1
    25    19    20   ar
    26    19    23   ar
    27    20    24   ar
    28    21    23   ar
    29    21    24   ar
    30    22    25    1
    31     1    28    1
    32     2    29    1
    33     3    30    1
    34     4    31    1
    35     5    32    1
    36     6    33    1
    37     7    34    1
    38     8    35    1
    39     9    36    1
    40    10    37    1
    41    11    38    1
    42    12    39    1
    43    22    40    1
    44    22    41    1
    45    22    42    1
    46    24    43    1
