@<TRIPOS>MOLECULE
AG-205/36655021
 36 38 0 0 0
SMALL
USER_CHARGES

@<TRIPOS>ATOM
      1 C           0.5634    4.3392    5.3891 C.ar    1  LIG1       -0.0839
      2 C           1.5878    7.2999   -2.0030 C.ar    1  LIG1       -0.0655
      3 C           0.8092    4.6849    4.0604 C.ar    1  LIG1       -0.0571
      4 C           1.4792    6.1438   -1.2381 C.ar    1  LIG1       -0.0767
      5 C           1.6294    4.1354    6.2655 C.ar    1  LIG1       -0.0752
      6 C           3.1869    4.6231    4.4841 C.ar    1  LIG1       -0.0423
      7 C           2.8489    7.6728   -2.4393 C.ar    1  LIG1       -0.0378
      8 C           3.8339    5.8640   -1.4213 C.ar    1  LIG1       -0.0226
      9 C           2.1210    4.8268    3.6079 C.ar    1  LIG1        0.0490
     10 C           2.6191    5.4064   -0.9372 C.ar    1  LIG1       -0.0167
     11 C           2.9412    4.2773    5.8129 C.ar    1  LIG1       -0.0286
     12 C           0.7263    2.7639    0.3787 C.2     1  LIG1        0.1447
     13 C           2.3798    5.1928    2.2016 C.2     1  LIG1        0.1739
     14 C           1.6399    3.0870   -0.7653 C.3     1  LIG1        0.0815
     15 C           2.5338    4.1377   -0.1038 C.3     1  LIG1        0.0862
     16 C          -0.3114    1.6993    0.2529 C.3     1  LIG1        0.4025
     17 N           3.9787    6.9823   -2.1673 N.ar    1  LIG1       -0.3957
     18 N           0.8791    3.4713    1.4522 N.2     1  LIG1       -0.2744
     19 N           1.9084    4.3379    1.2144 N.am    1  LIG1       -0.2181
     20 O           3.0010    6.2333    1.9927 O.2     1  LIG1       -0.4370
     21 O           3.8215    3.5649    0.1200 O.3     1  LIG1       -0.4369
     22 F          -0.2804    1.1300   -0.9714 F       1  LIG1       -0.1600
     23 F          -0.1215    0.7206    1.1640 F       1  LIG1       -0.1595
     24 F          -1.5526    2.1974    0.4410 F       1  LIG1       -0.1589
     25 BR          4.3851    4.0008    7.0004 Br      1  LIG1       -0.1056
     26 H          -0.4579    4.2288    5.7413 H       1  LIG1        0.1329
     27 H           0.7128    7.8902   -2.2500 H       1  LIG1        0.1294
     28 H          -0.0293    4.8411    3.3868 H       1  LIG1        0.1672
     29 H           0.5035    5.8252   -0.8812 H       1  LIG1        0.1338
     30 H           1.4204    3.8664    7.2977 H       1  LIG1        0.1459
     31 H           4.2082    4.7349    4.1261 H       1  LIG1        0.1588
     32 H           2.9865    8.5668   -3.0387 H       1  LIG1        0.2064
     33 H           4.7574    5.3303   -1.2190 H       1  LIG1        0.2137
     34 H           2.1797    2.1897   -1.0810 H       1  LIG1        0.1380
     35 H           1.0339    3.4734   -1.5912 H       1  LIG1        0.1327
     36 H           4.3482    4.2314    0.5912 H       1  LIG1        0.3563
@<TRIPOS>BOND
     1     1     3   ar
     2     1     5   ar
     3     2     4   ar
     4     2     7   ar
     5     3     9   ar
     6     4    10   ar
     7     5    11   ar
     8     6     9   ar
     9     6    11   ar
    10     7    17   ar
    11     8    10   ar
    12     8    17   ar
    13     9    13    1
    14    10    15    1
    15    11    25    1
    16    12    14    1
    17    12    16    1
    18    12    18    2
    19    13    19   am
    20    13    20    2
    21    14    15    1
    22    15    19    1
    23    15    21    1
    24    16    22    1
    25    16    23    1
    26    16    24    1
    27    18    19    1
    28     1    26    1
    29     2    27    1
    30     3    28    1
    31     4    29    1
    32     5    30    1
    33     6    31    1
    34     7    32    1
    35     8    33    1
    36    14    34    1
    37    14    35    1
    38    21    36    1
