@<TRIPOS>MOLECULE
AQ-911/40696225
 32 34 0 0 0
SMALL
USER_CHARGES

@<TRIPOS>ATOM
      1 C           0.7118    0.5782   -0.5573 C.ar    1  LIG1       -0.0927
      2 C           0.1241    0.9050   -1.7932 C.ar    1  LIG1       -0.0906
      3 C           1.5045    1.5044    0.1278 C.ar    1  LIG1       -0.0777
      4 C           0.3191    2.1631   -2.3656 C.ar    1  LIG1       -0.0661
      5 C           0.9146    4.7207    4.1320 C.ar    1  LIG1       -0.0506
      6 C           2.9877    3.8616    4.9972 C.ar    1  LIG1       -0.0462
      7 C           0.5960    5.1035    5.4250 C.ar    1  LIG1       -0.0364
      8 C           2.5764    4.2829    6.2513 C.ar    1  LIG1       -0.0332
      9 C           2.1351    4.0885    3.9225 C.ar    1  LIG1       -0.0019
     10 C           1.6927    2.7495   -0.4440 C.ar    1  LIG1       -0.0199
     11 C           1.1052    3.0589   -1.6693 C.ar    1  LIG1       -0.0438
     12 C           2.2607    4.9645   -1.0830 C.2     1  LIG1        0.1406
     13 C           2.5235    3.6612    2.5672 C.2     1  LIG1        0.0961
     14 C           2.4805    3.9332    0.0449 C.3     1  LIG1        0.1264
     15 C           1.9976    4.4695    1.3844 C.3     1  LIG1        0.0896
     16 N           1.3983    4.9002    6.4938 N.ar    1  LIG1       -0.3976
     17 N           1.4387    4.3572   -2.0395 N.am    1  LIG1       -0.3027
     18 O           2.7380    6.0883   -1.1264 O.2     1  LIG1       -0.4371
     19 O           3.2486    2.6844    2.3689 O.2     1  LIG1       -0.4359
     20 O           3.8561    3.6101    0.0960 O.3     1  LIG1       -0.4415
     21 H           0.5471   -0.4079   -0.1309 H       1  LIG1        0.1222
     22 H          -0.4876    0.1685   -2.3073 H       1  LIG1        0.1348
     23 H           1.9559    1.2461    1.0793 H       1  LIG1        0.1406
     24 H          -0.1313    2.4174   -3.3182 H       1  LIG1        0.1282
     25 H           0.2264    4.9143    3.3159 H       1  LIG1        0.1386
     26 H           3.9470    3.3716    4.8680 H       1  LIG1        0.1456
     27 H          -0.3435    5.6008    5.6412 H       1  LIG1        0.2036
     28 H           3.2046    4.1293    7.1223 H       1  LIG1        0.2052
     29 H           0.9029    4.4422    1.3975 H       1  LIG1        0.1050
     30 H           2.3350    5.5062    1.4881 H       1  LIG1        0.1214
     31 H           1.1253    4.7941   -2.8981 H       1  LIG1        0.3284
     32 H           4.3253    4.4002    0.4157 H       1  LIG1        0.3477
@<TRIPOS>BOND
     1     1     2   ar
     2     1     3   ar
     3     2     4   ar
     4     3    10   ar
     5     4    11   ar
     6     5     7   ar
     7     5     9   ar
     8     6     8   ar
     9     6     9   ar
    10     7    16   ar
    11     8    16   ar
    12     9    13    1
    13    10    11   ar
    14    10    14    1
    15    11    17    1
    16    12    14    1
    17    12    17   am
    18    12    18    2
    19    13    15    1
    20    13    19    2
    21    14    15    1
    22    14    20    1
    23     1    21    1
    24     2    22    1
    25     3    23    1
    26     4    24    1
    27     5    25    1
    28     6    26    1
    29     7    27    1
    30     8    28    1
    31    15    29    1
    32    15    30    1
    33    17    31    1
    34    20    32    1
