@<TRIPOS>MOLECULE
ZINC00645859
 57 60 0 0 0
SMALL
USER_CHARGES

@<TRIPOS>ATOM
      1 C           2.0001    7.6209   -2.3967 C.ar    1  LIG1       -0.1069
      2 C           0.2027    0.6966   -1.5344 C.ar    1  LIG1       -0.1092
      3 C           0.4908    4.7730    5.1946 C.ar    1  LIG1       -0.0972
      4 C           0.9224    6.7500   -2.2359 C.ar    1  LIG1       -0.1035
      5 C           3.2251    7.3333   -1.7947 C.ar    1  LIG1       -0.1054
      6 C           1.4710    0.9680   -2.0476 C.ar    1  LIG1       -0.1067
      7 C          -0.3354    1.5110   -0.5379 C.ar    1  LIG1       -0.1049
      8 C           1.3539    4.7242    6.2893 C.ar    1  LIG1       -0.0995
      9 C           0.9539    4.4258    3.9254 C.ar    1  LIG1       -0.0638
     10 C           1.0698    5.5916   -1.4731 C.ar    1  LIG1       -0.0917
     11 C           3.3724    6.1749   -1.0318 C.ar    1  LIG1       -0.0949
     12 C           2.2012    2.0538   -1.5644 C.ar    1  LIG1       -0.0945
     13 C           0.3947    2.5968   -0.0547 C.ar    1  LIG1       -0.0921
     14 C           2.6799    4.3282    6.1149 C.ar    1  LIG1       -0.0592
     15 C           2.2799    4.0298    3.7510 C.ar    1  LIG1        0.0668
     16 C           2.2948    5.3040   -0.8710 C.ar    1  LIG1       -0.0733
     17 C           1.6630    2.8682   -0.5680 C.ar    1  LIG1       -0.0722
     18 C           3.1430    3.9810    4.8457 C.ar    1  LIG1        0.0375
     19 C           2.7427    3.6716    2.4175 C.2     1  LIG1        0.1188
     20 C           6.7387    4.2344    4.9077 C.2     1  LIG1        0.1315
     21 C           9.8151    5.7888    6.1885 C.3     1  LIG1       -0.0419
     22 C           9.1130    5.4223    7.4900 C.3     1  LIG1       -0.0407
     23 C           9.1194    4.9016    5.1678 C.3     1  LIG1       -0.0289
     24 C           7.6676    5.2267    7.0546 C.3     1  LIG1       -0.0261
     25 C           5.3963    4.1449    5.5882 C.3     1  LIG1        0.1466
     26 C           2.4552    4.0470   -0.0428 C.3     1  LIG1        0.0141
     27 N           7.7634    4.7555    5.6764 N.am    1  LIG1       -0.3621
     28 N           2.1236    4.3117    1.3388 N.am    1  LIG1       -0.3290
     29 O           3.6339    2.8181    2.2689 O.2     1  LIG1       -0.4592
     30 O           6.8752    3.8530    3.7441 O.2     1  LIG1       -0.4586
     31 O           4.4524    3.5915    4.6946 O.3     1  LIG1       -0.3588
     32 H           1.8856    8.5222   -2.9919 H       1  LIG1        0.1156
     33 H          -0.3662   -0.1482   -1.9116 H       1  LIG1        0.1127
     34 H          -0.5419    5.0814    5.3309 H       1  LIG1        0.1156
     35 H          -0.0311    6.9732   -2.7055 H       1  LIG1        0.1181
     36 H           4.0646    8.0106   -1.9206 H       1  LIG1        0.1167
     37 H           1.8897    0.3346   -2.8242 H       1  LIG1        0.1126
     38 H          -1.3233    1.3005   -0.1389 H       1  LIG1        0.1153
     39 H           0.9929    4.9951    7.2771 H       1  LIG1        0.1340
     40 H           0.2722    4.4671    3.0797 H       1  LIG1        0.1385
     41 H           0.2246    4.9189   -1.3530 H       1  LIG1        0.1222
     42 H           4.3306    5.9590   -0.5665 H       1  LIG1        0.1144
     43 H           3.1886    2.2576   -1.9701 H       1  LIG1        0.1144
     44 H          -0.0325    3.2258    0.7217 H       1  LIG1        0.1207
     45 H           3.3470    4.2922    6.9719 H       1  LIG1        0.1146
     46 H           9.6327    6.8447    5.9546 H       1  LIG1        0.0640
     47 H          10.8956    5.6258    6.2232 H       1  LIG1        0.0598
     48 H           9.5195    4.4803    7.8777 H       1  LIG1        0.0589
     49 H           9.2196    6.1868    8.2645 H       1  LIG1        0.0657
     50 H           9.1144    5.3272    4.1598 H       1  LIG1        0.0931
     51 H           9.5695    3.9036    5.1281 H       1  LIG1        0.0932
     52 H           7.1321    4.5082    7.6810 H       1  LIG1        0.0967
     53 H           7.1202    6.1755    7.0469 H       1  LIG1        0.1038
     54 H           5.0736    5.1364    5.8926 H       1  LIG1        0.1558
     55 H           5.4832    3.5030    6.4600 H       1  LIG1        0.1559
     56 H           3.5154    3.7625   -0.0207 H       1  LIG1        0.1556
     57 H           1.3579    4.9539    1.5148 H       1  LIG1        0.2974
@<TRIPOS>BOND
     1     1     4   ar
     2     1     5   ar
     3     2     6   ar
     4     2     7   ar
     5     3     8   ar
     6     3     9   ar
     7     4    10   ar
     8     5    11   ar
     9     6    12   ar
    10     7    13   ar
    11     8    14   ar
    12     9    15   ar
    13    10    16   ar
    14    11    16   ar
    15    12    17   ar
    16    13    17   ar
    17    14    18   ar
    18    15    18   ar
    19    15    19    1
    20    16    26    1
    21    17    26    1
    22    18    31    1
    23    19    28   am
    24    19    29    2
    25    20    25    1
    26    20    27   am
    27    20    30    2
    28    21    22    1
    29    21    23    1
    30    22    24    1
    31    23    27    1
    32    24    27    1
    33    25    31    1
    34    26    28    1
    35     1    32    1
    36     2    33    1
    37     3    34    1
    38     4    35    1
    39     5    36    1
    40     6    37    1
    41     7    38    1
    42     8    39    1
    43     9    40    1
    44    10    41    1
    45    11    42    1
    46    12    43    1
    47    13    44    1
    48    14    45    1
    49    21    46    1
    50    21    47    1
    51    22    48    1
    52    22    49    1
    53    23    50    1
    54    23    51    1
    55    24    52    1
    56    24    53    1
    57    25    54    1
    58    25    55    1
    59    26    56    1
    60    28    57    1
