@<TRIPOS>MOLECULE
AE-848/34539045
 57 61 0 0 0
SMALL
USER_CHARGES

@<TRIPOS>ATOM
      1 C           1.6925    4.9405    6.5213 C.ar    1  LIG1       -0.1035
      2 C           1.6608    7.4302   -2.1230 C.ar    1  LIG1       -0.1058
      3 C           2.8789    4.3333    6.1101 C.ar    1  LIG1       -0.0986
      4 C           0.7046    5.2464    5.5853 C.ar    1  LIG1       -0.0974
      5 C           0.7667    6.6530   -1.3867 C.ar    1  LIG1       -0.1031
      6 C           3.0255    7.1439   -2.0893 C.ar    1  LIG1       -0.1045
      7 C          -1.9888   -3.2170   -6.8248 C.ar    1  LIG1       -0.1071
      8 C          -2.6269   -2.8496   -5.6401 C.ar    1  LIG1       -0.1053
      9 C           3.0776    4.0322    4.7626 C.ar    1  LIG1       -0.0780
     10 C           0.9033    4.9452    4.2379 C.ar    1  LIG1       -0.0757
     11 C          -0.4524    1.2080   -1.3503 C.ar    1  LIG1       -0.0677
     12 C           1.6106    1.2335   -2.6075 C.ar    1  LIG1       -0.0706
     13 C           1.2374    5.5895   -0.6166 C.ar    1  LIG1       -0.0960
     14 C           3.4962    6.0805   -1.3191 C.ar    1  LIG1       -0.0973
     15 C          -0.6427   -2.9058   -7.0174 C.ar    1  LIG1       -0.0975
     16 C          -1.9191   -2.1711   -4.6481 C.ar    1  LIG1       -0.0805
     17 C           0.1386    1.9980   -0.3645 C.ar    1  LIG1       -0.0473
     18 C           2.2016    2.0237   -1.6216 C.ar    1  LIG1       -0.0464
     19 C           2.0898    4.3381    3.8265 C.ar    1  LIG1       -0.0364
     20 C           0.2837    0.8256   -2.4718 C.ar    1  LIG1       -0.0349
     21 C           2.6022    5.3033   -0.5827 C.ar    1  LIG1       -0.0814
     22 C           0.0650   -2.2271   -6.0254 C.ar    1  LIG1       -0.0832
     23 C          -0.5731   -1.8598   -4.8407 C.ar    1  LIG1       -0.0516
     24 C           1.4656    2.4061   -0.5001 C.ar    1  LIG1       -0.0194
     25 C           2.2970    4.0242    2.4218 C.2     1  LIG1        0.0094
     26 C          -0.3325    0.0018   -3.4997 C.2     1  LIG1       -0.0189
     27 C           3.4495    4.6219    1.6625 C.3     1  LIG1        0.0307
     28 C           3.1071    4.1645    0.2422 C.3     1  LIG1        0.0226
     29 C           1.5051   -1.9034   -6.2553 C.3     1  LIG1       -0.0351
     30 N           1.5519    3.2143    1.7381 N.2     1  LIG1       -0.3217
     31 N           0.1240   -1.1750   -3.8308 N.2     1  LIG1       -0.3923
     32 N           2.0461    3.1821    0.4682 N.pl3   1  LIG1       -0.3193
     33 H           1.5378    5.1750    7.5704 H       1  LIG1        0.1200
     34 H           1.2939    8.2574   -2.7237 H       1  LIG1        0.1170
     35 H           3.6481    4.0954    6.8391 H       1  LIG1        0.1200
     36 H          -0.2193    5.7189    5.9056 H       1  LIG1        0.1196
     37 H          -0.2961    6.8751   -1.4137 H       1  LIG1        0.1161
     38 H           3.7218    7.7482   -2.6633 H       1  LIG1        0.1176
     39 H          -2.5399   -3.7449   -7.5976 H       1  LIG1        0.1136
     40 H          -3.6754   -3.0909   -5.4908 H       1  LIG1        0.1161
     41 H           4.0060    3.5590    4.4531 H       1  LIG1        0.1291
     42 H           0.1267    5.1883    3.5172 H       1  LIG1        0.1340
     43 H          -1.4870    0.8958   -1.2345 H       1  LIG1        0.1487
     44 H           2.1934    0.9414   -3.4774 H       1  LIG1        0.1394
     45 H           0.5335    4.9895   -0.0459 H       1  LIG1        0.1168
     46 H           4.5612    5.8649   -1.2988 H       1  LIG1        0.1197
     47 H          -0.1546   -3.1970   -7.9437 H       1  LIG1        0.1209
     48 H          -2.4257   -1.8891   -3.7285 H       1  LIG1        0.1151
     49 H          -0.4440    2.2903    0.5055 H       1  LIG1        0.1209
     50 H           3.2364    2.3360   -1.7373 H       1  LIG1        0.1296
     51 H          -1.2319    0.4103   -4.0169 H       1  LIG1        0.1908
     52 H           3.5071    5.7058    1.7952 H       1  LIG1        0.1001
     53 H           4.3746    4.1541    2.0162 H       1  LIG1        0.1003
     54 H           3.9763    3.7175   -0.2515 H       1  LIG1        0.1372
     55 H           1.6018   -0.9232   -6.7359 H       1  LIG1        0.0547
     56 H           2.0630   -1.8866   -5.3110 H       1  LIG1        0.0539
     57 H           1.9827   -2.6556   -6.8952 H       1  LIG1        0.0622
@<TRIPOS>BOND
     1     1     3   ar
     2     1     4   ar
     3     2     5   ar
     4     2     6   ar
     5     3     9   ar
     6     4    10   ar
     7     5    13   ar
     8     6    14   ar
     9     7     8   ar
    10     7    15   ar
    11     8    16   ar
    12     9    19   ar
    13    10    19   ar
    14    11    17   ar
    15    11    20   ar
    16    12    18   ar
    17    12    20   ar
    18    13    21   ar
    19    14    21   ar
    20    15    22   ar
    21    16    23   ar
    22    17    24   ar
    23    18    24   ar
    24    19    25    1
    25    20    26    1
    26    21    28    1
    27    22    23   ar
    28    22    29    1
    29    23    31    1
    30    24    32    1
    31    25    27    1
    32    25    30    2
    33    26    31    2
    34    27    28    1
    35    28    32    1
    36    30    32    1
    37     1    33    1
    38     2    34    1
    39     3    35    1
    40     4    36    1
    41     5    37    1
    42     6    38    1
    43     7    39    1
    44     8    40    1
    45     9    41    1
    46    10    42    1
    47    11    43    1
    48    12    44    1
    49    13    45    1
    50    14    46    1
    51    15    47    1
    52    16    48    1
    53    17    49    1
    54    18    50    1
    55    26    51    1
    56    27    52    1
    57    27    53    1
    58    28    54    1
    59    29    55    1
    60    29    56    1
    61    29    57    1
