@<TRIPOS>MOLECULE
AG-690/34035021
 31 33 0 0 0
SMALL
USER_CHARGES

@<TRIPOS>ATOM
      1 C           0.5675    0.8702   -2.5475 C.ar    1  LIG1       -0.0939
      2 C           0.7742    5.2012    5.8196 C.ar    1  LIG1       -0.0881
      3 C           1.8834    1.3174   -2.4296 C.ar    1  LIG1       -0.0846
      4 C          -0.4039    1.3168   -1.6517 C.ar    1  LIG1       -0.0891
      5 C           1.8821    4.8258    6.5792 C.ar    1  LIG1       -0.0907
      6 C           0.7889    5.0342    4.4348 C.ar    1  LIG1       -0.0563
      7 C           2.2281    2.2112   -1.4157 C.ar    1  LIG1       -0.0509
      8 C          -0.0592    2.2107   -0.6378 C.ar    1  LIG1       -0.0584
      9 C           3.0049    4.2834    5.9541 C.ar    1  LIG1       -0.0624
     10 C           1.9117    4.4918    3.8097 C.ar    1  LIG1        0.0307
     11 C           1.2568    2.6579   -0.5198 C.ar    1  LIG1       -0.0030
     12 C           3.0198    4.1164    4.5694 C.ar    1  LIG1        0.0303
     13 C           1.8834    4.3364    2.3786 C.ar    1  LIG1        0.0871
     14 C           2.1241    4.7982    0.3573 C.ar    1  LIG1        0.0901
     15 C           2.4138    5.4265   -0.9461 C.3     1  LIG1        0.1730
     16 N           2.3156    5.3266    1.5437 N.ar    1  LIG1       -0.3125
     17 N           1.4366    3.2284    1.7835 N.ar    1  LIG1       -0.2730
     18 N           1.6014    3.5497    0.4913 N.ar    1  LIG1       -0.2508
     19 CL          4.4385    3.4385    3.8482 Cl      1  LIG1       -0.1050
     20 CL          3.1411    7.0520   -0.7626 Cl      1  LIG1       -0.1155
     21 CL          0.9564    5.5329   -1.9805 Cl      1  LIG1       -0.1120
     22 H           0.2983    0.1756   -3.3378 H       1  LIG1        0.1300
     23 H          -0.1002    5.6227    6.3065 H       1  LIG1        0.1281
     24 H           2.6396    0.9708   -3.1279 H       1  LIG1        0.1340
     25 H          -1.4286    0.9692   -1.7451 H       1  LIG1        0.1349
     26 H           1.8707    4.9570    7.6573 H       1  LIG1        0.1341
     27 H          -0.0850    5.3311    3.8593 H       1  LIG1        0.1454
     28 H           3.2573    2.5525   -1.3355 H       1  LIG1        0.1432
     29 H          -0.8264    2.5514    0.0532 H       1  LIG1        0.1300
     30 H           3.8595    3.9964    6.5616 H       1  LIG1        0.1364
     31 H           3.1463    4.8471   -1.5372 H       1  LIG1        0.2188
@<TRIPOS>BOND
     1     1     3   ar
     2     1     4   ar
     3     2     5   ar
     4     2     6   ar
     5     3     7   ar
     6     4     8   ar
     7     5     9   ar
     8     6    10   ar
     9     7    11   ar
    10     8    11   ar
    11     9    12   ar
    12    10    12   ar
    13    10    13    1
    14    11    18    1
    15    12    19    1
    16    13    16   ar
    17    13    17   ar
    18    14    15    1
    19    14    16   ar
    20    14    18   ar
    21    15    20    1
    22    15    21    1
    23    17    18   ar
    24     1    22    1
    25     2    23    1
    26     3    24    1
    27     4    25    1
    28     5    26    1
    29     6    27    1
    30     7    28    1
    31     8    29    1
    32     9    30    1
    33    15    31    1
