@<TRIPOS>MOLECULE
AN-655/15642266
 42 44 0 0 0
SMALL
USER_CHARGES

@<TRIPOS>ATOM
      1 C           0.9780    0.7085   -1.3369 C.ar    1  LIG1       -0.0934
      2 C          -0.1390    1.4726   -1.7148 C.ar    1  LIG1       -0.0910
      3 C           2.9389    3.9605    4.7347 C.ar    1  LIG1       -0.0723
      4 C           0.5455    4.1621    4.4743 C.ar    1  LIG1       -0.0679
      5 C           2.0162    1.2794   -0.5969 C.ar    1  LIG1       -0.0777
      6 C          -0.2358    2.8199   -1.3602 C.ar    1  LIG1       -0.0628
      7 C           2.8747    4.7130    5.9074 C.ar    1  LIG1       -0.0749
      8 C           0.4813    4.9147    5.6470 C.ar    1  LIG1       -0.0719
      9 C           1.7743    3.6851    4.0181 C.ar    1  LIG1       -0.0062
     10 C           1.9128    2.6149   -0.2471 C.ar    1  LIG1       -0.0156
     11 C           0.8020    3.3692   -0.6271 C.ar    1  LIG1       -0.0304
     12 C           1.6460    5.1901    6.3635 C.ar    1  LIG1       -0.0355
     13 C           2.1503    4.8425    0.5466 C.2     1  LIG1        0.1542
     14 C           1.8421    2.8903    2.7795 C.2     1  LIG1        0.0924
     15 C           2.8662    3.4763    0.5333 C.3     1  LIG1        0.1297
     16 C           1.5907    7.1447   -1.7132 C.3     1  LIG1       -0.0659
     17 C           3.1182    2.9720    1.9469 C.3     1  LIG1        0.0875
     18 C           0.2228    6.4781   -1.6808 C.3     1  LIG1       -0.0498
     19 C          -0.0314    5.7177   -0.3848 C.3     1  LIG1       -0.0096
     20 N           0.9463    4.6807   -0.1548 N.am    1  LIG1       -0.3130
     21 O           2.5887    5.8593    1.0649 O.2     1  LIG1       -0.4296
     22 O           0.9102    2.1750    2.4061 O.2     1  LIG1       -0.4384
     23 O           4.0812    3.6163   -0.1770 O.3     1  LIG1       -0.4410
     24 BR          1.5591    6.2097    7.9523 Br      1  LIG1       -0.1011
     25 H           1.0334   -0.3380   -1.6246 H       1  LIG1        0.1207
     26 H          -0.9354    1.0084   -2.2906 H       1  LIG1        0.1336
     27 H           3.9017    3.5936    4.3883 H       1  LIG1        0.1419
     28 H          -0.3682    3.9534    3.9237 H       1  LIG1        0.1494
     29 H           2.8773    0.6865   -0.3084 H       1  LIG1        0.1401
     30 H          -1.1010    3.4017   -1.6575 H       1  LIG1        0.1264
     31 H           3.7916    4.9187    6.4538 H       1  LIG1        0.1379
     32 H          -0.4841    5.2790    5.9888 H       1  LIG1        0.1388
     33 H           1.7008    7.8546   -0.8872 H       1  LIG1        0.0331
     34 H           2.3792    6.3910   -1.6189 H       1  LIG1        0.0335
     35 H           1.7509    7.6817   -2.6532 H       1  LIG1        0.0360
     36 H           3.8188    3.6533    2.4408 H       1  LIG1        0.1032
     37 H           3.5649    1.9740    1.8872 H       1  LIG1        0.1193
     38 H           0.1543    5.7778   -2.5213 H       1  LIG1        0.0483
     39 H          -0.5524    7.2394   -1.8288 H       1  LIG1        0.0481
     40 H           0.0219    6.4023    0.4677 H       1  LIG1        0.1121
     41 H          -1.0214    5.2509   -0.3854 H       1  LIG1        0.1145
     42 H           4.6654    4.1779    0.3614 H       1  LIG1        0.3476
@<TRIPOS>BOND
     1     1     2   ar
     2     1     5   ar
     3     2     6   ar
     4     3     7   ar
     5     3     9   ar
     6     4     8   ar
     7     4     9   ar
     8     5    10   ar
     9     6    11   ar
    10     7    12   ar
    11     8    12   ar
    12     9    14    1
    13    10    11   ar
    14    10    15    1
    15    11    20    1
    16    12    24    1
    17    13    15    1
    18    13    20   am
    19    13    21    2
    20    14    17    1
    21    14    22    2
    22    15    17    1
    23    15    23    1
    24    16    18    1
    25    18    19    1
    26    19    20    1
    27     1    25    1
    28     2    26    1
    29     3    27    1
    30     4    28    1
    31     5    29    1
    32     6    30    1
    33     7    31    1
    34     8    32    1
    35    16    33    1
    36    16    34    1
    37    16    35    1
    38    17    36    1
    39    17    37    1
    40    18    38    1
    41    18    39    1
    42    19    40    1
    43    19    41    1
    44    23    42    1
