@<TRIPOS>MOLECULE
AP-518/41793443
 39 41 0 0 0
SMALL
USER_CHARGES

@<TRIPOS>ATOM
      1 C           2.0196    7.6184   -2.2555 C.ar    1  LIG1       -0.1074
      2 C           2.9796    6.6751   -2.6217 C.ar    1  LIG1       -0.1038
      3 C           1.1827    7.3753   -1.1663 C.ar    1  LIG1       -0.1055
      4 C           0.7525    5.3141    5.2152 C.ar    1  LIG1       -0.0795
      5 C           1.2708    5.0980    3.9385 C.ar    1  LIG1       -0.0587
      6 C           3.1028    5.4885   -1.8986 C.ar    1  LIG1       -0.0925
      7 C           1.3058    6.1888   -0.4433 C.ar    1  LIG1       -0.0950
      8 C           2.2011    2.0245   -1.6291 C.ar    1  LIG1       -0.0823
      9 C           0.3417    2.5087   -0.1645 C.ar    1  LIG1       -0.0786
     10 C           1.3202    4.6727    6.3163 C.ar    1  LIG1       -0.0434
     11 C           1.4903    0.9580   -2.1791 C.ar    1  LIG1       -0.0795
     12 C          -0.3693    1.4422   -0.7146 C.ar    1  LIG1       -0.0774
     13 C           2.9245    3.5991    4.8635 C.ar    1  LIG1       -0.0193
     14 C           2.3568    4.2404    3.7626 C.ar    1  LIG1        0.0327
     15 C           2.2658    5.2455   -0.8095 C.ar    1  LIG1       -0.0730
     16 C           1.6269    2.7999   -0.6217 C.ar    1  LIG1       -0.0652
     17 C           2.4062    3.8152    6.1404 C.ar    1  LIG1        0.0686
     18 C           0.2051    0.6667   -1.7220 C.ar    1  LIG1       -0.0402
     19 C           2.8976    4.0144    2.4317 C.2     1  LIG1        0.1120
     20 C           2.3987    3.9579   -0.0245 C.3     1  LIG1        0.0173
     21 N           2.0185    4.1698    1.3536 N.am    1  LIG1       -0.3256
     22 O           4.0858    3.6784    2.2816 O.2     1  LIG1       -0.4707
     23 F           2.9514    3.1993    7.1974 F       1  LIG1       -0.2678
     24 BR         -0.7573   -0.7788   -2.4674 Br      1  LIG1       -0.1105
     25 H           1.9248    8.5428   -2.8177 H       1  LIG1        0.1152
     26 H           3.6321    6.8646   -3.4690 H       1  LIG1        0.1170
     27 H           0.4359    8.1101   -0.8804 H       1  LIG1        0.1147
     28 H          -0.0930    5.9816    5.3521 H       1  LIG1        0.1391
     29 H           0.8206    5.6024    3.0874 H       1  LIG1        0.1483
     30 H           3.8534    4.7592   -2.1911 H       1  LIG1        0.1216
     31 H           0.6493    6.0080    0.4037 H       1  LIG1        0.1145
     32 H           3.2019    2.2442   -1.9915 H       1  LIG1        0.1254
     33 H          -0.1134    3.1068    0.6206 H       1  LIG1        0.1347
     34 H           0.9166    4.8408    7.3105 H       1  LIG1        0.1402
     35 H           1.9528    0.3631   -2.9626 H       1  LIG1        0.1364
     36 H          -1.3697    1.2286   -0.3474 H       1  LIG1        0.1377
     37 H           3.7708    2.9284    4.7385 H       1  LIG1        0.1377
     38 H           3.4578    3.6726    0.0240 H       1  LIG1        0.1599
     39 H           1.0433    4.3835    1.5357 H       1  LIG1        0.3025
@<TRIPOS>BOND
     1     1     2   ar
     2     1     3   ar
     3     2     6   ar
     4     3     7   ar
     5     4     5   ar
     6     4    10   ar
     7     5    14   ar
     8     6    15   ar
     9     7    15   ar
    10     8    11   ar
    11     8    16   ar
    12     9    12   ar
    13     9    16   ar
    14    10    17   ar
    15    11    18   ar
    16    12    18   ar
    17    13    14   ar
    18    13    17   ar
    19    14    19    1
    20    15    20    1
    21    16    20    1
    22    17    23    1
    23    18    24    1
    24    19    21   am
    25    19    22    2
    26    20    21    1
    27     1    25    1
    28     2    26    1
    29     3    27    1
    30     4    28    1
    31     5    29    1
    32     6    30    1
    33     7    31    1
    34     8    32    1
    35     9    33    1
    36    10    34    1
    37    11    35    1
    38    12    36    1
    39    13    37    1
    40    20    38    1
    41    21    39    1
