@<TRIPOS>MOLECULE
AE-848/30539025
 45 47 0 0 0
SMALL
USER_CHARGES

@<TRIPOS>ATOM
      1 C           2.6702    2.4677   -0.6353 C.ar    1  LIG1       -0.0478
      2 C           0.4855    3.0935    0.1846 C.ar    1  LIG1       -0.0438
      3 C           0.8717    6.9473   -1.9612 C.ar    1  LIG1       -0.1014
      4 C           3.0805    6.3328   -2.7230 C.ar    1  LIG1       -0.0987
      5 C           2.7509    4.1339    6.0837 C.ar    1  LIG1       -0.0996
      6 C           0.6584    4.9102    5.1586 C.ar    1  LIG1       -0.0937
      7 C           1.1750    6.4612   -0.6895 C.ar    1  LIG1       -0.0762
      8 C           3.3839    5.8468   -1.4513 C.ar    1  LIG1       -0.0721
      9 C           3.1810    3.7719    4.8072 C.ar    1  LIG1       -0.0723
     10 C           1.0885    4.5483    3.8820 C.ar    1  LIG1       -0.0626
     11 C           2.0791    1.5754   -1.5297 C.ar    1  LIG1       -0.0375
     12 C          -0.1057    2.2013   -0.7099 C.ar    1  LIG1       -0.0347
     13 C           1.8734    3.2268    0.2219 C.ar    1  LIG1        0.0124
     14 C           1.8244    6.8831   -2.9780 C.ar    1  LIG1       -0.1180
     15 C           1.4896    4.7030    6.2594 C.ar    1  LIG1       -0.1172
     16 C           2.4312    5.9110   -0.4345 C.ar    1  LIG1       -0.0483
     17 C           2.3498    3.9790    3.7063 C.ar    1  LIG1       -0.0516
     18 C           0.6910    1.4422   -1.5670 C.ar    1  LIG1        0.0718
     19 C           2.4899    4.1573    1.1540 C.2     1  LIG1        0.0346
     20 C           1.5000    7.4017   -4.3381 C.3     1  LIG1       -0.0456
     21 C           1.0288    5.0900    7.6240 C.3     1  LIG1       -0.0456
     22 N           2.7370    5.4228    0.8470 N.2     1  LIG1       -0.3682
     23 N           2.7855    3.6144    2.4135 N.pl3   1  LIG1       -0.3223
     24 N           0.0894    0.5336   -2.4770 N.pl3   1  LIG1       -0.0450
     25 O           0.8243   -0.1401   -3.2390 O.2     1  LIG1       -0.1521
     26 O          -1.1610    0.4287   -2.4945 O.2     1  LIG1       -0.2434
     27 H           3.7528    2.5638   -0.6148 H       1  LIG1        0.1517
     28 H          -0.1448    3.6805    0.8477 H       1  LIG1        0.1579
     29 H          -0.1096    7.3740   -2.1513 H       1  LIG1        0.1191
     30 H           3.8284    6.2776   -3.5095 H       1  LIG1        0.1224
     31 H           3.4046    3.9679    6.9357 H       1  LIG1        0.1209
     32 H          -0.3264    5.3514    5.2861 H       1  LIG1        0.1212
     33 H           0.4260    6.5147    0.0966 H       1  LIG1        0.1136
     34 H           4.3652    5.4197   -1.2619 H       1  LIG1        0.1236
     35 H           4.1651    3.3277    4.6815 H       1  LIG1        0.1213
     36 H           0.4322    4.7135    3.0315 H       1  LIG1        0.1399
     37 H           2.7117    0.9895   -2.1920 H       1  LIG1        0.1675
     38 H          -1.1889    2.1075   -0.7288 H       1  LIG1        0.1683
     39 H           1.7679    8.4625   -4.4163 H       1  LIG1        0.0552
     40 H           2.0420    6.8479   -5.1156 H       1  LIG1        0.0528
     41 H           0.4300    7.2957   -4.5603 H       1  LIG1        0.0519
     42 H           1.3153    6.1256    7.8446 H       1  LIG1        0.0550
     43 H          -0.0617    5.0037    7.7157 H       1  LIG1        0.0522
     44 H           1.4646    4.4374    8.3918 H       1  LIG1        0.0522
     45 H           3.4274    2.8247    2.4179 H       1  LIG1        0.3317
@<TRIPOS>BOND
     1     1    11   ar
     2     1    13   ar
     3     2    12   ar
     4     2    13   ar
     5     3     7   ar
     6     3    14   ar
     7     4     8   ar
     8     4    14   ar
     9     5     9   ar
    10     5    15   ar
    11     6    10   ar
    12     6    15   ar
    13     7    16   ar
    14     8    16   ar
    15     9    17   ar
    16    10    17   ar
    17    11    18   ar
    18    12    18   ar
    19    13    19    1
    20    14    20    1
    21    15    21    1
    22    16    22    1
    23    17    23    1
    24    18    24    1
    25    19    22    2
    26    19    23    1
    27    24    25    1
    28    24    26    2
    29     1    27    1
    30     2    28    1
    31     3    29    1
    32     4    30    1
    33     5    31    1
    34     6    32    1
    35     7    33    1
    36     8    34    1
    37     9    35    1
    38    10    36    1
    39    11    37    1
    40    12    38    1
    41    20    39    1
    42    20    40    1
    43    20    41    1
    44    21    42    1
    45    21    43    1
    46    21    44    1
    47    23    45    1
