@<TRIPOS>MOLECULE
AG-205/37007183
 40 42 0 0 0
SMALL
USER_CHARGES

@<TRIPOS>ATOM
      1 C           0.9580    7.0493   -1.4242 C.ar    1  LIG1       -0.0971
      2 C           2.6273    4.2334    6.0634 C.ar    1  LIG1       -0.0628
      3 C           3.1288    4.3236    4.7698 C.ar    1  LIG1       -0.0532
      4 C           1.1420    5.8335   -0.7657 C.ar    1  LIG1       -0.0852
      5 C           2.0304    7.6594   -2.0748 C.ar    1  LIG1       -0.0681
      6 C           3.4709    5.8379   -1.4084 C.ar    1  LIG1       -0.0457
      7 C           1.2803    4.4944    6.2566 C.ar    1  LIG1       -0.0369
      8 C           0.9485    4.9087    4.0213 C.ar    1  LIG1       -0.0014
      9 C           2.2800    4.6674    3.7235 C.ar    1  LIG1        0.0715
     10 C           2.3985    5.2278   -0.7578 C.ar    1  LIG1       -0.0406
     11 C           3.2869    7.0537   -2.0670 C.ar    1  LIG1       -0.0108
     12 C           1.0609    2.3027    0.6391 C.2     1  LIG1        0.1444
     13 C           2.7841    4.7711    2.3402 C.2     1  LIG1        0.1750
     14 C           1.7033    2.8059   -0.6186 C.3     1  LIG1        0.0826
     15 C           2.5989    3.9029   -0.0396 C.3     1  LIG1        0.0861
     16 C           5.5899    6.9749   -2.6549 C.3     1  LIG1        0.0240
     17 C           0.1282    1.1385    0.6097 C.3     1  LIG1        0.4021
     18 N           0.4250    4.8310    5.2653 N.ar    1  LIG1       -0.3922
     19 N           1.3450    2.9466    1.7257 N.2     1  LIG1       -0.2749
     20 N           2.2197    3.9389    1.3829 N.am    1  LIG1       -0.2172
     21 O           3.6767    5.5886    2.1229 O.2     1  LIG1       -0.4379
     22 O           3.9558    3.4658   -0.1061 O.3     1  LIG1       -0.4356
     23 O           4.3332    7.6488   -2.7024 O.3     1  LIG1       -0.4174
     24 F          -0.0188    0.6628   -0.6457 F       1  LIG1       -0.1604
     25 F           0.5837    0.1268    1.3798 F       1  LIG1       -0.1595
     26 F          -1.0973    1.4783    1.0644 F       1  LIG1       -0.1594
     27 H          -0.0204    7.5206   -1.4306 H       1  LIG1        0.1313
     28 H           3.2700    3.9666    6.8945 H       1  LIG1        0.1292
     29 H           4.1817    4.1251    4.5883 H       1  LIG1        0.1725
     30 H           0.3005    5.3660   -0.2611 H       1  LIG1        0.1267
     31 H           1.8805    8.6063   -2.5858 H       1  LIG1        0.1175
     32 H           4.4517    5.3681   -1.4038 H       1  LIG1        0.1266
     33 H           0.8404    4.4379    7.2468 H       1  LIG1        0.2104
     34 H           0.2377    5.1802    3.2465 H       1  LIG1        0.2255
     35 H           2.2587    1.9998   -1.1062 H       1  LIG1        0.1337
     36 H           0.9159    3.1775   -1.2824 H       1  LIG1        0.1368
     37 H           6.3370    7.5568   -3.2003 H       1  LIG1        0.0900
     38 H           5.4891    5.9821   -3.1006 H       1  LIG1        0.0901
     39 H           5.9000    6.8743   -1.6121 H       1  LIG1        0.1230
     40 H           4.4943    4.1535    0.3189 H       1  LIG1        0.3570
@<TRIPOS>BOND
     1     1     4   ar
     2     1     5   ar
     3     2     3   ar
     4     2     7   ar
     5     3     9   ar
     6     4    10   ar
     7     5    11   ar
     8     6    10   ar
     9     6    11   ar
    10     7    18   ar
    11     8     9   ar
    12     8    18   ar
    13     9    13    1
    14    10    15    1
    15    11    23    1
    16    12    14    1
    17    12    17    1
    18    12    19    2
    19    13    20   am
    20    13    21    2
    21    14    15    1
    22    15    20    1
    23    15    22    1
    24    16    23    1
    25    17    24    1
    26    17    25    1
    27    17    26    1
    28    19    20    1
    29     1    27    1
    30     2    28    1
    31     3    29    1
    32     4    30    1
    33     5    31    1
    34     6    32    1
    35     7    33    1
    36     8    34    1
    37    14    35    1
    38    14    36    1
    39    16    37    1
    40    16    38    1
    41    16    39    1
    42    22    40    1
