@<TRIPOS>MOLECULE
AP-782/41885278
 56 58 0 0 0
SMALL
USER_CHARGES

@<TRIPOS>ATOM
      1 C           1.0364    3.9272    4.1109 C.ar    1  LIG1       -0.1080
      2 C           2.0428    7.5539   -2.2543 C.ar    1  LIG1       -0.1074
      3 C           1.5433    5.0878    3.5262 C.ar    1  LIG1       -0.1053
      4 C           0.9698    2.7459    3.3721 C.ar    1  LIG1       -0.1030
      5 C           1.1341    7.2663   -1.2359 C.ar    1  LIG1       -0.1069
      6 C           3.0675    6.6545   -2.5491 C.ar    1  LIG1       -0.1038
      7 C          -0.5049    1.8007   -1.2507 C.ar    1  LIG1       -0.0983
      8 C           0.1478    0.7054   -1.8161 C.ar    1  LIG1       -0.0974
      9 C           1.9833    5.0670    2.2027 C.ar    1  LIG1       -0.0880
     10 C           1.4098    2.7252    2.0486 C.ar    1  LIG1       -0.0851
     11 C           1.2500    6.0795   -0.5122 C.ar    1  LIG1       -0.0965
     12 C           3.1834    5.4676   -1.8256 C.ar    1  LIG1       -0.0926
     13 C           0.2353    2.8261   -0.6620 C.ar    1  LIG1       -0.0818
     14 C           1.5407    0.6351   -1.7926 C.ar    1  LIG1       -0.0641
     15 C           1.9165    3.8857    1.4639 C.ar    1  LIG1       -0.0547
     16 C           2.2747    5.1802   -0.8071 C.ar    1  LIG1       -0.0652
     17 C           1.6282    2.7558   -0.6386 C.ar    1  LIG1       -0.0226
     18 C           2.2809    1.6605   -1.2039 C.ar    1  LIG1        0.0339
     19 C           7.1700   -0.1977   -1.7099 C.3     1  LIG1       -0.0117
     20 C           6.3805    1.4706   -0.2090 C.3     1  LIG1       -0.0160
     21 C           4.7515   -0.6386   -4.3162 C.3     1  LIG1       -0.0123
     22 C           4.4323    1.7321   -4.1409 C.3     1  LIG1       -0.0098
     23 C           2.4041    3.8621   -0.0038 C.3     1  LIG1        0.0459
     24 N           6.1256    0.8080   -1.4935 N.3     1  LIG1       -0.2598
     25 N           4.2878    0.4485   -3.4587 N.3     1  LIG1       -0.2559
     26 O           4.1452   -0.9534   -1.1629 O.2     1  LIG1       -0.3128
     27 O           3.8409    3.6352    0.0257 O.3     1  LIG1       -0.4482
     28 O           3.6474    1.5755   -1.1886 O.3     1  LIG1       -0.2106
     29 P           4.5353    0.3575   -1.8088 P.3     1  LIG1        0.3035
     30 H           0.6952    3.9431    5.1418 H       1  LIG1        0.1152
     31 H           1.9516    8.4775   -2.8184 H       1  LIG1        0.1165
     32 H           1.5963    6.0074    4.1016 H       1  LIG1        0.1157
     33 H           0.5763    1.8419    3.8273 H       1  LIG1        0.1154
     34 H           0.3355    7.9661   -1.0068 H       1  LIG1        0.1149
     35 H           3.7745    6.8775   -3.3426 H       1  LIG1        0.1163
     36 H          -1.5896    1.8556   -1.2682 H       1  LIG1        0.1218
     37 H          -0.4289   -0.0931   -2.2735 H       1  LIG1        0.1335
     38 H           2.3764    5.9762    1.7553 H       1  LIG1        0.1257
     39 H           1.3540    1.8002    1.4807 H       1  LIG1        0.1270
     40 H           0.5375    5.8640    0.2797 H       1  LIG1        0.1216
     41 H           3.9849    4.7729   -2.0622 H       1  LIG1        0.1259
     42 H          -0.2828    3.6745   -0.2229 H       1  LIG1        0.1344
     43 H           2.0435   -0.2208   -2.2346 H       1  LIG1        0.1384
     44 H           7.0070   -0.7100   -2.6617 H       1  LIG1        0.0605
     45 H           7.1550   -0.9376   -0.9050 H       1  LIG1        0.0843
     46 H           8.1543    0.2779   -1.7302 H       1  LIG1        0.0931
     47 H           5.6159    2.2283   -0.0189 H       1  LIG1        0.0661
     48 H           7.3606    1.9550   -0.2217 H       1  LIG1        0.0887
     49 H           6.3614    0.7396    0.6037 H       1  LIG1        0.0596
     50 H           4.6412   -1.5965   -3.8012 H       1  LIG1        0.0537
     51 H           5.8049   -0.4955   -4.5715 H       1  LIG1        0.0852
     52 H           4.1675   -0.6664   -5.2401 H       1  LIG1        0.0848
     53 H           4.0840    2.5422   -3.4951 H       1  LIG1        0.0875
     54 H           3.8436    1.7389   -5.0623 H       1  LIG1        0.0899
     55 H           5.4811    1.9098   -4.3939 H       1  LIG1        0.0599
     56 H           4.1974    4.3766    0.5239 H       1  LIG1        0.3244
@<TRIPOS>BOND
     1     1     3   ar
     2     1     4   ar
     3     2     5   ar
     4     2     6   ar
     5     3     9   ar
     6     4    10   ar
     7     5    11   ar
     8     6    12   ar
     9     7     8   ar
    10     7    13   ar
    11     8    14   ar
    12     9    15   ar
    13    10    15   ar
    14    11    16   ar
    15    12    16   ar
    16    13    17   ar
    17    14    18   ar
    18    15    23    1
    19    16    23    1
    20    17    18   ar
    21    17    23    1
    22    18    28    1
    23    19    24    1
    24    20    24    1
    25    21    25    1
    26    22    25    1
    27    23    27    1
    28    24    29    1
    29    25    29    1
    30    26    29    2
    31    28    29    1
    32     1    30    1
    33     2    31    1
    34     3    32    1
    35     4    33    1
    36     5    34    1
    37     6    35    1
    38     7    36    1
    39     8    37    1
    40     9    38    1
    41    10    39    1
    42    11    40    1
    43    12    41    1
    44    13    42    1
    45    14    43    1
    46    19    44    1
    47    19    45    1
    48    19    46    1
    49    20    47    1
    50    20    48    1
    51    20    49    1
    52    21    50    1
    53    21    51    1
    54    21    52    1
    55    22    53    1
    56    22    54    1
    57    22    55    1
    58    27    56    1
