@<TRIPOS>MOLECULE
AG-205/13451012
 43 48 0 0 0
SMALL
USER_CHARGES

@<TRIPOS>ATOM
      1 C           1.0872    4.0161    5.8809 C.ar    1  LIG1       -0.0899
      2 C           1.8977    5.1210    6.1899 C.ar    1  LIG1       -0.0884
      3 C          -0.2510    1.2821   -1.4050 C.ar    1  LIG1       -0.0879
      4 C           0.7331    1.4398   -2.3681 C.ar    1  LIG1       -0.0919
      5 C           1.0588    3.4849    4.5848 C.ar    1  LIG1       -0.0721
      6 C           2.6917    5.7108    5.2087 C.ar    1  LIG1       -0.0676
      7 C           1.3896    5.8186   -0.5835 C.ar    1  LIG1       -0.0731
      8 C          -0.0123    1.7085   -0.0988 C.ar    1  LIG1       -0.0603
      9 C           0.7096    6.6631   -1.4643 C.ar    1  LIG1       -0.0501
     10 C           1.9511    2.0188   -2.0193 C.ar    1  LIG1       -0.0772
     11 C           3.5129    6.3405   -1.6544 C.ar    1  LIG1       -0.0373
     12 C           1.8477    4.0713    3.6051 C.ar    1  LIG1       -0.0207
     13 C           2.6384    5.1610    3.9415 C.ar    1  LIG1        0.0167
     14 C           2.7832    5.6582   -0.6780 C.ar    1  LIG1       -0.0607
     15 C           1.2112    2.3043    0.2828 C.ar    1  LIG1       -0.0494
     16 C           1.4535    7.3252   -2.4192 C.ar    1  LIG1        0.0313
     17 C           2.8176    7.1683   -2.5117 C.ar    1  LIG1        0.0364
     18 C           2.1991    2.4627   -0.7056 C.ar    1  LIG1       -0.0293
     19 C           2.0330    3.7511    2.1819 C.2     1  LIG1       -0.0248
     20 C           3.3460    5.5594    2.7391 C.2     1  LIG1        0.1085
     21 C           2.9183    4.6244    1.6610 C.2     1  LIG1        0.0349
     22 C           2.1781    8.5496   -4.0495 C.3     1  LIG1        0.1112
     23 C           3.5002    4.7344    0.2911 C.3     1  LIG1        0.0417
     24 N           1.3029    2.7383    1.6215 N.pl3   1  LIG1       -0.3563
     25 O           4.1295    6.4814    2.6457 O.2     1  LIG1       -0.4354
     26 O           0.9674    8.1840   -3.3562 O.3     1  LIG1       -0.3786
     27 O           3.3562    7.9091   -3.5184 O.3     1  LIG1       -0.3777
     28 S           3.8490    3.0832   -0.4066 S.3     1  LIG1       -0.1740
     29 H           0.4751    3.5666    6.6584 H       1  LIG1        0.1291
     30 H           1.9043    5.5164    7.2019 H       1  LIG1        0.1271
     31 H          -1.2035    0.8303   -1.6652 H       1  LIG1        0.1320
     32 H           0.5595    1.1069   -3.3870 H       1  LIG1        0.1250
     33 H           0.4262    2.6291    4.3741 H       1  LIG1        0.1407
     34 H           3.3208    6.5631    5.4368 H       1  LIG1        0.1506
     35 H           0.8292    5.2837    0.1795 H       1  LIG1        0.1392
     36 H          -0.8060    1.5804    0.6362 H       1  LIG1        0.1358
     37 H          -0.3647    6.7898   -1.3947 H       1  LIG1        0.1405
     38 H           2.7117    2.1154   -2.7924 H       1  LIG1        0.1422
     39 H           4.5883    6.2255   -1.7378 H       1  LIG1        0.1491
     40 H           2.0748    8.2742   -5.1054 H       1  LIG1        0.1678
     41 H           2.3079    9.6358   -3.9801 H       1  LIG1        0.2021
     42 H           4.5336    5.1854    0.3999 H       1  LIG1        0.1260
     43 H           0.6183    2.3106    2.2370 H       1  LIG1        0.3146
@<TRIPOS>BOND
     1     1     2   ar
     2     1     5   ar
     3     2     6   ar
     4     3     4   ar
     5     3     8   ar
     6     4    10   ar
     7     5    12   ar
     8     6    13   ar
     9     7     9   ar
    10     7    14   ar
    11     8    15   ar
    12     9    16   ar
    13    10    18   ar
    14    11    14   ar
    15    11    17   ar
    16    12    13   ar
    17    12    19    1
    18    13    20    1
    19    14    23    1
    20    15    18   ar
    21    15    24    1
    22    16    17   ar
    23    16    26    1
    24    17    27    1
    25    18    28    1
    26    19    21    2
    27    19    24    1
    28    20    21    1
    29    20    25    2
    30    21    23    1
    31    22    26    1
    32    22    27    1
    33    23    28    1
    34     1    29    1
    35     2    30    1
    36     3    31    1
    37     4    32    1
    38     5    33    1
    39     6    34    1
    40     7    35    1
    41     8    36    1
    42     9    37    1
    43    10    38    1
    44    11    39    1
    45    22    40    1
    46    22    41    1
    47    23    42    1
    48    24    43    1
