@<TRIPOS>MOLECULE
AK-778/43114892
 41 43 0 0 0
SMALL
USER_CHARGES

@<TRIPOS>ATOM
      1 C           2.8649    7.1801   -2.2485 C.ar    1  LIG1       -0.0930
      2 C           1.5463    7.0040   -2.7002 C.ar    1  LIG1       -0.0906
      3 C           3.3700    6.4065   -1.2004 C.ar    1  LIG1       -0.0774
      4 C           0.7112    6.0515   -2.1121 C.ar    1  LIG1       -0.0625
      5 C           1.3294    4.7383    4.0739 C.ar    1  LIG1       -0.0502
      6 C           3.1769    3.9295    5.3844 C.ar    1  LIG1       -0.0457
      7 C           0.5937    4.7978    5.2465 C.ar    1  LIG1       -0.0362
      8 C           2.3584    4.0254    6.4983 C.ar    1  LIG1       -0.0330
      9 C           2.6449    4.2948    4.1528 C.ar    1  LIG1       -0.0007
     10 C           2.5367    5.4651   -0.6203 C.ar    1  LIG1       -0.0154
     11 C           1.2280    5.2943   -1.0749 C.ar    1  LIG1       -0.0300
     12 C           1.4715    3.7535    0.6367 C.2     1  LIG1        0.1519
     13 C           3.4718    4.2127    2.9363 C.2     1  LIG1        0.0959
     14 C           2.8093    4.5090    0.5051 C.3     1  LIG1        0.1302
     15 C          -0.0786    1.6001   -1.4871 C.3     1  LIG1       -0.0658
     16 C           3.1838    5.1994    1.8085 C.3     1  LIG1        0.0905
     17 C          -0.8885    2.8724   -1.6922 C.3     1  LIG1       -0.0498
     18 C          -0.7571    3.8482   -0.5290 C.3     1  LIG1       -0.0093
     19 N           1.0760    4.4514    6.4610 N.ar    1  LIG1       -0.3973
     20 N           0.6044    4.2850   -0.3289 N.am    1  LIG1       -0.3128
     21 O           1.2501    2.8521    1.4325 O.2     1  LIG1       -0.4358
     22 O           4.3730    3.3815    2.8094 O.2     1  LIG1       -0.4391
     23 O           3.8073    3.5836    0.1198 O.3     1  LIG1       -0.4417
     24 H           3.4979    7.9266   -2.7209 H       1  LIG1        0.1214
     25 H           1.1737    7.6163   -3.5172 H       1  LIG1        0.1341
     26 H           4.3890    6.5449   -0.8560 H       1  LIG1        0.1403
     27 H          -0.3045    5.9219   -2.4682 H       1  LIG1        0.1270
     28 H           0.8836    5.0322    3.1295 H       1  LIG1        0.1388
     29 H           4.1993    3.5800    5.4808 H       1  LIG1        0.1459
     30 H          -0.4364    5.1377    5.2390 H       1  LIG1        0.2038
     31 H           2.7255    3.7522    7.4820 H       1  LIG1        0.2054
     32 H           0.9853    1.8277   -1.3661 H       1  LIG1        0.0362
     33 H          -0.4177    1.0789   -0.5861 H       1  LIG1        0.0336
     34 H          -0.1907    0.9150   -2.3332 H       1  LIG1        0.0332
     35 H           2.3549    5.8482    2.1104 H       1  LIG1        0.1047
     36 H           4.0768    5.8092    1.6367 H       1  LIG1        0.1214
     37 H          -1.9441    2.6007   -1.8087 H       1  LIG1        0.0483
     38 H          -0.5726    3.3541   -2.6252 H       1  LIG1        0.0483
     39 H          -1.3553    4.7441   -0.7223 H       1  LIG1        0.1146
     40 H          -1.1065    3.4005    0.4067 H       1  LIG1        0.1126
     41 H           3.9517    2.9866    0.8744 H       1  LIG1        0.3479
@<TRIPOS>BOND
     1     1     2   ar
     2     1     3   ar
     3     2     4   ar
     4     3    10   ar
     5     4    11   ar
     6     5     7   ar
     7     5     9   ar
     8     6     8   ar
     9     6     9   ar
    10     7    19   ar
    11     8    19   ar
    12     9    13    1
    13    10    11   ar
    14    10    14    1
    15    11    20    1
    16    12    14    1
    17    12    20   am
    18    12    21    2
    19    13    16    1
    20    13    22    2
    21    14    16    1
    22    14    23    1
    23    15    17    1
    24    17    18    1
    25    18    20    1
    26     1    24    1
    27     2    25    1
    28     3    26    1
    29     4    27    1
    30     5    28    1
    31     6    29    1
    32     7    30    1
    33     8    31    1
    34    15    32    1
    35    15    33    1
    36    15    34    1
    37    16    35    1
    38    16    36    1
    39    17    37    1
    40    17    38    1
    41    18    39    1
    42    18    40    1
    43    23    41    1
