@<TRIPOS>MOLECULE
AE-842/33004051
 38 43 0 0 0
SMALL
USER_CHARGES

@<TRIPOS>ATOM
      1 C          -0.0408    1.3460   -2.1326 C.ar    1  LIG1       -0.0954
      2 C           1.4506    7.0941   -2.5516 C.ar    1  LIG1       -0.0960
      3 C           0.8088    0.7102   -1.2158 C.ar    1  LIG1       -0.0973
      4 C           2.5386    7.3532   -1.7096 C.ar    1  LIG1       -0.0952
      5 C           0.0787    2.7145   -2.3853 C.ar    1  LIG1       -0.0838
      6 C           0.8864    5.8211   -2.6040 C.ar    1  LIG1       -0.0848
      7 C           1.7869    1.4339   -0.5310 C.ar    1  LIG1       -0.0883
      8 C           3.0745    6.3483   -0.8969 C.ar    1  LIG1       -0.0826
      9 C           1.0513    3.4316   -1.7040 C.ar    1  LIG1       -0.0647
     10 C           1.4202    4.8249   -1.7963 C.ar    1  LIG1       -0.0628
     11 C           1.8953    2.7978   -0.7720 C.ar    1  LIG1       -0.0525
     12 C           2.5064    5.0823   -0.9231 C.ar    1  LIG1       -0.0477
     13 C           2.1264    3.5518    3.6431 C.2     1  LIG1       -0.1303
     14 C           3.4337    3.5495    3.9729 C.2     1  LIG1       -0.1306
     15 C           2.9060    5.5813    3.0546 C.3     1  LIG1       -0.0469
     16 C           1.9528    4.5204    2.4692 C.3     1  LIG1       -0.0453
     17 C           4.1277    4.6028    3.1364 C.3     1  LIG1       -0.0306
     18 C           2.7552    3.8172    1.3592 C.3     1  LIG1       -0.0010
     19 C           4.1564    4.3479    1.6382 C.3     1  LIG1        0.0425
     20 C           2.8662    3.8124   -0.1509 C.3     1  LIG1        0.0788
     21 N           4.9470    3.4471    0.8199 N.2     1  LIG1       -0.2764
     22 N           4.3083    3.3347   -0.2928 N.2     1  LIG1       -0.2517
     23 H          -0.7951    0.7652   -2.6566 H       1  LIG1        0.1259
     24 H           1.0511    7.8886   -3.1758 H       1  LIG1        0.1244
     25 H           0.7047   -0.3569   -1.0383 H       1  LIG1        0.1253
     26 H           2.9759    8.3484   -1.6910 H       1  LIG1        0.1250
     27 H          -0.5767    3.1904   -3.1073 H       1  LIG1        0.1291
     28 H           0.0549    5.6255   -3.2732 H       1  LIG1        0.1276
     29 H           2.4416    0.9290    0.1711 H       1  LIG1        0.1209
     30 H           3.9284    6.5922   -0.2792 H       1  LIG1        0.1251
     31 H           1.3629    2.9059    4.0471 H       1  LIG1        0.1164
     32 H           3.9024    2.9212    4.7133 H       1  LIG1        0.1059
     33 H           3.0531    6.4384    2.3868 H       1  LIG1        0.0691
     34 H           2.5944    5.9711    4.0342 H       1  LIG1        0.0604
     35 H           0.9262    4.8185    2.2633 H       1  LIG1        0.0990
     36 H           5.0171    5.0497    3.5811 H       1  LIG1        0.0980
     37 H           2.7240    2.7398    1.6056 H       1  LIG1        0.0598
     38 H           4.3689    5.3328    1.2103 H       1  LIG1        0.1310
@<TRIPOS>BOND
     1     1     3   ar
     2     1     5   ar
     3     2     4   ar
     4     2     6   ar
     5     3     7   ar
     6     4     8   ar
     7     5     9   ar
     8     6    10   ar
     9     7    11   ar
    10     8    12   ar
    11     9    10    1
    12     9    11   ar
    13    10    12   ar
    14    11    20    1
    15    12    20    1
    16    13    14    2
    17    13    16    1
    18    14    17    1
    19    15    16    1
    20    15    17    1
    21    16    18    1
    22    17    19    1
    23    18    19    1
    24    18    20    1
    25    19    21    1
    26    20    22    1
    27    21    22    2
    28     1    23    1
    29     2    24    1
    30     3    25    1
    31     4    26    1
    32     5    27    1
    33     6    28    1
    34     7    29    1
    35     8    30    1
    36    13    31    1
    37    14    32    1
    38    15    33    1
    39    15    34    1
    40    16    35    1
    41    17    36    1
    42    18    37    1
    43    19    38    1
