@<TRIPOS>MOLECULE
AG-205/33646016
 52 56 0 0 0
SMALL
USER_CHARGES

@<TRIPOS>ATOM
      1 C           1.8343    4.4838    6.4274 C.ar    1  LIG1       -0.1035
      2 C           0.9163    5.1553    5.6406 C.ar    1  LIG1       -0.1028
      3 C           2.8906    3.8185    5.8185 C.ar    1  LIG1       -0.0926
      4 C           1.0741    5.1829    4.2505 C.ar    1  LIG1       -0.0864
      5 C           4.0997    3.0963    3.8714 C.ar    1  LIG1       -0.0747
      6 C           2.3132    1.5843   -1.5588 C.ar    1  LIG1       -0.0900
      7 C           0.3170    2.7910   -0.9295 C.ar    1  LIG1       -0.0919
      8 C           4.2622    3.0204    2.4972 C.ar    1  LIG1       -0.0533
      9 C           1.5351    0.4833   -1.9162 C.ar    1  LIG1       -0.0725
     10 C          -0.4612    1.6900   -1.2870 C.ar    1  LIG1       -0.0743
     11 C           3.0515    3.8324    4.4220 C.ar    1  LIG1       -0.0708
     12 C           2.1619    4.5608    3.5820 C.ar    1  LIG1       -0.0650
     13 C           2.4054    4.5727    2.1600 C.ar    1  LIG1       -0.0283
     14 C           1.7041    2.7381   -1.0654 C.ar    1  LIG1       -0.0782
     15 C           3.4140    3.7223    1.6347 C.ar    1  LIG1       -0.0520
     16 C           0.1478    0.5361   -1.7804 C.ar    1  LIG1       -0.0774
     17 C           1.7119    5.4585    1.1541 C.2     1  LIG1       -0.0671
     18 C           1.7697    5.1189   -0.1539 C.2     1  LIG1        0.0005
     19 C           1.0995    5.9772   -1.1916 C.2     1  LIG1        0.0595
     20 C           1.0853    6.7625    1.5886 C.3     1  LIG1       -0.0258
     21 C           0.4234    7.2543   -0.7587 C.3     1  LIG1        0.0243
     22 C           1.0859    7.8127    0.4831 C.3     1  LIG1       -0.0391
     23 C           2.5511    3.9380   -0.6752 C.3     1  LIG1        0.0028
     24 C          -0.0168   -1.7793   -2.6589 C.3     1  LIG1       -0.0377
     25 C          -2.0805   -0.5360   -1.9929 C.3     1  LIG1       -0.0379
     26 N           3.5841    3.5459    0.2665 N.pl3   1  LIG1       -0.3872
     27 N          -0.6394   -0.5763   -2.1435 N.pl3   1  LIG1       -0.4270
     28 O           1.0623    5.6256   -2.3710 O.2     1  LIG1       -0.4817
     29 H           1.7188    4.4576    7.5063 H       1  LIG1        0.1125
     30 H           0.0664    5.6530    6.0984 H       1  LIG1        0.1204
     31 H           3.5876    3.2709    6.4510 H       1  LIG1        0.1269
     32 H           0.2851    5.6824    3.7027 H       1  LIG1        0.1239
     33 H           4.7830    2.5351    4.5059 H       1  LIG1        0.1427
     34 H           3.3933    1.5340   -1.6669 H       1  LIG1        0.1295
     35 H          -0.1661    3.6849   -0.5445 H       1  LIG1        0.1272
     36 H           5.0562    2.3931    2.0974 H       1  LIG1        0.1263
     37 H           2.0199   -0.4113   -2.2982 H       1  LIG1        0.1097
     38 H          -1.5413    1.7418   -1.1764 H       1  LIG1        0.1081
     39 H           0.0455    6.5864    1.8857 H       1  LIG1        0.0787
     40 H           1.6291    7.1921    2.4374 H       1  LIG1        0.0797
     41 H           0.5016    7.9847   -1.5713 H       1  LIG1        0.0780
     42 H          -0.6364    7.0418   -0.5825 H       1  LIG1        0.0873
     43 H           0.5557    8.7105    0.8203 H       1  LIG1        0.0509
     44 H           2.1177    8.1117    0.2566 H       1  LIG1        0.0582
     45 H           3.0974    4.2477   -1.6044 H       1  LIG1        0.1528
     46 H          -0.7790   -2.5297   -2.8847 H       1  LIG1        0.0775
     47 H           0.6760   -2.1924   -1.9208 H       1  LIG1        0.0907
     48 H           0.5383   -1.5554   -3.5738 H       1  LIG1        0.0923
     49 H          -2.5193   -1.4812   -2.3230 H       1  LIG1        0.0977
     50 H          -2.5008    0.2756   -2.5930 H       1  LIG1        0.0821
     51 H          -2.3466   -0.3713   -0.9454 H       1  LIG1        0.0794
     52 H           4.3295    2.9392   -0.0563 H       1  LIG1        0.2975
@<TRIPOS>BOND
     1     1     2   ar
     2     1     3   ar
     3     2     4   ar
     4     3    11   ar
     5     4    12   ar
     6     5     8   ar
     7     5    11   ar
     8     6     9   ar
     9     6    14   ar
    10     7    10   ar
    11     7    14   ar
    12     8    15   ar
    13     9    16   ar
    14    10    16   ar
    15    11    12   ar
    16    12    13   ar
    17    13    15   ar
    18    13    17    1
    19    14    23    1
    20    15    26    1
    21    16    27    1
    22    17    18    2
    23    17    20    1
    24    18    19    1
    25    18    23    1
    26    19    21    1
    27    19    28    2
    28    20    22    1
    29    21    22    1
    30    23    26    1
    31    24    27    1
    32    25    27    1
    33     1    29    1
    34     2    30    1
    35     3    31    1
    36     4    32    1
    37     5    33    1
    38     6    34    1
    39     7    35    1
    40     8    36    1
    41     9    37    1
    42    10    38    1
    43    20    39    1
    44    20    40    1
    45    21    41    1
    46    21    42    1
    47    22    43    1
    48    22    44    1
    49    23    45    1
    50    24    46    1
    51    24    47    1
    52    24    48    1
    53    25    49    1
    54    25    50    1
    55    25    51    1
    56    26    52    1
