@<TRIPOS>MOLECULE
AG-205/37179123
 40 43 0 0 0
SMALL
USER_CHARGES

@<TRIPOS>ATOM
      1 C           3.3720    6.0692   -1.5366 C.ar    1  LIG1       -0.0903
      2 C           1.9163    2.0562   -1.3379 C.ar    1  LIG1       -0.0809
      3 C           2.8644    7.1955   -2.2465 C.ar    1  LIG1       -0.0741
      4 C           0.8121    1.1843   -1.5627 C.ar    1  LIG1       -0.0716
      5 C           2.3907    5.4284   -0.8128 C.ar    1  LIG1       -0.0154
      6 C           1.6151    3.0497   -0.4323 C.ar    1  LIG1       -0.0027
      7 C           1.5140    7.3724   -2.0384 C.ar    1  LIG1        0.0532
      8 C          -0.2910    1.5443   -0.8200 C.ar    1  LIG1        0.0556
      9 C           3.8243    2.8433    2.5903 C.3     1  LIG1       -0.0680
     10 C           2.0001    3.8825    3.9149 C.3     1  LIG1       -0.0662
     11 C           4.7807    3.9538    3.0255 C.3     1  LIG1       -0.1005
     12 C           2.9484    4.9995    4.3545 C.3     1  LIG1       -0.1024
     13 C           3.3074    5.6643    1.9749 C.3     1  LIG1       -0.0874
     14 C           2.3821    3.3751    2.5108 C.3     1  LIG1       -0.0561
     15 C           2.3060    4.5805    1.5413 C.3     1  LIG1       -0.0299
     16 C           2.5190    4.1829    0.0811 C.3     1  LIG1        0.0333
     17 N           3.9738    5.2138    3.2605 N.4     1  LIG1        0.4046
     18 O           3.8741    3.6879    0.0329 O.3     1  LIG1       -0.4476
     19 S           0.8643    6.1839   -0.9907 S.2     1  LIG1       -0.0973
     20 S           0.0068    2.9286    0.1429 S.2     1  LIG1       -0.0853
     21 CL          0.5015    8.5916   -2.6905 Cl      1  LIG1       -0.0779
     22 CL         -1.8251    0.7814   -0.7799 Cl      1  LIG1       -0.0790
     23 H           4.4059    5.7487   -1.5585 H       1  LIG1        0.1365
     24 H           2.8812    1.9562   -1.8186 H       1  LIG1        0.1397
     25 H           3.4648    7.8394   -2.8768 H       1  LIG1        0.1327
     26 H           0.8324    0.3370   -2.2366 H       1  LIG1        0.1331
     27 H           4.1457    2.4285    1.6288 H       1  LIG1        0.0699
     28 H           3.8793    2.0138    3.3063 H       1  LIG1        0.0733
     29 H           2.0366    3.0602    4.6398 H       1  LIG1        0.0915
     30 H           0.9671    4.2509    3.9207 H       1  LIG1        0.0646
     31 H           5.2953    3.7133    3.9616 H       1  LIG1        0.0910
     32 H           5.5280    4.1802    2.2580 H       1  LIG1        0.0893
     33 H           2.4261    5.9498    4.5059 H       1  LIG1        0.0860
     34 H           3.4922    4.7435    5.2696 H       1  LIG1        0.0892
     35 H           4.1039    5.8436    1.2447 H       1  LIG1        0.0895
     36 H           2.8083    6.6160    2.1878 H       1  LIG1        0.0992
     37 H           1.6966    2.5791    2.1998 H       1  LIG1        0.0880
     38 H           1.2953    5.0067    1.6043 H       1  LIG1        0.0992
     39 H           4.6183    5.9560    3.5646 H       1  LIG1        0.1719
     40 H           4.0375    3.4733   -0.8934 H       1  LIG1        0.3412
@<TRIPOS>BOND
     1     1     3   ar
     2     1     5   ar
     3     2     4   ar
     4     2     6   ar
     5     3     7   ar
     6     4     8   ar
     7     5    16    1
     8     5    19   ar
     9     6    16    1
    10     6    20   ar
    11     7    19   ar
    12     7    21    1
    13     8    20   ar
    14     8    22    1
    15     9    11    1
    16     9    14    1
    17    10    12    1
    18    10    14    1
    19    11    17    1
    20    12    17    1
    21    13    15    1
    22    13    17    1
    23    14    15    1
    24    15    16    1
    25    16    18    1
    26     1    23    1
    27     2    24    1
    28     3    25    1
    29     4    26    1
    30     9    27    1
    31     9    28    1
    32    10    29    1
    33    10    30    1
    34    11    31    1
    35    11    32    1
    36    12    33    1
    37    12    34    1
    38    13    35    1
    39    13    36    1
    40    14    37    1
    41    15    38    1
    42    17    39    1
    43    18    40    1
