@<TRIPOS>MOLECULE
AN-655/15641006
 36 38 0 0 0
SMALL
USER_CHARGES

@<TRIPOS>ATOM
      1 C           1.4531    4.8524    6.4186 C.ar    1  LIG1       -0.1010
      2 C           0.6251    5.1527    5.3370 C.ar    1  LIG1       -0.0994
      3 C           2.6502    4.1670    6.2114 C.ar    1  LIG1       -0.0965
      4 C           0.9942    4.7676    4.0482 C.ar    1  LIG1       -0.0851
      5 C           3.0193    3.7819    4.9225 C.ar    1  LIG1       -0.0807
      6 C           0.3853    2.3966   -2.5109 C.ar    1  LIG1       -0.0494
      7 C           0.1299    1.1370   -1.9645 C.ar    1  LIG1       -0.0659
      8 C           1.5091    1.6425   -0.0218 C.ar    1  LIG1       -0.0532
      9 C           2.1913    4.0821    3.8409 C.ar    1  LIG1       -0.0149
     10 C           1.7566    2.8901   -0.5684 C.ar    1  LIG1       -0.0041
     11 C           1.2015    3.2556   -1.7954 C.ar    1  LIG1       -0.0226
     12 C           0.6875    0.7625   -0.7304 C.ar    1  LIG1       -0.0283
     13 C           2.4453    5.0938   -1.1321 C.2     1  LIG1        0.1561
     14 C           2.5810    3.6755    2.4797 C.2     1  LIG1        0.0872
     15 C           2.5914    4.0204   -0.0340 C.3     1  LIG1        0.1331
     16 C           1.2120    5.2295   -3.3353 C.3     1  LIG1       -0.0017
     17 C           2.1128    4.5412    1.3135 C.3     1  LIG1        0.0876
     18 N           1.6092    4.5561   -2.1217 N.am    1  LIG1       -0.3107
     19 O           2.9865    6.1900   -1.1181 O.2     1  LIG1       -0.4268
     20 O           3.2625    2.6714    2.2638 O.2     1  LIG1       -0.4445
     21 O           3.9488    3.6289    0.0292 O.3     1  LIG1       -0.4399
     22 BR          0.3217   -0.9526   -0.0208 Br      1  LIG1       -0.1083
     23 H           1.1657    5.1522    7.4221 H       1  LIG1        0.1263
     24 H          -0.3069    5.6862    5.4986 H       1  LIG1        0.1200
     25 H           3.2951    3.9334    7.0535 H       1  LIG1        0.1209
     26 H           0.3416    5.0068    3.2125 H       1  LIG1        0.1305
     27 H           3.9543    3.2481    4.7729 H       1  LIG1        0.1382
     28 H          -0.0494    2.6771   -3.4636 H       1  LIG1        0.1395
     29 H          -0.5107    0.4489   -2.5118 H       1  LIG1        0.1523
     30 H           1.9465    1.3644    0.9319 H       1  LIG1        0.1583
     31 H           0.2843    5.7837   -3.1711 H       1  LIG1        0.1124
     32 H           1.0505    4.5023   -4.1357 H       1  LIG1        0.0992
     33 H           1.9895    5.9305   -3.6504 H       1  LIG1        0.0993
     34 H           1.0181    4.5657    1.3095 H       1  LIG1        0.1100
     35 H           2.4972    5.5571    1.4518 H       1  LIG1        0.1122
     36 H           4.4501    4.3861    0.3784 H       1  LIG1        0.3498
@<TRIPOS>BOND
     1     1     2   ar
     2     1     3   ar
     3     2     4   ar
     4     3     5   ar
     5     4     9   ar
     6     5     9   ar
     7     6     7   ar
     8     6    11   ar
     9     7    12   ar
    10     8    10   ar
    11     8    12   ar
    12     9    14    1
    13    10    11   ar
    14    10    15    1
    15    11    18    1
    16    12    22    1
    17    13    15    1
    18    13    18   am
    19    13    19    2
    20    14    17    1
    21    14    20    2
    22    15    17    1
    23    15    21    1
    24    16    18    1
    25     1    23    1
    26     2    24    1
    27     3    25    1
    28     4    26    1
    29     5    27    1
    30     6    28    1
    31     7    29    1
    32     8    30    1
    33    16    31    1
    34    16    32    1
    35    16    33    1
    36    17    34    1
    37    17    35    1
    38    21    36    1
