@<TRIPOS>MOLECULE
AG-690/11142063
 45 49 0 0 0
SMALL
USER_CHARGES

@<TRIPOS>ATOM
      1 C           2.3245    7.2543   -2.8575 C.ar    1  LIG1       -0.1035
      2 C          -2.7645    2.0744   -1.9611 C.ar    1  LIG1       -0.1037
      3 C          -2.5540    2.9757   -0.9218 C.ar    1  LIG1       -0.1010
      4 C           3.0958    6.1041   -2.6911 C.ar    1  LIG1       -0.1013
      5 C           1.3688    7.5975   -1.9011 C.ar    1  LIG1       -0.0965
      6 C           1.9662    0.9383   -1.9343 C.ar    1  LIG1       -0.0933
      7 C           0.7475    4.8950    6.2273 C.ar    1  LIG1       -0.0874
      8 C          -1.6959    1.3401   -2.4761 C.ar    1  LIG1       -0.0921
      9 C          -1.2741    3.1460   -0.3935 C.ar    1  LIG1       -0.0811
     10 C           0.6863    0.7678   -2.4625 C.ar    1  LIG1       -0.0888
     11 C           2.9115    5.2972   -1.5685 C.ar    1  LIG1       -0.0850
     12 C           1.1844    6.7905   -0.7786 C.ar    1  LIG1       -0.0785
     13 C           2.1768    1.8397   -0.8950 C.ar    1  LIG1       -0.0717
     14 C           0.6580    4.7596    4.8419 C.ar    1  LIG1       -0.0677
     15 C           1.9551    4.6376    6.8766 C.ar    1  LIG1       -0.0700
     16 C           2.9833    4.1094    4.7551 C.ar    1  LIG1       -0.0334
     17 C          -0.4009    1.4987   -1.9564 C.ar    1  LIG1       -0.0740
     18 C          -0.1868    2.4153   -0.8995 C.ar    1  LIG1       -0.0498
     19 C           1.9558    5.6404   -0.6121 C.ar    1  LIG1       -0.0516
     20 C           1.7757    4.3668    4.1058 C.ar    1  LIG1       -0.0071
     21 C           1.1083    2.5741   -0.3799 C.ar    1  LIG1       -0.0239
     22 C           3.0729    4.2448    6.1404 C.ar    1  LIG1       -0.0032
     23 C           1.4034    3.4886    0.6960 C.ar    1  LIG1        0.0073
     24 C           1.7660    4.8067    0.5485 C.ar    1  LIG1       -0.0149
     25 C           1.6830    4.2263    2.6729 C.ar    1  LIG1        0.0195
     26 N           1.3532    3.1335    2.0208 N.ar    1  LIG1       -0.3576
     27 N           1.9412    5.2660    1.8235 N.ar    1  LIG1       -0.3240
     28 CL          4.5616    3.9267    6.9432 Cl      1  LIG1       -0.1368
     29 H           2.4685    7.8830   -3.7314 H       1  LIG1        0.1194
     30 H          -3.7612    1.9415   -2.3718 H       1  LIG1        0.1156
     31 H          -3.3867    3.5466   -0.5214 H       1  LIG1        0.1141
     32 H           3.8397    5.8369   -3.4360 H       1  LIG1        0.1186
     33 H           0.7689    8.4938   -2.0302 H       1  LIG1        0.1216
     34 H           2.7986    0.3671   -2.3350 H       1  LIG1        0.1199
     35 H          -0.1225    5.2013    6.8007 H       1  LIG1        0.1335
     36 H          -1.8835    0.6408   -3.2885 H       1  LIG1        0.1226
     37 H          -1.1573    3.8607    0.4177 H       1  LIG1        0.1317
     38 H           0.5451    0.0574   -3.2744 H       1  LIG1        0.1254
     39 H           3.5224    4.4052   -1.4518 H       1  LIG1        0.1196
     40 H           0.4346    7.0711   -0.0426 H       1  LIG1        0.1303
     41 H           3.1824    1.9578   -0.4976 H       1  LIG1        0.1261
     42 H          -0.2901    4.9643    4.3501 H       1  LIG1        0.1258
     43 H           2.0104    4.7475    7.9567 H       1  LIG1        0.1366
     44 H           3.8561    3.8026    4.1818 H       1  LIG1        0.1580
     45 H           2.2128    6.2037    2.0903 H       1  LIG1        0.3522
@<TRIPOS>BOND
     1     1     4   ar
     2     1     5   ar
     3     2     3   ar
     4     2     8   ar
     5     3     9   ar
     6     4    11   ar
     7     5    12   ar
     8     6    10   ar
     9     6    13   ar
    10     7    14   ar
    11     7    15   ar
    12     8    17   ar
    13     9    18   ar
    14    10    17   ar
    15    11    19   ar
    16    12    19   ar
    17    13    21   ar
    18    14    20   ar
    19    15    22   ar
    20    16    20   ar
    21    16    22   ar
    22    17    18   ar
    23    18    21   ar
    24    19    24    1
    25    20    25    1
    26    21    23    1
    27    22    28    1
    28    23    24   ar
    29    23    26   ar
    30    24    27   ar
    31    25    26   ar
    32    25    27   ar
    33     1    29    1
    34     2    30    1
    35     3    31    1
    36     4    32    1
    37     5    33    1
    38     6    34    1
    39     7    35    1
    40     8    36    1
    41     9    37    1
    42    10    38    1
    43    11    39    1
    44    12    40    1
    45    13    41    1
    46    14    42    1
    47    15    43    1
    48    16    44    1
    49    27    45    1
