@<TRIPOS>MOLECULE
AH-487/36443064
 56 61 0 0 0
SMALL
USER_CHARGES

@<TRIPOS>ATOM
      1 C           1.7869    7.3469   -2.6316 C.ar    1  LIG1       -0.1050
      2 C           0.1321    0.9615   -2.1418 C.ar    1  LIG1       -0.1054
      3 C          -0.9837    5.1108    8.2162 C.ar    1  LIG1       -0.1033
      4 C           0.9622    7.2107   -1.5151 C.ar    1  LIG1       -0.1012
      5 C           2.9479    6.5811   -2.7389 C.ar    1  LIG1       -0.1004
      6 C           1.5170    1.0266   -2.2952 C.ar    1  LIG1       -0.1013
      7 C          -0.4882    1.6586   -1.1051 C.ar    1  LIG1       -0.1010
      8 C           0.2627    5.7215    8.0777 C.ar    1  LIG1       -0.0973
      9 C          -1.4694    4.2801    7.2063 C.ar    1  LIG1       -0.0974
     10 C           1.2984    6.3087   -0.5056 C.ar    1  LIG1       -0.0890
     11 C           3.2840    5.6790   -1.7294 C.ar    1  LIG1       -0.0881
     12 C           2.2815    1.7888   -1.4119 C.ar    1  LIG1       -0.0888
     13 C           0.2762    2.4208   -0.2218 C.ar    1  LIG1       -0.0885
     14 C           1.0232    5.5018    6.9293 C.ar    1  LIG1       -0.0679
     15 C          -0.7089    4.0604    6.0579 C.ar    1  LIG1       -0.0679
     16 C           2.4593    5.5428   -0.6127 C.ar    1  LIG1       -0.0766
     17 C           1.6611    2.4860   -0.3751 C.ar    1  LIG1       -0.0751
     18 C           0.5374    4.6713    5.9194 C.ar    1  LIG1       -0.0243
     19 C           2.8121    4.5974    0.4449 C.2     1  LIG1       -0.0619
     20 C           2.4637    3.2867    0.5532 C.2     1  LIG1       -0.0595
     21 C           4.1834    3.6788    1.7897 C.2     1  LIG1        0.0980
     22 C           2.2274    5.3888    4.1934 C.2     1  LIG1        0.1563
     23 C           1.2791    3.2524    3.9743 C.2     1  LIG1        0.1593
     24 C           2.4343    4.8607    2.8061 C.3     1  LIG1        0.1108
     25 C           2.5263    3.3602    3.1548 C.3     1  LIG1        0.1086
     26 C           3.5205    5.0353    1.7342 C.3     1  LIG1        0.0707
     27 C           3.0113    2.7092    1.8593 C.3     1  LIG1        0.0715
     28 C           4.4107    6.2430    1.7953 C.3     1  LIG1       -0.0274
     29 C           3.4248    1.2575    1.9360 C.3     1  LIG1       -0.0257
     30 N           1.3160    4.4465    4.7443 N.am    1  LIG1       -0.2150
     31 O           5.3736    3.4247    1.7552 O.2     1  LIG1       -0.4217
     32 O           2.7228    6.4020    4.6513 O.2     1  LIG1       -0.4156
     33 O           0.4959    2.3208    3.9556 O.2     1  LIG1       -0.4127
     34 H           1.5246    8.0483   -3.4182 H       1  LIG1        0.1171
     35 H          -0.4632    0.3691   -2.8304 H       1  LIG1        0.1165
     36 H          -1.5758    5.2809    9.1107 H       1  LIG1        0.1176
     37 H           0.0576    7.8060   -1.4319 H       1  LIG1        0.1181
     38 H           3.5896    6.6862   -3.6088 H       1  LIG1        0.1178
     39 H           2.0003    0.4848   -3.1031 H       1  LIG1        0.1177
     40 H          -1.5666    1.6089   -0.9863 H       1  LIG1        0.1170
     41 H           0.6415    6.3675    8.8641 H       1  LIG1        0.1266
     42 H          -2.4396    3.8039    7.3150 H       1  LIG1        0.1264
     43 H           0.6454    6.2136    0.3588 H       1  LIG1        0.1234
     44 H           4.1923    5.0892   -1.8275 H       1  LIG1        0.1234
     45 H           3.3601    1.8298   -1.5443 H       1  LIG1        0.1239
     46 H          -0.2221    2.9586    0.5814 H       1  LIG1        0.1230
     47 H           1.9931    5.9831    6.8324 H       1  LIG1        0.1374
     48 H          -1.0976    3.4111    5.2774 H       1  LIG1        0.1381
     49 H           1.4652    5.1142    2.3336 H       1  LIG1        0.1447
     50 H           3.3214    3.1831    3.9084 H       1  LIG1        0.0990
     51 H           4.8191    6.3833    2.8052 H       1  LIG1        0.0580
     52 H           3.8604    7.1547    1.5273 H       1  LIG1        0.0612
     53 H           5.2572    6.1466    1.1022 H       1  LIG1        0.0591
     54 H           3.7919    1.0118    2.9381 H       1  LIG1        0.0629
     55 H           4.2230    1.0437    1.2174 H       1  LIG1        0.0590
     56 H           2.5774    0.6012    1.7117 H       1  LIG1        0.0552
@<TRIPOS>BOND
     1     1     4   ar
     2     1     5   ar
     3     2     6   ar
     4     2     7   ar
     5     3     8   ar
     6     3     9   ar
     7     4    10   ar
     8     5    11   ar
     9     6    12   ar
    10     7    13   ar
    11     8    14   ar
    12     9    15   ar
    13    10    16   ar
    14    11    16   ar
    15    12    17   ar
    16    13    17   ar
    17    14    18   ar
    18    15    18   ar
    19    16    19    1
    20    17    20    1
    21    18    30    1
    22    19    20    2
    23    19    26    1
    24    20    27    1
    25    21    26    1
    26    21    27    1
    27    21    31    2
    28    22    24    1
    29    22    30   am
    30    22    32    2
    31    23    25    1
    32    23    30   am
    33    23    33    2
    34    24    25    1
    35    24    26    1
    36    25    27    1
    37    26    28    1
    38    27    29    1
    39     1    34    1
    40     2    35    1
    41     3    36    1
    42     4    37    1
    43     5    38    1
    44     6    39    1
    45     7    40    1
    46     8    41    1
    47     9    42    1
    48    10    43    1
    49    11    44    1
    50    12    45    1
    51    13    46    1
    52    14    47    1
    53    15    48    1
    54    24    49    1
    55    25    50    1
    56    28    51    1
    57    28    52    1
    58    28    53    1
    59    29    54    1
    60    29    55    1
    61    29    56    1
