@<TRIPOS>MOLECULE
AL-182/11625019
 35 37 0 0 0
SMALL
USER_CHARGES

@<TRIPOS>ATOM
      1 C           0.3501    0.6969   -1.9810 C.ar    1  LIG1       -0.1090
      2 C           1.6777    0.5579   -1.5766 C.ar    1  LIG1       -0.1033
      3 C          -0.4098    1.7730   -1.5222 C.ar    1  LIG1       -0.1049
      4 C           1.1495    7.1937   -2.2626 C.ar    1  LIG1       -0.0980
      5 C           0.8545    6.3877   -1.1630 C.ar    1  LIG1       -0.0833
      6 C           2.4745    7.3751   -2.6590 C.ar    1  LIG1       -0.1043
      7 C           2.2456    1.4949   -0.7133 C.ar    1  LIG1       -0.0786
      8 C           0.1581    2.7099   -0.6589 C.ar    1  LIG1       -0.0807
      9 C           3.2097    5.9446   -0.8561 C.ar    1  LIG1       -0.0899
     10 C           1.8846    5.7633   -0.4598 C.ar    1  LIG1       -0.0651
     11 C           3.5046    6.7506   -1.9557 C.ar    1  LIG1       -0.1150
     12 C           1.4858    2.5709   -0.2545 C.ar    1  LIG1       -0.0672
     13 C           3.1126    3.1491    1.5496 C.3     1  LIG1       -0.0156
     14 C           2.9013    3.9622    2.8197 C.3     1  LIG1       -0.0133
     15 C           1.5630    4.8860    0.7346 C.3     1  LIG1        0.0140
     16 C           4.9215    6.9451   -2.3793 C.3     1  LIG1       -0.0439
     17 N           2.0504    3.5032    0.6043 N.pl3   1  LIG1       -0.3896
     18 S           2.3331    5.5720    2.2481 S.3     1  LIG1       -0.2405
     19 H          -0.0921   -0.0329   -2.6531 H       1  LIG1        0.1084
     20 H           2.2690   -0.2799   -1.9338 H       1  LIG1        0.1210
     21 H          -1.4436    1.8811   -1.8372 H       1  LIG1        0.1204
     22 H           0.3472    7.6799   -2.8102 H       1  LIG1        0.1177
     23 H          -0.1809    6.2518   -0.8618 H       1  LIG1        0.1335
     24 H           2.6950    8.0053   -3.5165 H       1  LIG1        0.1179
     25 H           3.2810    1.3774   -0.4041 H       1  LIG1        0.1186
     26 H          -0.4435    3.5446   -0.3080 H       1  LIG1        0.1160
     27 H           4.0131    5.4572   -0.3088 H       1  LIG1        0.1205
     28 H           4.0896    3.3762    1.1041 H       1  LIG1        0.0979
     29 H           3.0951    2.0783    1.7845 H       1  LIG1        0.1077
     30 H           2.1184    3.5156    3.4411 H       1  LIG1        0.0892
     31 H           3.8166    4.0419    3.4122 H       1  LIG1        0.1068
     32 H           0.4596    4.8773    0.8750 H       1  LIG1        0.1489
     33 H           5.3570    7.8125   -1.8684 H       1  LIG1        0.0564
     34 H           5.5312    6.0624   -2.1476 H       1  LIG1        0.0530
     35 H           4.9947    7.1062   -3.4627 H       1  LIG1        0.0539
@<TRIPOS>BOND
     1     1     2   ar
     2     1     3   ar
     3     2     7   ar
     4     3     8   ar
     5     4     5   ar
     6     4     6   ar
     7     5    10   ar
     8     6    11   ar
     9     7    12   ar
    10     8    12   ar
    11     9    10   ar
    12     9    11   ar
    13    10    15    1
    14    11    16    1
    15    12    17    1
    16    13    14    1
    17    13    17    1
    18    14    18    1
    19    15    17    1
    20    15    18    1
    21     1    19    1
    22     2    20    1
    23     3    21    1
    24     4    22    1
    25     5    23    1
    26     6    24    1
    27     7    25    1
    28     8    26    1
    29     9    27    1
    30    13    28    1
    31    13    29    1
    32    14    30    1
    33    14    31    1
    34    15    32    1
    35    16    33    1
    36    16    34    1
    37    16    35    1
