@<TRIPOS>MOLECULE
AK-968/15359077
 42 43 0 0 0
SMALL
USER_CHARGES

@<TRIPOS>ATOM
      1 C           0.3201    0.7742   -2.0374 C.ar    1  LIG1       -0.1039
      2 C           1.5403    7.5298   -2.6534 C.ar    1  LIG1       -0.1050
      3 C           1.7040    0.9481   -2.0318 C.ar    1  LIG1       -0.1001
      4 C          -0.4794    1.5149   -1.1669 C.ar    1  LIG1       -0.1040
      5 C           1.3385    7.5269   -1.2733 C.ar    1  LIG1       -0.1072
      6 C           2.3704    6.5739   -3.2390 C.ar    1  LIG1       -0.1003
      7 C           2.2885    1.8627   -1.1558 C.ar    1  LIG1       -0.0944
      8 C           0.1050    2.4295   -0.2908 C.ar    1  LIG1       -0.1001
      9 C           1.9669    6.5681   -0.4786 C.ar    1  LIG1       -0.0982
     10 C           2.9987    5.6151   -2.4443 C.ar    1  LIG1       -0.0902
     11 C           1.4891    2.6034   -0.2852 C.ar    1  LIG1       -0.0713
     12 C           2.7971    5.6123   -1.0641 C.ar    1  LIG1       -0.0605
     13 C           2.4884    2.9628    2.0045 C.2     1  LIG1        0.1027
     14 C           4.6447    5.1431    4.6252 C.3     1  LIG1       -0.0663
     15 C           1.8240    4.3620    5.3552 C.3     1  LIG1       -0.0485
     16 C           4.1796    3.6989    4.7604 C.3     1  LIG1       -0.0525
     17 C           2.1228    3.5961    0.6662 C.3     1  LIG1        0.1132
     18 C           2.6931    3.5217    4.4253 C.3     1  LIG1       -0.0418
     19 N           2.4177    3.8732    3.0517 N.am    1  LIG1       -0.3501
     20 O           2.7883    1.7769    2.1303 O.2     1  LIG1       -0.4735
     21 S           3.5925    4.3998   -0.0585 S.3     1  LIG1       -0.1442
     22 H          -0.1349    0.0630   -2.7206 H       1  LIG1        0.1193
     23 H           1.0507    8.2766   -3.2717 H       1  LIG1        0.1153
     24 H           2.3266    0.3723   -2.7104 H       1  LIG1        0.1202
     25 H          -1.5570    1.3806   -1.1717 H       1  LIG1        0.1186
     26 H           0.6925    8.2714   -0.8170 H       1  LIG1        0.1183
     27 H           2.5268    6.5768   -4.3137 H       1  LIG1        0.1233
     28 H           3.3677    1.9915   -1.1583 H       1  LIG1        0.1293
     29 H          -0.5257    3.0021    0.3840 H       1  LIG1        0.1193
     30 H           1.7977    6.5821    0.5953 H       1  LIG1        0.1170
     31 H           3.6424    4.8783   -2.9189 H       1  LIG1        0.1249
     32 H           4.0740    5.8103    5.2783 H       1  LIG1        0.0326
     33 H           5.7005    5.2257    4.9024 H       1  LIG1        0.0318
     34 H           4.5373    5.4943    3.5939 H       1  LIG1        0.0293
     35 H           2.0725    5.4249    5.2703 H       1  LIG1        0.0425
     36 H           0.7600    4.2391    5.1236 H       1  LIG1        0.0472
     37 H           1.9700    4.0630    6.3990 H       1  LIG1        0.0396
     38 H           4.7827    3.0780    4.0869 H       1  LIG1        0.0607
     39 H           4.3817    3.3549    5.7825 H       1  LIG1        0.0514
     40 H           1.4185    4.4149    0.8581 H       1  LIG1        0.1447
     41 H           2.4149    2.4675    4.5391 H       1  LIG1        0.1114
     42 H           2.1598    4.8331    2.8410 H       1  LIG1        0.2994
@<TRIPOS>BOND
     1     1     3   ar
     2     1     4   ar
     3     2     5   ar
     4     2     6   ar
     5     3     7   ar
     6     4     8   ar
     7     5     9   ar
     8     6    10   ar
     9     7    11   ar
    10     8    11   ar
    11     9    12   ar
    12    10    12   ar
    13    11    17    1
    14    12    21    1
    15    13    17    1
    16    13    19   am
    17    13    20    2
    18    14    16    1
    19    15    18    1
    20    16    18    1
    21    17    21    1
    22    18    19    1
    23     1    22    1
    24     2    23    1
    25     3    24    1
    26     4    25    1
    27     5    26    1
    28     6    27    1
    29     7    28    1
    30     8    29    1
    31     9    30    1
    32    10    31    1
    33    14    32    1
    34    14    33    1
    35    14    34    1
    36    15    35    1
    37    15    36    1
    38    15    37    1
    39    16    38    1
    40    16    39    1
    41    17    40    1
    42    18    41    1
    43    19    42    1
