@<TRIPOS>MOLECULE
AK-778/43114821
 38 40 0 0 0
SMALL
USER_CHARGES

@<TRIPOS>ATOM
      1 C           0.9867    0.6218   -1.3620 C.ar    1  LIG1       -0.0932
      2 C          -0.0307    1.3509   -2.0003 C.ar    1  LIG1       -0.0908
      3 C           1.9298    1.2662   -0.5577 C.ar    1  LIG1       -0.0776
      4 C          -0.1214    2.7359   -1.8460 C.ar    1  LIG1       -0.0627
      5 C           2.5653    3.5238    4.8231 C.ar    1  LIG1       -0.0510
      6 C           0.8248    5.1626    4.5602 C.ar    1  LIG1       -0.0466
      7 C           2.6600    3.9158    6.1486 C.ar    1  LIG1       -0.0368
      8 C           0.9973    5.4812    5.8976 C.ar    1  LIG1       -0.0337
      9 C           1.6276    4.1640    4.0204 C.ar    1  LIG1       -0.0025
     10 C           1.8329    2.6390   -0.4076 C.ar    1  LIG1       -0.0157
     11 C           0.8213    3.3579   -1.0457 C.ar    1  LIG1       -0.0306
     12 C           2.0459    4.9488    0.1100 C.2     1  LIG1        0.1536
     13 C           1.4852    3.7853    2.6038 C.2     1  LIG1        0.0968
     14 C           2.6984    3.5784    0.3850 C.3     1  LIG1        0.1299
     15 C           0.5509    6.2781   -2.5432 C.3     1  LIG1       -0.0434
     16 C           2.7217    3.2678    1.8746 C.3     1  LIG1        0.0892
     17 C           0.0607    5.7351   -1.2442 C.3     1  LIG1       -0.0100
     18 N           1.8976    4.8816    6.7085 N.ar    1  LIG1       -0.3980
     19 N           0.9505    4.7185   -0.7354 N.am    1  LIG1       -0.3141
     20 O           2.4468    6.0173    0.5484 O.2     1  LIG1       -0.4307
     21 O           0.4120    3.8754    2.0045 O.2     1  LIG1       -0.4327
     22 O           4.0082    3.5930   -0.1483 O.3     1  LIG1       -0.4411
     23 H           1.0394   -0.4553   -1.4968 H       1  LIG1        0.1212
     24 H          -0.7541    0.8294   -2.6217 H       1  LIG1        0.1340
     25 H           2.7145    0.6999   -0.0680 H       1  LIG1        0.1403
     26 H          -0.9093    3.2901   -2.3435 H       1  LIG1        0.1268
     27 H           3.2066    2.7397    4.4344 H       1  LIG1        0.1381
     28 H           0.0833    5.6813    3.9618 H       1  LIG1        0.1450
     29 H           3.3748    3.4470    6.8166 H       1  LIG1        0.2033
     30 H           0.3962    6.2531    6.3664 H       1  LIG1        0.2048
     31 H           1.5408    6.7327   -2.4280 H       1  LIG1        0.0409
     32 H           0.6020    5.4892   -3.3015 H       1  LIG1        0.0509
     33 H          -0.1364    7.0520   -2.9053 H       1  LIG1        0.0410
     34 H           3.6107    3.7320    2.3141 H       1  LIG1        0.1041
     35 H           2.7788    2.1819    2.0040 H       1  LIG1        0.1204
     36 H          -0.9280    5.2827   -1.3663 H       1  LIG1        0.1108
     37 H          -0.0047    6.5273   -0.4924 H       1  LIG1        0.1127
     38 H           4.5313    4.2103    0.3918 H       1  LIG1        0.3473
@<TRIPOS>BOND
     1     1     2   ar
     2     1     3   ar
     3     2     4   ar
     4     3    10   ar
     5     4    11   ar
     6     5     7   ar
     7     5     9   ar
     8     6     8   ar
     9     6     9   ar
    10     7    18   ar
    11     8    18   ar
    12     9    13    1
    13    10    11   ar
    14    10    14    1
    15    11    19    1
    16    12    14    1
    17    12    19   am
    18    12    20    2
    19    13    16    1
    20    13    21    2
    21    14    16    1
    22    14    22    1
    23    15    17    1
    24    17    19    1
    25     1    23    1
    26     2    24    1
    27     3    25    1
    28     4    26    1
    29     5    27    1
    30     6    28    1
    31     7    29    1
    32     8    30    1
    33    15    31    1
    34    15    32    1
    35    15    33    1
    36    16    34    1
    37    16    35    1
    38    17    36    1
    39    17    37    1
    40    22    38    1
