@<TRIPOS>MOLECULE
AG-690/11629097
 41 44 0 0 0
SMALL
USER_CHARGES

@<TRIPOS>ATOM
      1 C           2.4361    7.6567   -2.4364 C.ar    1  LIG1       -0.1015
      2 C           1.6993    3.8278    5.8418 C.ar    1  LIG1       -0.0854
      3 C           2.0536    5.1878    5.7431 C.ar    1  LIG1       -0.0854
      4 C           1.1305    7.3942   -2.0216 C.ar    1  LIG1       -0.0955
      5 C           3.4654    6.7781   -2.0983 C.ar    1  LIG1       -0.0987
      6 C           1.8794    0.7069   -1.6548 C.ar    1  LIG1       -0.0945
      7 C           1.4608    3.0616    4.6974 C.ar    1  LIG1       -0.0681
      8 C           2.1775    5.8104    4.4979 C.ar    1  LIG1       -0.0681
      9 C           0.8542    6.2530   -1.2687 C.ar    1  LIG1       -0.0808
     10 C           3.1891    5.6369   -1.3452 C.ar    1  LIG1       -0.0841
     11 C           2.2206    1.9288   -1.0748 C.ar    1  LIG1       -0.0807
     12 C           0.5413    0.4036   -1.9059 C.ar    1  LIG1       -0.1000
     13 C          -0.1146    2.5439   -0.9969 C.ar    1  LIG1       -0.0826
     14 C           1.5865    3.6906    3.4739 C.ar    1  LIG1        0.0207
     15 C           1.9387    5.0408    3.3759 C.ar    1  LIG1        0.0207
     16 C           1.8835    5.3745   -0.9304 C.ar    1  LIG1       -0.0476
     17 C           1.2236    2.8472   -0.7458 C.ar    1  LIG1       -0.0467
     18 C          -0.4557    1.3220   -1.5769 C.ar    1  LIG1       -0.1102
     19 C           1.3887    3.1095    2.1376 C.2     1  LIG1        0.1268
     20 C           2.0023    5.4578    1.9671 C.2     1  LIG1        0.1267
     21 C           1.6539    4.2329    1.2032 C.2     1  LIG1        0.1102
     22 C           1.5884    4.1538   -0.1249 C.2     1  LIG1       -0.0108
     23 C          -1.8861    0.9978   -1.8468 C.3     1  LIG1       -0.0424
     24 O           1.0793    1.9685    1.8736 O.2     1  LIG1       -0.4299
     25 O           2.2777    6.5576    1.5404 O.2     1  LIG1       -0.4302
     26 H           2.6512    8.5446   -3.0238 H       1  LIG1        0.1214
     27 H           1.6105    3.3698    6.8236 H       1  LIG1        0.1354
     28 H           2.2331    5.7594    6.6501 H       1  LIG1        0.1354
     29 H           0.3288    8.0776   -2.2859 H       1  LIG1        0.1214
     30 H           4.4819    6.9818   -2.4221 H       1  LIG1        0.1201
     31 H           2.6559   -0.0079   -1.9111 H       1  LIG1        0.1226
     32 H           1.1879    2.0157    4.7778 H       1  LIG1        0.1426
     33 H           2.4507    6.8569    4.4262 H       1  LIG1        0.1426
     34 H          -0.1686    6.0619   -0.9525 H       1  LIG1        0.1279
     35 H           4.0021    4.9617   -1.0895 H       1  LIG1        0.1264
     36 H           3.2680    2.1505   -0.8850 H       1  LIG1        0.1267
     37 H           0.2844   -0.5505   -2.3585 H       1  LIG1        0.1221
     38 H          -0.8971    3.2559   -0.7424 H       1  LIG1        0.1272
     39 H          -2.3331    0.4927   -0.9816 H       1  LIG1        0.0575
     40 H          -2.4673    1.9047   -2.0586 H       1  LIG1        0.0550
     41 H          -1.9881    0.3436   -2.7225 H       1  LIG1        0.0536
@<TRIPOS>BOND
     1     1     4   ar
     2     1     5   ar
     3     2     3   ar
     4     2     7   ar
     5     3     8   ar
     6     4     9   ar
     7     5    10   ar
     8     6    11   ar
     9     6    12   ar
    10     7    14   ar
    11     8    15   ar
    12     9    16   ar
    13    10    16   ar
    14    11    17   ar
    15    12    18   ar
    16    13    17   ar
    17    13    18   ar
    18    14    15   ar
    19    14    19    1
    20    15    20    1
    21    16    22    1
    22    17    22    1
    23    18    23    1
    24    19    21    1
    25    19    24    2
    26    20    21    1
    27    20    25    2
    28    21    22    2
    29     1    26    1
    30     2    27    1
    31     3    28    1
    32     4    29    1
    33     5    30    1
    34     6    31    1
    35     7    32    1
    36     8    33    1
    37     9    34    1
    38    10    35    1
    39    11    36    1
    40    12    37    1
    41    13    38    1
    42    23    39    1
    43    23    40    1
    44    23    41    1
