@<TRIPOS>MOLECULE
AK-830/13217121
 38 41 0 0 0
SMALL
USER_CHARGES

@<TRIPOS>ATOM
      1 C           0.7273    1.1956   -2.5938 C.ar    1  LIG1       -0.1089
      2 C           2.2093    6.8314   -2.7302 C.ar    1  LIG1       -0.1005
      3 C           2.0105    1.2541   -2.0502 C.ar    1  LIG1       -0.1036
      4 C          -0.3247    1.8691   -1.9726 C.ar    1  LIG1       -0.1042
      5 C           0.9704    6.7944   -2.0905 C.ar    1  LIG1       -0.0938
      6 C           3.3056    6.1794   -2.1655 C.ar    1  LIG1       -0.0995
      7 C           1.6888    3.7780    5.9082 C.ar    1  LIG1       -0.0930
      8 C           2.0379    5.1209    5.7691 C.ar    1  LIG1       -0.0923
      9 C           2.2419    1.9858   -0.8855 C.ar    1  LIG1       -0.0894
     10 C          -0.0932    2.6007   -0.8078 C.ar    1  LIG1       -0.0903
     11 C           0.8277    6.1056   -0.8860 C.ar    1  LIG1       -0.0752
     12 C           3.1629    5.4906   -0.9611 C.ar    1  LIG1       -0.0834
     13 C           1.4450    2.9972    4.7789 C.ar    1  LIG1       -0.0683
     14 C           2.1451    5.6898    4.4990 C.ar    1  LIG1       -0.0646
     15 C           1.1901    2.6591   -0.2643 C.ar    1  LIG1       -0.0650
     16 C           1.9240    5.4537   -0.3212 C.ar    1  LIG1       -0.0371
     17 C           1.5534    3.5691    3.5079 C.ar    1  LIG1        0.0274
     18 C           1.9040    4.9189    3.3568 C.ar    1  LIG1       -0.0351
     19 C           1.4314    3.4241    0.9534 C.ar    1  LIG1        0.0370
     20 C           1.7754    4.7330    0.9389 C.ar    1  LIG1       -0.0133
     21 C           1.2984    2.7537    2.2937 C.ar    1  LIG1        0.0958
     22 N           2.0075    5.4722    2.0774 N.ar    1  LIG1       -0.3383
     23 O           0.9891    1.5712    2.3868 O.2     1  LIG1       -0.4766
     24 H           0.5473    0.6270   -3.5014 H       1  LIG1        0.1117
     25 H           2.3201    7.3667   -3.6687 H       1  LIG1        0.1236
     26 H           2.8299    0.7307   -2.5344 H       1  LIG1        0.1147
     27 H          -1.3236    1.8246   -2.3963 H       1  LIG1        0.1135
     28 H           0.1163    7.3011   -2.5305 H       1  LIG1        0.1230
     29 H           4.2700    6.2071   -2.6642 H       1  LIG1        0.1205
     30 H           1.6067    3.3392    6.8983 H       1  LIG1        0.1178
     31 H           2.2270    5.7262    6.6510 H       1  LIG1        0.1361
     32 H           3.2477    2.0218   -0.4737 H       1  LIG1        0.1202
     33 H          -0.9234    3.1203   -0.3353 H       1  LIG1        0.1173
     34 H          -0.1444    6.0858   -0.3989 H       1  LIG1        0.1378
     35 H           4.0269    4.9874   -0.5335 H       1  LIG1        0.1235
     36 H           1.1739    1.9533    4.9078 H       1  LIG1        0.1480
     37 H           2.4176    6.7384    4.4088 H       1  LIG1        0.1249
     38 H           2.2613    6.4474    1.9817 H       1  LIG1        0.3398
@<TRIPOS>BOND
     1     1     3   ar
     2     1     4   ar
     3     2     5   ar
     4     2     6   ar
     5     3     9   ar
     6     4    10   ar
     7     5    11   ar
     8     6    12   ar
     9     7     8   ar
    10     7    13   ar
    11     8    14   ar
    12     9    15   ar
    13    10    15   ar
    14    11    16   ar
    15    12    16   ar
    16    13    17   ar
    17    14    18   ar
    18    15    19    1
    19    16    20    1
    20    17    18   ar
    21    17    21   ar
    22    18    22   ar
    23    19    20   ar
    24    19    21   ar
    25    20    22   ar
    26    21    23    2
    27     1    24    1
    28     2    25    1
    29     3    26    1
    30     4    27    1
    31     5    28    1
    32     6    29    1
    33     7    30    1
    34     8    31    1
    35     9    32    1
    36    10    33    1
    37    11    34    1
    38    12    35    1
    39    13    36    1
    40    14    37    1
    41    22    38    1
