@<TRIPOS>MOLECULE
AG-205/37007413
 41 44 0 0 0
SMALL
USER_CHARGES

@<TRIPOS>ATOM
      1 C           1.9426    7.0689   -2.8172 C.ar    1  LIG1       -0.0956
      2 C           1.0399    5.1297    5.7078 C.ar    1  LIG1       -0.0889
      3 C           1.9859    4.1233    5.8866 C.ar    1  LIG1       -0.0829
      4 C           0.8144    6.4889   -2.2374 C.ar    1  LIG1       -0.0882
      5 C           3.1615    7.0529   -2.1392 C.ar    1  LIG1       -0.0882
      6 C          -0.6083    1.5114   -1.7320 C.ar    1  LIG1       -0.0774
      7 C           0.8358    5.6774    4.4421 C.ar    1  LIG1       -0.0624
      8 C           2.7270    3.6613    4.7983 C.ar    1  LIG1       -0.0501
      9 C           0.9049    5.8930   -0.9794 C.ar    1  LIG1       -0.0615
     10 C           3.2521    6.4570   -0.8813 C.ar    1  LIG1       -0.0615
     11 C          -0.4674    2.1362   -0.4930 C.ar    1  LIG1       -0.0376
     12 C           0.5071    0.9694   -2.3706 C.ar    1  LIG1       -0.0376
     13 C           1.5826    5.2110    3.3535 C.ar    1  LIG1        0.0582
     14 C           1.9044    1.6773   -0.5312 C.ar    1  LIG1        0.0165
     15 C           2.5319    4.2019    3.5219 C.ar    1  LIG1       -0.0086
     16 C           2.1237    5.8771   -0.3014 C.ar    1  LIG1       -0.0146
     17 C           0.7889    2.2192    0.1074 C.ar    1  LIG1        0.0834
     18 C           1.7634    1.0524   -1.7703 C.ar    1  LIG1        0.0834
     19 C           1.3968    5.7989    2.0092 C.ar    1  LIG1        0.1567
     20 C           3.1006    4.2062    1.2752 C.ar    1  LIG1        0.1038
     21 C           3.2588    1.7664    0.1162 C.3     1  LIG1        0.0598
     22 N           3.2773    3.6945    2.4521 N.ar    1  LIG1       -0.3542
     23 N           2.2169    5.2631    0.9944 N.ar    1  LIG1       -0.2291
     24 O           0.5971    6.7232    1.8809 O.2     1  LIG1       -0.4493
     25 F           0.9143    2.8218    1.2980 F       1  LIG1       -0.2508
     26 F           2.8293    0.5290   -2.3918 F       1  LIG1       -0.2508
     27 S           3.9766    3.4137   -0.0323 S.3     1  LIG1       -0.0471
     28 H           1.8727    7.5323   -3.7971 H       1  LIG1        0.1283
     29 H           0.4622    5.4891    6.5543 H       1  LIG1        0.1238
     30 H           2.1458    3.6953    6.8721 H       1  LIG1        0.1377
     31 H          -0.1346    6.5004   -2.7654 H       1  LIG1        0.1286
     32 H           4.0402    7.5037   -2.5914 H       1  LIG1        0.1286
     33 H          -1.5863    1.4475   -2.1999 H       1  LIG1        0.1501
     34 H           0.0982    6.4664    4.3246 H       1  LIG1        0.1462
     35 H           3.4586    2.8715    4.9522 H       1  LIG1        0.1438
     36 H           0.0189    5.4441   -0.5375 H       1  LIG1        0.1353
     37 H           4.2073    6.4505   -0.3622 H       1  LIG1        0.1354
     38 H          -1.3357    2.5581    0.0045 H       1  LIG1        0.1391
     39 H           0.3975    0.4836   -3.3358 H       1  LIG1        0.1390
     40 H           3.1898    1.5049    1.1779 H       1  LIG1        0.1193
     41 H           3.9426    1.0421   -0.3401 H       1  LIG1        0.1192
@<TRIPOS>BOND
     1     1     4   ar
     2     1     5   ar
     3     2     3   ar
     4     2     7   ar
     5     3     8   ar
     6     4     9   ar
     7     5    10   ar
     8     6    11   ar
     9     6    12   ar
    10     7    13   ar
    11     8    15   ar
    12     9    16   ar
    13    10    16   ar
    14    11    17   ar
    15    12    18   ar
    16    13    15   ar
    17    13    19   ar
    18    14    17   ar
    19    14    18   ar
    20    14    21    1
    21    15    22   ar
    22    16    23    1
    23    17    25    1
    24    18    26    1
    25    19    23   ar
    26    19    24    2
    27    20    22   ar
    28    20    23   ar
    29    20    27    1
    30    21    27    1
    31     1    28    1
    32     2    29    1
    33     3    30    1
    34     4    31    1
    35     5    32    1
    36     6    33    1
    37     7    34    1
    38     8    35    1
    39     9    36    1
    40    10    37    1
    41    11    38    1
    42    12    39    1
    43    21    40    1
    44    21    41    1
