@<TRIPOS>MOLECULE
583728
 41 44 0 0 0
SMALL
USER_CHARGES

@<TRIPOS>ATOM
      1 O         -11.5658  208.0098  109.3544 O.2     1  LIG1       -0.2714
      2 C         -12.5039  207.6617  110.0756 C.2     1  LIG1        0.2492
      3 N         -13.7813  207.4066  109.6983 N.am    1  LIG1       -0.2807
      4 C         -14.5348  207.0684  110.7973 C.ar    1  LIG1        0.0409
      5 C         -15.9645  206.7088  110.8819 C.ar    1  LIG1       -0.0401
      6 C         -16.5326  206.2921  112.1957 C.ar    1  LIG1       -0.0603
      7 C         -15.6760  206.2646  113.4149 C.ar    1  LIG1       -0.0615
      8 C         -14.2440  206.6693  113.3289 C.ar    1  LIG1       -0.0522
      9 C         -13.6989  207.0692  111.9961 C.ar    1  LIG1        0.0097
     10 C         -12.3839  207.4946  111.5819 C.2     1  LIG1        0.0603
     11 C         -11.2846  207.7258  112.3202 C.2     1  LIG1        0.0060
     12 N         -10.0621  208.3922  111.8071 N.pl3   1  LIG1       -0.3202
     13 C          -9.0635  208.9129  112.5538 C.ar    1  LIG1        0.0299
     14 C          -9.2068  209.4108  113.9709 C.ar    1  LIG1       -0.0390
     15 C          -8.0520  209.9298  114.6793 C.ar    1  LIG1       -0.0377
     16 C          -6.7467  210.0189  113.9825 C.ar    1  LIG1        0.0548
     17 C          -6.5848  209.5238  112.5972 C.ar    1  LIG1       -0.0377
     18 C          -7.7491  208.9724  111.8813 C.ar    1  LIG1       -0.0390
     19 S          -5.3664  210.6706  114.8853 S.O2    1  LIG1       -0.1624
     20 O          -4.2368  210.8769  114.0243 O.2     1  LIG1       -0.4760
     21 O          -5.8822  211.8046  115.5831 O.2     1  LIG1       -0.4760
     22 N          -4.9175  209.5131  116.0082 N.pl3   1  LIG1       -0.2367
     23 C          -4.3141  208.1866  115.6381 C.ar    1  LIG1        0.1732
     24 S          -4.5713  206.7675  116.5373 S.2     1  LIG1       -0.0596
     25 C          -3.6747  205.8049  115.4661 C.ar    1  LIG1       -0.0029
     26 C          -3.0987  206.6103  114.4687 C.ar    1  LIG1        0.0364
     27 N          -3.4907  207.9244  114.5789 N.ar    1  LIG1       -0.2330
     28 H         -14.1344  207.4585  108.7320 H       1  LIG1        0.1560
     29 H         -16.6024  206.7480  109.9867 H       1  LIG1        0.0642
     30 H         -17.5916  206.0028  112.2657 H       1  LIG1        0.0623
     31 H         -16.1005  205.9456  114.3782 H       1  LIG1        0.0623
     32 H         -13.6046  206.6736  114.2240 H       1  LIG1        0.0630
     33 H         -11.2917  207.4004  113.3710 H       1  LIG1        0.0798
     34 H          -9.9655  208.4649  110.7842 H       1  LIG1        0.1522
     35 H         -10.1879  209.3803  114.4674 H       1  LIG1        0.0643
     36 H          -8.1444  210.2549  115.7261 H       1  LIG1        0.0643
     37 H          -5.6019  209.5671  112.1051 H       1  LIG1        0.0643
     38 H          -7.6400  208.6065  110.8497 H       1  LIG1        0.0643
     39 H          -5.0625  209.7209  117.0065 H       1  LIG1        0.1728
     40 H          -3.5612  204.7134  115.5410 H       1  LIG1        0.0718
     41 H          -2.4159  206.2346  113.6924 H       1  LIG1        0.0846
@<TRIPOS>BOND
     1     1     2    2
     2     2     3   am
     3     2    10    1
     4     3     4    1
     5     3    28    1
     6     4     5   ar
     7     4     9   ar
     8     5     6   ar
     9     5    29    1
    10     6     7   ar
    11     6    30    1
    12     7     8   ar
    13     7    31    1
    14     8     9   ar
    15     8    32    1
    16     9    10    1
    17    10    11    2
    18    11    12    1
    19    11    33    1
    20    12    13    1
    21    12    34    1
    22    13    14   ar
    23    13    18   ar
    24    14    15   ar
    25    14    35    1
    26    15    16   ar
    27    15    36    1
    28    16    17   ar
    29    16    19    1
    30    17    18   ar
    31    17    37    1
    32    18    38    1
    33    19    20    2
    34    19    21    2
    35    19    22    1
    36    22    23    1
    37    22    39    1
    38    23    24   ar
    39    23    27   ar
    40    24    25   ar
    41    25    26   ar
    42    25    40    1
    43    26    27   ar
    44    26    41    1
