@<TRIPOS>MOLECULE
585494
 46 50 0 0 0
SMALL
USER_CHARGES

@<TRIPOS>ATOM
      1 O         -11.2220  207.9760  109.2120 O.2     1  LIG1       -0.2670
      2 C         -12.1710  207.5020  109.8420 C.2     1  LIG1        0.2754
      3 N         -13.3600  207.1380  109.3200 N.am    1  LIG1       -0.2090
      4 C         -14.2170  206.7500  110.3000 C.ar    1  LIG1        0.0763
      5 C         -15.6380  206.3600  110.1900 C.ar    1  LIG1       -0.0334
      6 C         -16.3860  205.9670  111.3900 C.ar    1  LIG1       -0.0331
      7 C         -15.7410  206.0270  112.6900 C.ar    1  LIG1        0.0783
      8 N         -16.2320  205.7140  113.9500 N.ar    1  LIG1       -0.2484
      9 C         -15.3040  205.8370  114.9320 C.ar    1  LIG1        0.0653
     10 S         -13.8140  206.4530  114.4280 S.2     1  LIG1       -0.0749
     11 C         -14.2920  206.4680  112.8160 C.ar    1  LIG1        0.0488
     12 C         -13.5570  206.8060  111.5860 C.ar    1  LIG1        0.0268
     13 C         -12.2030  207.2550  111.3270 C.2     1  LIG1        0.0468
     14 C         -11.1760  207.4750  112.1700 C.3     1  LIG1        0.0399
     15 N         -10.1070  208.4390  111.7920 N.pl3   1  LIG1       -0.3400
     16 C          -9.0990  208.8850  112.5560 C.ar    1  LIG1        0.0263
     17 C          -9.2420  209.2080  114.0130 C.ar    1  LIG1       -0.0393
     18 C          -8.0670  209.5940  114.7840 C.ar    1  LIG1       -0.0377
     19 C          -6.7650  209.7680  114.0980 C.ar    1  LIG1        0.0548
     20 C          -6.6070  209.4480  112.6660 C.ar    1  LIG1       -0.0377
     21 C          -7.7830  209.0220  111.8860 C.ar    1  LIG1       -0.0393
     22 S          -5.4220  210.3800  115.0540 S.O2    1  LIG1       -0.1628
     23 O          -4.2100  210.2890  114.2980 O.2     1  LIG1       -0.4760
     24 O          -5.8540  211.6490  115.5540 O.2     1  LIG1       -0.4760
     25 N          -5.2170  209.3650  116.3500 N.pl3   1  LIG1       -0.2425
     26 C          -3.5620  206.0480  115.3440 C.ar    1  LIG1       -0.0572
     27 C          -3.8620  205.2520  116.5560 C.ar    1  LIG1       -0.0437
     28 C          -4.7090  205.8750  117.5970 C.ar    1  LIG1        0.0291
     29 N          -5.1930  207.2180  117.4430 N.ar    1  LIG1       -0.2402
     30 C          -4.8230  208.0270  116.3130 C.ar    1  LIG1        0.1335
     31 C          -4.0220  207.4320  115.1920 C.ar    1  LIG1       -0.0204
     32 H         -16.1352  206.3642  109.2088 H       1  LIG1        0.0646
     33 H         -17.4293  205.6289  111.3053 H       1  LIG1        0.0646
     34 H         -15.5063  205.5571  115.9764 H       1  LIG1        0.0920
     35 H         -10.7013  206.5042  112.3754 H       1  LIG1        0.0519
     36 H         -11.6007  207.7979  113.1320 H       1  LIG1        0.0519
     37 H         -10.1459  208.8069  110.8307 H       1  LIG1        0.1468
     38 H         -10.2281  209.1540  114.4974 H       1  LIG1        0.0643
     39 H          -8.1462  209.7553  115.8692 H       1  LIG1        0.0643
     40 H          -5.6208  209.5267  112.1852 H       1  LIG1        0.0643
     41 H          -7.6849  208.8067  110.8117 H       1  LIG1        0.0643
     42 H          -5.4001  209.7651  117.2813 H       1  LIG1        0.1722
     43 H          -2.9770  205.5877  114.5341 H       1  LIG1        0.0624
     44 H          -3.4685  204.2321  116.6783 H       1  LIG1        0.0639
     45 H          -4.9709  205.3028  118.4992 H       1  LIG1        0.0840
     46 H          -3.7882  208.0137  114.2881 H       1  LIG1        0.0660
@<TRIPOS>BOND
     1     1     2    2
     2     2     3    1
     3     2    13    1
     4     3     4    2
     5     4     5   ar
     6     4    12   ar
     7     5     6   ar
     8     5    32    1
     9     6     7   ar
    10     6    33    1
    11     7     8   ar
    12     7    11   ar
    13     8     9   ar
    14     9    10   ar
    15     9    34    1
    16    10    11   ar
    17    11    12   ar
    18    12    13    2
    19    13    14    1
    20    14    15    1
    21    14    35    1
    22    14    36    1
    23    15    16    1
    24    15    37    1
    25    16    17   ar
    26    16    21   ar
    27    17    18   ar
    28    17    38    1
    29    18    19   ar
    30    18    39    1
    31    19    20   ar
    32    19    22    1
    33    20    21   ar
    34    20    40    1
    35    21    41    1
    36    22    23    2
    37    22    24    2
    38    22    25    1
    39    25    30    1
    40    25    42    1
    41    26    27   ar
    42    26    31   ar
    43    26    43    1
    44    27    28   ar
    45    27    44    1
    46    28    29   ar
    47    28    45    1
    48    29    30   ar
    49    30    31   ar
    50    31    46    1
