# Name:		585494
# Created and modified by SHAFTS on Wed Feb  8 04:51:34 2012

# 

@<TRIPOS>MOLECULE
585494
   46    50     0
SMALL
USER_CHARGE


@<TRIPOS>ATOM
      1 O1        -11.2220  207.9760  109.2120 O.2       1 <1>        -0.2670
      2 C1        -12.1710  207.5020  109.8420 C.2       1 <1>         0.2754
      3 N1        -13.3600  207.1380  109.3200 N.2       1 <1>        -0.2090
      4 C2        -14.2170  206.7500  110.3000 C.ar      1 <1>         0.0763
      5 C3        -15.6380  206.3600  110.1900 C.ar      1 <1>        -0.0334
      6 C4        -16.3860  205.9670  111.3900 C.ar      1 <1>        -0.0331
      7 C5        -15.7410  206.0270  112.6900 C.ar      1 <1>         0.0783
      8 N2        -16.2320  205.7140  113.9500 N.2       1 <1>        -0.2484
      9 C6        -15.3040  205.8370  114.9320 C.2       1 <1>         0.0653
     10 S1        -13.8140  206.4530  114.4280 S.3       1 <1>        -0.0749
     11 C7        -14.2920  206.4680  112.8160 C.ar      1 <1>         0.0488
     12 C8        -13.5570  206.8060  111.5860 C.ar      1 <1>         0.0268
     13 C9        -12.2030  207.2550  111.3270 C.2       1 <1>         0.0468
     14 C10       -11.1760  207.4750  112.1700 C.3       1 <1>         0.0399
     15 N3        -10.1070  208.4390  111.7920 N.pl3     1 <1>        -0.3400
     16 C11        -9.0990  208.8850  112.5560 C.ar      1 <1>         0.0263
     17 C12        -9.2420  209.2080  114.0130 C.ar      1 <1>        -0.0393
     18 C13        -8.0670  209.5940  114.7840 C.ar      1 <1>        -0.0377
     19 C14        -6.7650  209.7680  114.0980 C.ar      1 <1>         0.0548
     20 C15        -6.6070  209.4480  112.6660 C.ar      1 <1>        -0.0377
     21 C16        -7.7830  209.0220  111.8860 C.ar      1 <1>        -0.0393
     22 S2         -5.4220  210.3800  115.0540 S.o2      1 <1>        -0.1628
     23 O2         -4.2100  210.2890  114.2980 O.2       1 <1>        -0.4760
     24 O3         -5.8540  211.6490  115.5540 O.2       1 <1>        -0.4760
     25 N4         -5.2170  209.3650  116.3500 N.pl3     1 <1>        -0.2425
     26 C17        -3.5620  206.0480  115.3440 C.ar      1 <1>        -0.0572
     27 C18        -3.8620  205.2520  116.5560 C.ar      1 <1>        -0.0437
     28 C19        -4.7090  205.8750  117.5970 C.ar      1 <1>         0.0291
     29 N5         -5.1930  207.2180  117.4430 N.ar      1 <1>        -0.2402
     30 C20        -4.8230  208.0270  116.3130 C.ar      1 <1>         0.1335
     31 C21        -4.0220  207.4320  115.1920 C.ar      1 <1>        -0.0204
     32 H1        -16.1352  206.3642  109.2088 H         1 <1>         0.0646
     33 H2        -17.4293  205.6289  111.3053 H         1 <1>         0.0646
     34 H3        -15.5063  205.5571  115.9764 H         1 <1>         0.0920
     35 H4        -10.7013  206.5042  112.3754 H         1 <1>         0.0519
     36 H5        -11.6007  207.7979  113.1320 H         1 <1>         0.0519
     37 H6        -10.1459  208.8069  110.8307 H         1 <1>         0.1468
     38 H7        -10.2281  209.1540  114.4974 H         1 <1>         0.0643
     39 H8         -8.1462  209.7553  115.8692 H         1 <1>         0.0643
     40 H9         -5.6208  209.5267  112.1852 H         1 <1>         0.0643
     41 H10        -7.6849  208.8067  110.8117 H         1 <1>         0.0643
     42 H11        -5.4001  209.7651  117.2813 H         1 <1>         0.1722
     43 H12        -2.9770  205.5877  114.5341 H         1 <1>         0.0624
     44 H13        -3.4685  204.2321  116.6783 H         1 <1>         0.0639
     45 H14        -4.9709  205.3028  118.4992 H         1 <1>         0.0840
     46 H15        -3.7882  208.0137  114.2881 H         1 <1>         0.0660
@<TRIPOS>BOND
     1    1    2 2
     2    2    3 1
     3    2   13 1
     4    3    4 2
     5    4    5 ar
     6    4   12 ar
     7    5    6 ar
     8    5   32 1
     9    6    7 ar
    10    6   33 1
    11    7    8 1
    12    7   11 ar
    13    8    9 2
    14    9   10 1
    15    9   34 1
    16   10   11 1
    17   11   12 ar
    18   12   13 2
    19   13   14 1
    20   14   15 1
    21   14   35 1
    22   14   36 1
    23   15   16 1
    24   15   37 1
    25   16   17 ar
    26   16   21 ar
    27   17   18 ar
    28   17   38 1
    29   18   19 ar
    30   18   39 1
    31   19   20 ar
    32   19   22 1
    33   20   21 ar
    34   20   40 1
    35   21   41 1
    36   22   23 2
    37   22   24 2
    38   22   25 1
    39   25   30 1
    40   25   42 1
    41   26   27 ar
    42   26   31 ar
    43   26   43 1
    44   27   28 ar
    45   27   44 1
    46   28   29 ar
    47   28   45 1
    48   29   30 ar
    49   30   31 ar
    50   31   46 1
@<TRIPOS>Similarity
1.4045
@<TRIPOS>ShapeSim
1.0000
@<TRIPOS>PharmSim
0.4045
# END
# Name:		583728
# Created and modified by SHAFTS on Wed Feb  8 04:51:34 2012

# 

@<TRIPOS>MOLECULE
583728
   41    44     0
SMALL
USER_CHARGE


@<TRIPOS>ATOM
      1 O1        -11.5658  208.0098  109.3544 O.2       1 <1>        -0.2714
      2 C1        -12.5039  207.6617  110.0756 C.2       1 <1>         0.2492
      3 N1        -13.7813  207.4066  109.6983 N.am      1 <1>        -0.2807
      4 C2        -14.5348  207.0684  110.7973 C.ar      1 <1>         0.0409
      5 C3        -15.9645  206.7088  110.8819 C.ar      1 <1>        -0.0401
      6 C4        -16.5326  206.2921  112.1957 C.ar      1 <1>        -0.0603
      7 C5        -15.6760  206.2646  113.4149 C.ar      1 <1>        -0.0615
      8 C6        -14.2440  206.6693  113.3289 C.ar      1 <1>        -0.0522
      9 C7        -13.6989  207.0692  111.9961 C.ar      1 <1>         0.0097
     10 C8        -12.3839  207.4946  111.5819 C.2       1 <1>         0.0603
     11 C9        -11.2846  207.7258  112.3202 C.2       1 <1>         0.0060
     12 N2        -10.0621  208.3922  111.8071 N.pl3     1 <1>        -0.3202
     13 C10        -9.0635  208.9129  112.5538 C.ar      1 <1>         0.0299
     14 C11        -9.2068  209.4108  113.9709 C.ar      1 <1>        -0.0390
     15 C12        -8.0520  209.9298  114.6793 C.ar      1 <1>        -0.0377
     16 C13        -6.7467  210.0189  113.9825 C.ar      1 <1>         0.0548
     17 C14        -6.5848  209.5238  112.5972 C.ar      1 <1>        -0.0377
     18 C15        -7.7491  208.9724  111.8813 C.ar      1 <1>        -0.0390
     19 S1         -5.3664  210.6706  114.8853 S.o2      1 <1>        -0.1624
     20 O2         -4.2368  210.8769  114.0243 O.2       1 <1>        -0.4760
     21 O3         -5.8822  211.8046  115.5831 O.2       1 <1>        -0.4760
     22 N3         -4.9175  209.5131  116.0082 N.pl3     1 <1>        -0.2367
     23 C16        -4.3141  208.1866  115.6381 C.2       1 <1>         0.1732
     24 S2         -4.5713  206.7675  116.5373 S.3       1 <1>        -0.0596
     25 C17        -3.6747  205.8049  115.4661 C.2       1 <1>        -0.0029
     26 C18        -3.0987  206.6103  114.4687 C.2       1 <1>         0.0364
     27 N4         -3.4907  207.9244  114.5789 N.2       1 <1>        -0.2330
     28 H1        -14.1344  207.4585  108.7320 H         1 <1>         0.1560
     29 H2        -16.6024  206.7480  109.9867 H         1 <1>         0.0642
     30 H3        -17.5916  206.0028  112.2657 H         1 <1>         0.0623
     31 H4        -16.1005  205.9456  114.3782 H         1 <1>         0.0623
     32 H5        -13.6046  206.6736  114.2240 H         1 <1>         0.0630
     33 H6        -11.2917  207.4004  113.3710 H         1 <1>         0.0798
     34 H7         -9.9655  208.4649  110.7842 H         1 <1>         0.1522
     35 H8        -10.1879  209.3803  114.4674 H         1 <1>         0.0643
     36 H9         -8.1444  210.2549  115.7261 H         1 <1>         0.0643
     37 H10        -5.6019  209.5671  112.1051 H         1 <1>         0.0643
     38 H11        -7.6400  208.6065  110.8497 H         1 <1>         0.0643
     39 H12        -5.0625  209.7209  117.0065 H         1 <1>         0.1728
     40 H13        -3.5612  204.7134  115.5410 H         1 <1>         0.0718
     41 H14        -2.4159  206.2346  113.6924 H         1 <1>         0.0846
@<TRIPOS>BOND
     1    1    2 2
     2    2    3 am
     3    2   10 1
     4    3    4 1
     5    3   28 1
     6    4    5 ar
     7    4    9 ar
     8    5    6 ar
     9    5   29 1
    10    6    7 ar
    11    6   30 1
    12    7    8 ar
    13    7   31 1
    14    8    9 ar
    15    8   32 1
    16    9   10 1
    17   10   11 2
    18   11   12 1
    19   11   33 1
    20   12   13 1
    21   12   34 1
    22   13   14 ar
    23   13   18 ar
    24   14   15 ar
    25   14   35 1
    26   15   16 ar
    27   15   36 1
    28   16   17 ar
    29   16   19 1
    30   17   18 ar
    31   17   37 1
    32   18   38 1
    33   19   20 2
    34   19   21 2
    35   19   22 1
    36   22   23 1
    37   22   39 1
    38   23   24 1
    39   23   27 2
    40   24   25 1
    41   25   26 2
    42   25   40 1
    43   26   27 1
    44   26   41 1
@<TRIPOS>Similarity
1.3203
@<TRIPOS>ShapeSim
0.9052
@<TRIPOS>PharmSim
0.4151
# END
