@<TRIPOS>MOLECULE
http://www.rcsb.org/pdb/files/1fvv.pdb.gz
 72 76 0 0 0
SMALL
GASTEIGER
****
Jmol version 13.0.9  2012-11-23 13:17 EXTRACT: ({8960:8990})
@<TRIPOS>ATOM
      1 O         -11.2220  207.9760  109.2120 O.3     1  LIG1       -0.3771
      2 C         -12.1710  207.5020  109.8420 C.3     1  LIG1        0.1107
      3 N         -13.3600  207.1380  109.3200 N.3     1  LIG1       -0.2885
      4 C         -14.2170  206.7500  110.3000 C.3     1  LIG1        0.0142
      5 C         -15.6380  206.3600  110.1900 C.3     1  LIG1       -0.0357
      6 C         -16.3860  205.9670  111.3900 C.3     1  LIG1       -0.0351
      7 C         -15.7410  206.0270  112.6900 C.3     1  LIG1        0.0206
      8 N         -16.2320  205.7140  113.9500 N.3     1  LIG1       -0.3034
      9 C         -15.3040  205.8370  114.9320 C.3     1  LIG1        0.0433
     10 S         -13.8140  206.4530  114.4280 S.3     1  LIG1       -0.1402
     11 C         -14.2920  206.4680  112.8160 C.3     1  LIG1        0.0265
     12 C         -13.5570  206.8060  111.5860 C.3     1  LIG1       -0.0046
     13 C         -12.2030  207.2550  111.3270 C.3     1  LIG1        0.0163
     14 C         -11.1760  207.4750  112.1700 C.3     1  LIG1        0.0029
     15 N         -10.1070  208.4390  111.7920 N.3     1  LIG1       -0.3128
     16 C          -9.0990  208.8850  112.5560 C.3     1  LIG1        0.0078
     17 C          -9.2420  209.2080  114.0130 C.3     1  LIG1       -0.0358
     18 C          -8.0670  209.5940  114.7840 C.3     1  LIG1       -0.0300
     19 C          -6.7650  209.7680  114.0980 C.3     1  LIG1        0.0646
     20 C          -6.6070  209.4480  112.6660 C.3     1  LIG1       -0.0300
     21 C          -7.7830  209.0220  111.8860 C.3     1  LIG1       -0.0358
     22 S          -5.4220  210.3800  115.0540 S.3     1  LIG1       -0.1339
     23 O          -4.2100  210.2890  114.2980 O.3     1  LIG1       -0.2838
     24 O          -5.8540  211.6490  115.5540 O.3     1  LIG1       -0.2838
     25 N          -5.2170  209.3650  116.3500 N.3     1  LIG1       -0.2016
     26 C          -3.5620  206.0480  115.3440 C.3     1  LIG1       -0.0492
     27 C          -3.8620  205.2520  116.5560 C.3     1  LIG1       -0.0403
     28 C          -4.7090  205.8750  117.5970 C.3     1  LIG1       -0.0027
     29 N          -5.1930  207.2180  117.4430 N.3     1  LIG1       -0.3001
     30 C          -4.8230  208.0270  116.3130 C.3     1  LIG1        0.0761
     31 C          -4.0220  207.4320  115.1920 C.3     1  LIG1       -0.0228
     32 H         -11.4537  208.0330  108.2718 H       1  LIG1        0.2114
     33 H         -11.3189  207.8191  109.2779 H       1  LIG1        0.0768
     34 H         -13.2301  206.3806  108.6493 H       1  LIG1        0.1246
     35 H         -15.0183  206.3642  109.7050 H       1  LIG1        0.0464
     36 H         -15.7181  205.5736  109.4688 H       1  LIG1        0.0281
     37 H         -16.1085  207.2817  109.9179 H       1  LIG1        0.0281
     38 H         -16.7651  204.9770  111.2446 H       1  LIG1        0.0281
     39 H         -17.1305  206.7321  111.4627 H       1  LIG1        0.0281
     40 H         -16.6452  205.8915  112.1342 H       1  LIG1        0.0471
     41 H         -16.6024  204.7636  113.9465 H       1  LIG1        0.1230
     42 H         -15.1542  204.8858  115.3986 H       1  LIG1        0.0539
     43 H         -15.6996  206.5567  115.6179 H       1  LIG1        0.0539
     44 H         -13.3247  206.8636  112.5865 H       1  LIG1        0.0431
     45 H         -13.4594  206.6190  112.6350 H       1  LIG1        0.0331
     46 H         -11.5234  207.1748  112.1495 H       1  LIG1        0.0355
     47 H         -10.7194  206.5353  112.4011 H       1  LIG1        0.0428
     48 H         -11.6510  207.9641  112.9946 H       1  LIG1        0.0428
     49 H         -10.5684  209.2582  111.3964 H       1  LIG1        0.1222
     50 H          -9.7290  209.2713  113.3298 H       1  LIG1        0.0460
     51 H          -9.7101  208.3783  114.5002 H       1  LIG1        0.0281
     52 H          -9.8183  210.1094  113.9975 H       1  LIG1        0.0281
     53 H          -7.9392  208.8925  115.5818 H       1  LIG1        0.0284
     54 H          -8.3053  210.5913  115.0899 H       1  LIG1        0.0284
     55 H          -6.5543  209.3951  113.1175 H       1  LIG1        0.0529
     56 H          -5.8447  208.7038  112.5659 H       1  LIG1        0.0284
     57 H          -6.3688  210.3982  112.2357 H       1  LIG1        0.0284
     58 H          -7.8943  209.6829  111.0519 H       1  LIG1        0.0281
     59 H          -7.5425  208.0099  111.6357 H       1  LIG1        0.0281
     60 H          -4.2695  210.8655  113.5202 H       1  LIG1        0.2415
     61 H          -5.9814  212.2624  114.8135 H       1  LIG1        0.2415
     62 H          -6.0688  209.4134  116.9090 H       1  LIG1        0.1474
     63 H          -3.8923  205.4924  114.4913 H       1  LIG1        0.0267
     64 H          -2.5070  206.1924  115.4489 H       1  LIG1        0.0267
     65 H          -2.9402  204.9409  117.0016 H       1  LIG1        0.0278
     66 H          -4.4581  204.4421  116.1905 H       1  LIG1        0.0278
     67 H          -4.1945  205.8086  118.5328 H       1  LIG1        0.0424
     68 H          -5.6112  205.3054  117.5166 H       1  LIG1        0.0424
     69 H          -4.9680  207.7363  118.2922 H       1  LIG1        0.1234
     70 H          -4.7263  208.0283  115.2474 H       1  LIG1        0.0642
     71 H          -4.5847  207.5114  114.2854 H       1  LIG1        0.0294
     72 H          -3.1185  208.0052  115.1880 H       1  LIG1        0.0294
@<TRIPOS>BOND
     1     1     2    1
     2     2     3    1
     3     2    13    1
     4     3     4    1
     5     4     5    1
     6     4    12    1
     7     5     6    1
     8     6     7    1
     9     7     8    1
    10     7    11    1
    11     8     9    1
    12     9    10    1
    13    10    11    1
    14    11    12    1
    15    12    13    1
    16    13    14    1
    17    14    15    1
    18    15    16    1
    19    16    17    1
    20    16    21    1
    21    17    18    1
    22    18    19    1
    23    19    20    1
    24    19    22    1
    25    20    21    1
    26    22    23    1
    27    22    24    1
    28    22    25    1
    29    25    30    1
    30    26    27    1
    31    26    31    1
    32    27    28    1
    33    28    29    1
    34    29    30    1
    35    30    31    1
    36     1    32    1
    37     2    33    1
    38     3    34    1
    39     4    35    1
    40     5    36    1
    41     5    37    1
    42     6    38    1
    43     6    39    1
    44     7    40    1
    45     8    41    1
    46     9    42    1
    47     9    43    1
    48    11    44    1
    49    12    45    1
    50    13    46    1
    51    14    47    1
    52    14    48    1
    53    15    49    1
    54    16    50    1
    55    17    51    1
    56    17    52    1
    57    18    53    1
    58    18    54    1
    59    19    55    1
    60    20    56    1
    61    20    57    1
    62    21    58    1
    63    21    59    1
    64    23    60    1
    65    24    61    1
    66    25    62    1
    67    26    63    1
    68    26    64    1
    69    27    65    1
    70    27    66    1
    71    28    67    1
    72    28    68    1
    73    29    69    1
    74    30    70    1
    75    31    71    1
    76    31    72    1
