@<TRIPOS>MOLECULE
AI-204/31682052
   31    32     0
SMALL
USER_CHARGE


@<TRIPOS>ATOM
      1 C1          8.1806   -3.4366    0.9030 C.ar      1 <1>        -0.0833
      2 C2          7.0788   -4.2674    1.0904 C.ar      1 <1>        -0.0851
      3 C3          8.0375   -2.0542    1.0159 C.ar      1 <1>        -0.0685
      4 C4          5.8334   -3.7173    1.3964 C.ar      1 <1>        -0.0687
      5 C5          6.7853   -1.4954    1.2997 C.ar      1 <1>        -0.0269
      6 C6          5.6794   -2.3294    1.5002 C.ar      1 <1>        -0.0339
      7 C7          5.5386    0.6419    1.5413 C.2       1 <1>         0.0835
      8 C8          2.7414    1.8552    0.4505 C.2       1 <1>         0.0463
      9 C9          4.2436   -0.0576    1.1573 C.3       1 <1>         0.0977
     10 C10         1.5529    2.3936   -1.6863 C.3       1 <1>        -0.0084
     11 C11         1.3322    0.1403   -0.7140 C.3       1 <1>        -0.0094
     12 C12         3.0180    0.7847    1.4944 C.3       1 <1>         0.0679
     13 N1          6.7010   -0.0959    1.4333 N.am      1 <1>        -0.3019
     14 N2          1.9085    1.4788   -0.6084 N.am      1 <1>        -0.3758
     15 O1          5.5680    1.8424    1.8226 O.2       1 <1>        -0.5077
     16 O2          3.2376    2.9796    0.5577 O.2       1 <1>        -0.5248
     17 S1          4.1020   -1.6631    1.9815 S.3       1 <1>        -0.1538
     18 H1          9.1518   -3.8656    0.6746 H         1 <1>         0.1317
     19 H2          7.1910   -5.3446    1.0092 H         1 <1>         0.1263
     20 H3          8.9093   -1.4198    0.8741 H         1 <1>         0.1382
     21 H4          4.9912   -4.3863    1.5574 H         1 <1>         0.1442
     22 H5          4.2672   -0.2227    0.0732 H         1 <1>         0.2062
     23 H6          2.2807    2.3187   -2.4983 H         1 <1>         0.0957
     24 H7          1.5399    3.4234   -1.3191 H         1 <1>         0.0951
     25 H8          0.5619    2.1489   -2.0783 H         1 <1>         0.1022
     26 H9          0.3644    0.1068   -0.2069 H         1 <1>         0.0908
     27 H10         1.9970   -0.5951   -0.2524 H         1 <1>         0.0968
     28 H11         1.1887   -0.1277   -1.7643 H         1 <1>         0.0999
     29 H12         3.1838    1.2667    2.4623 H         1 <1>         0.1533
     30 H13         2.1500    0.1225    1.5630 H         1 <1>         0.1479
     31 H14         7.5798    0.4123    1.4882 H         1 <1>         0.3243
@<TRIPOS>BOND
     1    1    2 ar
     2    1    3 ar
     3    2    4 ar
     4    3    5 ar
     5    4    6 ar
     6    5    6 ar
     7    5   13 1
     8    6   17 1
     9    7    9 1
    10    7   13 am
    11    7   15 2
    12    8   12 1
    13    8   14 am
    14    8   16 2
    15    9   12 1
    16    9   17 1
    17   10   14 1
    18   11   14 1
    19    1   18 1
    20    2   19 1
    21    3   20 1
    22    4   21 1
    23    9   22 1
    24   10   23 1
    25   10   24 1
    26   10   25 1
    27   11   26 1
    28   11   27 1
    29   11   28 1
    30   12   29 1
    31   12   30 1
    32   13   31 1
