@<TRIPOS>MOLECULE
AF-399/13479018
   29    31     0
SMALL
USER_CHARGE


@<TRIPOS>ATOM
      1 C1          6.5578   -3.9338    1.0387 C.ar      1 <1>        -0.1001
      2 C2          7.7576   -3.2581    1.2509 C.ar      1 <1>        -0.0965
      3 C3          5.3492   -3.2348    0.9439 C.ar      1 <1>        -0.0913
      4 C4          7.7882   -1.8665    1.3763 C.ar      1 <1>        -0.0860
      5 C5          5.3535   -1.8304    1.0651 C.ar      1 <1>        -0.0853
      6 C6          4.3471   -0.8245    1.0228 C.2       1 <1>        -0.1005
      7 C7          6.5730   -1.1788    1.2802 C.ar      1 <1>        -0.0713
      8 C8          4.9706    0.3899    1.2172 C.2       1 <1>        -0.0897
      9 C9          2.8720   -0.9447    0.8393 C.3       1 <1>        -0.0388
     10 C10         4.3177    1.7240    1.2315 C.3       1 <1>        -0.0301
     11 C11         2.7940    1.5566    1.3840 C.3       1 <1>        -0.0482
     12 C12         2.2359    0.4240    0.4860 C.3       1 <1>        -0.0534
     13 C13         0.7145    0.3477    0.5946 C.3       1 <1>        -0.0647
     14 N1          6.3098    0.1718    1.3671 N.pl3     1 <1>        -0.3728
     15 H1          6.5593   -5.0165    0.9448 H         1 <1>         0.1060
     16 H2          8.6848   -3.8209    1.3215 H         1 <1>         0.1150
     17 H3          4.4218   -3.7757    0.7784 H         1 <1>         0.1295
     18 H4          8.7234   -1.3423    1.5428 H         1 <1>         0.1276
     19 H5          2.6467   -1.6692    0.0480 H         1 <1>         0.0676
     20 H6          2.4377   -1.3311    1.7702 H         1 <1>         0.0676
     21 H7          4.7059    2.3438    2.0470 H         1 <1>         0.0825
     22 H8          4.5350    2.2394    0.2883 H         1 <1>         0.0802
     23 H9          2.5590    1.3319    2.4332 H         1 <1>         0.0553
     24 H10         2.3042    2.5086    1.1468 H         1 <1>         0.0530
     25 H11         2.4896    0.6648   -0.5558 H         1 <1>         0.0504
     26 H12         0.4289    0.1098    1.6181 H         1 <1>         0.0329
     27 H13         0.3353   -0.4266   -0.0704 H         1 <1>         0.0329
     28 H14         0.2759    1.3042    0.3151 H         1 <1>         0.0333
     29 H15         7.0067    0.8887    1.5169 H         1 <1>         0.2949
@<TRIPOS>BOND
     1    1    2 ar
     2    1    3 ar
     3    2    4 ar
     4    3    5 ar
     5    4    7 ar
     6    5    6 1
     7    5    7 ar
     8    6    8 2
     9    6    9 1
    10    7   14 1
    11    8   10 1
    12    8   14 1
    13    9   12 1
    14   10   11 1
    15   11   12 1
    16   12   13 1
    17    1   15 1
    18    2   16 1
    19    3   17 1
    20    4   18 1
    21    9   19 1
    22    9   20 1
    23   10   21 1
    24   10   22 1
    25   11   23 1
    26   11   24 1
    27   12   25 1
    28   13   26 1
    29   13   27 1
    30   13   28 1
    31   14   29 1
