@<TRIPOS>MOLECULE
ZINC00287726
   34    35     0
SMALL
USER_CHARGE


@<TRIPOS>ATOM
      1 C1          8.0470   -1.8589    0.7473 C.ar      1 <1>        -0.0495
      2 C2          8.1607   -3.2518    0.7172 C.ar      1 <1>        -0.0153
      3 C3          5.9280   -3.5119    1.6360 C.ar      1 <1>        -0.0112
      4 C4          5.1977    0.0603    1.8937 C.2       1 <1>        -0.0525
      5 C5          5.7904   -2.1101    1.6759 C.ar      1 <1>        -0.0481
      6 C6          4.7542   -1.2271    2.0904 C.2       1 <1>        -0.0732
      7 C7          6.8509   -1.3176    1.2316 C.ar      1 <1>        -0.0452
      8 C8          7.1190   -4.0675    1.1542 C.ar      1 <1>         0.0823
      9 C9          1.6372    0.6664    0.2755 C.2       1 <1>         0.0215
     10 C10         0.9849    1.7598   -1.9056 C.3       1 <1>        -0.0377
     11 C11         3.4367   -1.6123    2.6354 C.3       1 <1>        -0.0153
     12 C12         1.5232    0.5117   -1.2298 C.3       1 <1>         0.0144
     13 C13         2.3050   -0.6246    2.2981 C.3       1 <1>        -0.0016
     14 N1          6.4632   -0.0044    1.3751 N.pl3     1 <1>        -0.3535
     15 N2          2.1014   -0.4971    0.8799 N.am      1 <1>        -0.3508
     16 N3          7.2653   -5.4801    1.1109 N.pl3     1 <1>        -0.0789
     17 O1          8.3371   -5.9663    0.6771 O.3       1 <1>        -0.1801
     18 O2          1.3512    1.7035    0.8679 O.2       1 <1>        -0.5444
     19 O3          6.3187   -6.2010    1.5078 O.2       1 <1>        -0.3186
     20 H1          8.8586   -1.2247    0.4070 H         1 <1>         0.1574
     21 H2          9.0837   -3.6913    0.3439 H         1 <1>         0.1790
     22 H3          5.1163   -4.1498    1.9764 H         1 <1>         0.1904
     23 H4          4.7282    1.0171    2.0753 H         1 <1>         0.1952
     24 H5         -0.0081    2.0175   -1.5225 H         1 <1>         0.0493
     25 H6          1.6517    2.6084   -1.7255 H         1 <1>         0.0489
     26 H7          0.9003    1.6155   -2.9879 H         1 <1>         0.0495
     27 H8          3.4926   -1.7002    3.7384 H         1 <1>         0.0877
     28 H9          3.1381   -2.6232    2.2914 H         1 <1>         0.0869
     29 H10         2.5157    0.2762   -1.6306 H         1 <1>         0.1132
     30 H11         0.8616   -0.3356   -1.4432 H         1 <1>         0.1137
     31 H12         1.3535   -0.9572    2.7249 H         1 <1>         0.0997
     32 H13         2.5252    0.3734    2.6913 H         1 <1>         0.0999
     33 H14         7.0313    0.7954    1.1328 H         1 <1>         0.3107
     34 H15         2.3078   -1.3002    0.2877 H         1 <1>         0.2765
@<TRIPOS>BOND
     1    1    2 ar
     2    1    7 ar
     3    2    8 ar
     4    3    5 ar
     5    3    8 ar
     6    4    6 2
     7    4   14 1
     8    5    6 1
     9    5    7 ar
    10    6   11 1
    11    7   14 1
    12    8   16 1
    13    9   12 1
    14    9   15 am
    15    9   18 2
    16   10   12 1
    17   11   13 1
    18   13   15 1
    19   16   17 1
    20   16   19 2
    21    1   20 1
    22    2   21 1
    23    3   22 1
    24    4   23 1
    25   10   24 1
    26   10   25 1
    27   10   26 1
    28   11   27 1
    29   11   28 1
    30   12   29 1
    31   12   30 1
    32   13   31 1
    33   13   32 1
    34   14   33 1
    35   15   34 1
