@<TRIPOS>MOLECULE
AD-341/40841539
   36    38     0
SMALL
USER_CHARGE


@<TRIPOS>ATOM
      1 C1          6.5601   -4.0396    1.0214 C.ar      1 <1>        -0.0982
      2 C2          7.7949   -3.4429    0.7750 C.ar      1 <1>        -0.0951
      3 C3          5.4532   -3.2682    1.3940 C.ar      1 <1>        -0.0908
      4 C4          7.9635   -2.0603    0.8926 C.ar      1 <1>        -0.0871
      5 C5          5.4361    0.3619    1.8211 C.2       1 <1>        -0.0658
      6 C6          5.5990   -1.8724    1.5192 C.ar      1 <1>        -0.0830
      7 C7          4.7180   -0.8107    1.8681 C.2       1 <1>        -0.0881
      8 C8          6.8484   -1.3018    1.2660 C.ar      1 <1>        -0.0712
      9 C9          2.9711    1.7145   -0.1138 C.2       1 <1>         0.0224
     10 C10         3.0283    1.8584   -1.6241 C.3       1 <1>         0.0207
     11 C11         1.9909    1.0508   -2.3798 C.3       1 <1>        -0.0283
     12 C12         2.0320   -0.3875   -1.9036 C.3       1 <1>        -0.0359
     13 C13         1.6911   -0.4285   -0.4257 C.3       1 <1>        -0.0114
     14 C14         3.2581   -0.9361    2.2281 C.3       1 <1>        -0.0199
     15 C15         2.4376    0.2859    1.8224 C.3       1 <1>        -0.0025
     16 N1          6.7199    0.0556    1.4570 N.pl3     1 <1>        -0.3678
     17 N2          2.4556    0.5190    0.3847 N.am      1 <1>        -0.3780
     18 O1          3.4481    2.6089    0.5902 O.2       1 <1>        -0.5416
     19 H1          6.4535   -5.1166    0.9226 H         1 <1>         0.1102
     20 H2          8.6412   -4.0611    0.4867 H         1 <1>         0.1190
     21 H3          4.4971   -3.7484    1.5818 H         1 <1>         0.1280
     22 H4          8.9254   -1.5968    0.7018 H         1 <1>         0.1228
     23 H5          5.1496    1.3867    2.0126 H         1 <1>         0.1781
     24 H6          2.9074    2.9250   -1.8492 H         1 <1>         0.1220
     25 H7          4.0288    1.5613   -1.9591 H         1 <1>         0.1213
     26 H8          0.9950    1.4760   -2.2143 H         1 <1>         0.0576
     27 H9          2.1901    1.0956   -3.4576 H         1 <1>         0.0611
     28 H10         1.3132   -0.9902   -2.4724 H         1 <1>         0.0647
     29 H11         3.0247   -0.8187   -2.0710 H         1 <1>         0.0583
     30 H12         0.6235   -0.2191   -0.2940 H         1 <1>         0.0970
     31 H13         1.8898   -1.4276   -0.0198 H         1 <1>         0.1022
     32 H14         3.1784   -1.0825    3.3128 H         1 <1>         0.0781
     33 H15         2.8392   -1.8413    1.7699 H         1 <1>         0.0808
     34 H16         1.3901    0.1426    2.1058 H         1 <1>         0.1166
     35 H17         2.8015    1.1965    2.3092 H         1 <1>         0.1093
     36 H18         7.4660    0.7280    1.3443 H         1 <1>         0.2947
@<TRIPOS>BOND
     1    1    2 ar
     2    1    3 ar
     3    2    4 ar
     4    3    6 ar
     5    4    8 ar
     6    5    7 2
     7    5   16 1
     8    6    7 1
     9    6    8 ar
    10    7   14 1
    11    8   16 1
    12    9   10 1
    13    9   17 am
    14    9   18 2
    15   10   11 1
    16   11   12 1
    17   12   13 1
    18   13   17 1
    19   14   15 1
    20   15   17 1
    21    1   19 1
    22    2   20 1
    23    3   21 1
    24    4   22 1
    25    5   23 1
    26   10   24 1
    27   10   25 1
    28   11   26 1
    29   11   27 1
    30   12   28 1
    31   12   29 1
    32   13   30 1
    33   13   31 1
    34   14   32 1
    35   14   33 1
    36   15   34 1
    37   15   35 1
    38   16   36 1
