@<TRIPOS>MOLECULE
AG-205/33105041
   28    29     0
SMALL
USER_CHARGE


@<TRIPOS>ATOM
      1 C1          6.7464   -3.9180    1.0417 C.ar      1 <1>        -0.0748
      2 C2          7.9413   -3.1951    1.1430 C.ar      1 <1>        -0.0708
      3 C3          5.5012   -3.2737    1.0750 C.ar      1 <1>        -0.0520
      4 C4          7.9427   -1.8030    1.2815 C.ar      1 <1>        -0.0393
      5 C5          5.4849   -1.8784    1.2137 C.ar      1 <1>         0.0059
      6 C6          6.6911   -1.2005    1.3109 C.ar      1 <1>         0.0296
      7 C7          5.0511    0.1764    1.4076 C.2       1 <1>         0.1019
      8 C8          2.1848    0.7691   -0.0349 C.2       1 <1>         0.0610
      9 C9          1.4488    3.4132    1.2381 C.3       1 <1>        -0.0496
     10 C10         1.4457    2.0826    1.9798 C.3       1 <1>        -0.0076
     11 C11         2.4602    1.0709    1.4309 C.3       1 <1>         0.0919
     12 N1          4.4449   -0.9832    1.2773 N.2       1 <1>        -0.3348
     13 N2          1.3543   -0.3153   -0.2220 N.am      1 <1>        -0.3140
     14 O1          2.6710    1.4160   -0.9601 O.2       1 <1>        -0.5275
     15 O2          6.4125    0.1303    1.4365 O.3       1 <1>        -0.3619
     16 S1          4.1724    1.7010    1.5366 S.3       1 <1>        -0.0569
     17 H1          6.7832   -4.9996    0.9361 H         1 <1>         0.1353
     18 H2          8.8896   -3.7263    1.1121 H         1 <1>         0.1408
     19 H3          4.5818   -3.8441    0.9941 H         1 <1>         0.1564
     20 H4          8.8609   -1.2344    1.3583 H         1 <1>         0.1568
     21 H5          1.2179    3.2715    0.1774 H         1 <1>         0.0402
     22 H6          0.7227    4.1148    1.6592 H         1 <1>         0.0411
     23 H7          2.4374    3.8783    1.3085 H         1 <1>         0.0430
     24 H8          1.6818    2.2835    3.0331 H         1 <1>         0.0740
     25 H9          0.4310    1.6645    1.9743 H         1 <1>         0.0810
     26 H10         2.4017    0.1424    2.0101 H         1 <1>         0.1872
     27 H11         0.9849   -0.8309    0.5699 H         1 <1>         0.2703
     28 H12         1.0777   -0.6379   -1.1437 H         1 <1>         0.2730
@<TRIPOS>BOND
     1    1    2 ar
     2    1    3 ar
     3    2    4 ar
     4    3    5 ar
     5    4    6 ar
     6    5    6 ar
     7    5   12 1
     8    6   15 1
     9    7   12 2
    10    7   15 1
    11    7   16 1
    12    8   11 1
    13    8   13 am
    14    8   14 2
    15    9   10 1
    16   10   11 1
    17   11   16 1
    18    1   17 1
    19    2   18 1
    20    3   19 1
    21    4   20 1
    22    9   21 1
    23    9   22 1
    24    9   23 1
    25   10   24 1
    26   10   25 1
    27   11   26 1
    28   13   27 1
    29   13   28 1
