@<TRIPOS>MOLECULE
AF-399/09976012
   34    36     0
SMALL
USER_CHARGE


@<TRIPOS>ATOM
      1 C1          6.8219   -3.9965    1.1069 C.ar      1 <1>        -0.1314
      2 C2          8.0057   -3.2803    0.9406 C.ar      1 <1>        -0.0897
      3 C3          5.6135   -3.3353    1.3549 C.ar      1 <1>        -0.0729
      4 C4          8.0205   -1.8846    1.0165 C.ar      1 <1>        -0.1297
      5 C5          5.1864    0.2841    1.6336 C.2       1 <1>         0.1010
      6 C6          5.6038   -1.9286    1.4359 C.ar      1 <1>        -0.0962
      7 C7          4.5913   -0.9559    1.6673 C.2       1 <1>        -0.2376
      8 C8          6.8050   -1.2372    1.2651 C.ar      1 <1>         0.0934
      9 C9          2.7518    1.7799    0.1087 C.2       1 <1>         0.4607
     10 C10         0.0442   -0.1351    0.1679 C.3       1 <1>        -0.1408
     11 C11         0.5116    1.0969    0.9228 C.3       1 <1>        -0.1166
     12 C12         0.8911   -1.2363    0.7643 C.3       1 <1>        -0.0056
     13 C13         2.0154    0.9056    1.1019 C.3       1 <1>        -0.0232
     14 C14         3.1346   -1.2222    1.9079 C.3       1 <1>         0.0926
     15 N1          6.5217    0.1042    1.3902 N.pl3     1 <1>        -0.5847
     16 N2          2.2464   -0.5839    0.8890 N.4       1 <1>        -0.3797
     17 O1          2.4769    1.5667   -1.1046 O.co2     1 <1>        -0.5000
     18 O2          3.5489    2.6125    0.6251 O.co2     1 <1>        -0.5000
     19 H1          6.8356   -5.0813    1.0429 H         1 <1>         0.1293
     20 H2          8.9328   -3.8143    0.7488 H         1 <1>         0.1300
     21 H3          4.6991   -3.9080    1.4813 H         1 <1>         0.1373
     22 H4          8.9426   -1.3281    0.8881 H         1 <1>         0.1233
     23 H5          4.7805    1.2785    1.7593 H         1 <1>         0.1768
     24 H6         -1.0263   -0.3199    0.2920 H         1 <1>         0.1034
     25 H7          0.2522   -0.0277   -0.9034 H         1 <1>         0.0928
     26 H8          0.2426    2.0182    0.3957 H         1 <1>         0.0912
     27 H9          0.0278    1.1285    1.9072 H         1 <1>         0.1127
     28 H10         0.5523   -1.5137    1.7683 H         1 <1>         0.1170
     29 H11         0.9849   -2.1183    0.1254 H         1 <1>         0.1195
     30 H12         2.3241    1.1697    2.1193 H         1 <1>         0.1380
     31 H13         2.9191   -2.2958    1.8845 H         1 <1>         0.1232
     32 H14         2.8185   -0.8398    2.8845 H         1 <1>         0.1295
     33 H15         7.2016    0.8481    1.3134 H         1 <1>         0.4225
     34 H16         2.7100   -0.6943   -0.0235 H         1 <1>         0.4318
@<TRIPOS>BOND
     1    1    2 ar
     2    1    3 ar
     3    2    4 ar
     4    3    6 ar
     5    4    8 ar
     6    5    7 2
     7    5   15 1
     8    6    7 1
     9    6    8 ar
    10    7   14 1
    11    8   15 1
    12    9   13 1
    13    9   17 1
    14    9   18 2
    15   10   11 1
    16   10   12 1
    17   11   13 1
    18   12   16 1
    19   13   16 1
    20   14   16 1
    21    1   19 1
    22    2   20 1
    23    3   21 1
    24    4   22 1
    25    5   23 1
    26   10   24 1
    27   10   25 1
    28   11   26 1
    29   11   27 1
    30   12   28 1
    31   12   29 1
    32   13   30 1
    33   14   31 1
    34   14   32 1
    35   15   33 1
    36   16   34 1
