@<TRIPOS>MOLECULE
AE-473/30364030
   39    40     0
SMALL
USER_CHARGE


@<TRIPOS>ATOM
      1 C1          5.5256   -3.2160    0.9167 C.ar      1 <1>        -0.0922
      2 C2          6.7365   -3.9157    0.8623 C.ar      1 <1>        -0.1002
      3 C3          7.9835   -1.9081    1.4265 C.ar      1 <1>        -0.0873
      4 C4          5.1538    0.3365    1.6928 C.2       1 <1>        -0.0625
      5 C5          5.5391   -1.8423    1.2303 C.ar      1 <1>        -0.0826
      6 C6          7.9454   -3.2699    1.1137 C.ar      1 <1>        -0.1057
      7 C7          4.5315   -0.8471    1.3695 C.2       1 <1>        -0.0806
      8 C8          6.7652   -1.2212    1.4775 C.ar      1 <1>        -0.0693
      9 C9          9.2213   -4.0420    1.0467 C.3       1 <1>        -0.0416
     10 C10         0.3524    2.2825    2.4567 C.3       1 <1>        -0.0653
     11 C11        -1.5865    1.1354    1.3692 C.3       1 <1>        -0.0661
     12 C12         3.0449   -1.0439    1.1970 C.3       1 <1>         0.0128
     13 C13         0.7445    0.0930    1.2838 C.3       1 <1>        -0.0109
     14 C14        -0.0821    1.3985    1.2837 C.3       1 <1>        -0.0547
     15 C15         2.2626    0.2750    1.1485 C.3       1 <1>         0.0907
     16 N1          6.5010    0.1009    1.7553 N.pl3     1 <1>        -0.3649
     17 N2          2.5301    0.8675   -0.1847 N.pl3     1 <1>        -0.1158
     18 O1          3.1012    1.9662   -0.2141 O.3       1 <1>        -0.1965
     19 O2          2.1785    0.2110   -1.1744 O.2       1 <1>        -0.3376
     20 H1          4.5910   -3.7322    0.7171 H         1 <1>         0.1243
     21 H2          6.7216   -4.9756    0.6190 H         1 <1>         0.1135
     22 H3          8.9219   -1.3986    1.6221 H         1 <1>         0.1274
     23 H4          4.7610    1.3254    1.8847 H         1 <1>         0.1841
     24 H5          9.6322   -4.0105    0.0308 H         1 <1>         0.0611
     25 H6          9.9689   -3.6341    1.7385 H         1 <1>         0.0594
     26 H7          9.0656   -5.0911    1.3281 H         1 <1>         0.0579
     27 H8          0.1796    1.7836    3.4165 H         1 <1>         0.0336
     28 H9          1.4179    2.5257    2.3869 H         1 <1>         0.0345
     29 H10        -0.2041    3.2259    2.4601 H         1 <1>         0.0334
     30 H11        -1.8412    0.5781    2.2771 H         1 <1>         0.0327
     31 H12        -1.9418    0.5644    0.5067 H         1 <1>         0.0304
     32 H13        -2.1453    2.0777    1.3839 H         1 <1>         0.0338
     33 H14         2.8484   -1.6368    0.2930 H         1 <1>         0.1041
     34 H15         2.6912   -1.6663    2.0313 H         1 <1>         0.1102
     35 H16         0.3846   -0.5373    0.4608 H         1 <1>         0.0793
     36 H17         0.5275   -0.4587    2.2092 H         1 <1>         0.0850
     37 H18         0.1177    1.9565    0.3610 H         1 <1>         0.0400
     38 H19         2.6574    0.9908    1.8749 H         1 <1>         0.1848
     39 H20         7.2007    0.7970    1.9734 H         1 <1>         0.3006
@<TRIPOS>BOND
     1    1    2 ar
     2    1    5 ar
     3    2    6 ar
     4    3    6 ar
     5    3    8 ar
     6    4    7 2
     7    4   16 1
     8    5    7 1
     9    5    8 ar
    10    6    9 1
    11    7   12 1
    12    8   16 1
    13   10   14 1
    14   11   14 1
    15   12   15 1
    16   13   14 1
    17   13   15 1
    18   15   17 1
    19   17   18 1
    20   17   19 2
    21    1   20 1
    22    2   21 1
    23    3   22 1
    24    4   23 1
    25    9   24 1
    26    9   25 1
    27    9   26 1
    28   10   27 1
    29   10   28 1
    30   10   29 1
    31   11   30 1
    32   11   31 1
    33   11   32 1
    34   12   33 1
    35   12   34 1
    36   13   35 1
    37   13   36 1
    38   14   37 1
    39   15   38 1
    40   16   39 1
