@<TRIPOS>MOLECULE
AI-204/31701021
   29    31     0
SMALL
USER_CHARGE


@<TRIPOS>ATOM
      1 C1          6.7128   -4.1136    0.8558 C.ar      1 <1>        -0.0839
      2 C2          7.9418   -3.4659    0.8617 C.ar      1 <1>        -0.0779
      3 C3          5.5508   -3.3849    1.0931 C.ar      1 <1>        -0.0731
      4 C4          8.0063   -2.0916    1.1048 C.ar      1 <1>        -0.0589
      5 C5          4.5599    0.1186    1.8173 C.ar      1 <1>        -0.0416
      6 C6          5.8207    0.6799    1.8045 C.ar      1 <1>        -0.0297
      7 C7          5.6160   -2.0026    1.3375 C.ar      1 <1>        -0.0398
      8 C8          4.4623   -1.2448    1.5794 C.ar      1 <1>        -0.0159
      9 C9          6.8604   -1.3383    1.3449 C.ar      1 <1>        -0.0341
     10 C10         1.9402    0.7472   -0.1074 C.2       1 <1>         0.1887
     11 C11         3.1246   -1.8293    1.5942 C.2       1 <1>         0.0278
     12 C12         3.5130   -0.6432   -1.1034 C.3       1 <1>         0.0657
     13 C13         3.6702    0.7742   -1.6034 C.3       1 <1>         0.0792
     14 N1          6.9583   -0.0154    1.5755 N.ar      1 <1>        -0.3960
     15 N2          2.1852   -1.4476    0.7795 N.2       1 <1>        -0.3117
     16 N3          2.5557   -0.4776   -0.0664 N.am      1 <1>        -0.2521
     17 O1          1.0223    1.1540    0.5910 O.2       1 <1>        -0.4329
     18 O2          2.5226    1.4898   -1.1061 O.3       1 <1>        -0.3534
     19 H1          6.6587   -5.1815    0.6674 H         1 <1>         0.1298
     20 H2          8.8536   -4.0264    0.6775 H         1 <1>         0.1342
     21 H3          4.6028   -3.9172    1.0830 H         1 <1>         0.1342
     22 H4          8.9813   -1.6076    1.1048 H         1 <1>         0.1576
     23 H5          3.6859    0.7321    2.0085 H         1 <1>         0.1527
     24 H6          5.9589    1.7411    1.9832 H         1 <1>         0.2163
     25 H7          2.9300   -2.6296    2.3422 H         1 <1>         0.2805
     26 H8          3.0870   -1.2976   -1.8716 H         1 <1>         0.1427
     27 H9          4.4476   -1.0712   -0.7297 H         1 <1>         0.1469
     28 H10         4.5688    1.2538   -1.2016 H         1 <1>         0.1715
     29 H11         3.6968    0.8285   -2.6955 H         1 <1>         0.1730
@<TRIPOS>BOND
     1    1    2 ar
     2    1    3 ar
     3    2    4 ar
     4    3    7 ar
     5    4    9 ar
     6    5    6 ar
     7    5    8 ar
     8    6   14 ar
     9    7    8 ar
    10    7    9 ar
    11    8   11 1
    12    9   14 ar
    13   10   16 am
    14   10   17 2
    15   10   18 1
    16   11   15 2
    17   12   13 1
    18   12   16 1
    19   13   18 1
    20   15   16 1
    21    1   19 1
    22    2   20 1
    23    3   21 1
    24    4   22 1
    25    5   23 1
    26    6   24 1
    27   11   25 1
    28   12   26 1
    29   12   27 1
    30   13   28 1
    31   13   29 1
