@<TRIPOS>MOLECULE
AG-205/14785177
   28    29     0
SMALL
USER_CHARGE


@<TRIPOS>ATOM
      1 C1          8.0424   -1.9377    1.0009 C.ar      1 <1>        -0.0673
      2 C2          7.9703   -3.3320    0.9300 C.ar      1 <1>        -0.0610
      3 C3          5.5789   -3.2875    1.3501 C.ar      1 <1>        -0.0636
      4 C4          5.6270   -1.8813    1.4259 C.ar      1 <1>        -0.0737
      5 C5          4.6557   -0.8671    1.6562 C.2       1 <1>        -0.0979
      6 C6          6.8550   -1.2401    1.2499 C.ar      1 <1>        -0.0594
      7 C7          6.7587   -3.9984    1.1016 C.ar      1 <1>        -0.0346
      8 C8          5.3010    0.3475    1.6166 C.2       1 <1>        -0.0838
      9 C9          4.7924    1.7216    1.7891 C.3       1 <1>        -0.0238
     10 C10         3.2126   -1.0786    1.8958 C.3       1 <1>        -0.0367
     11 C11         2.4003   -1.4303    0.6418 C.3       1 <1>        -0.0366
     12 N1          6.6271    0.1121    1.3707 N.pl3     1 <1>        -0.3651
     13 N2          0.9821   -1.6720    1.0043 N.4       1 <1>         0.4567
     14 Br1         6.7034   -5.8867    0.9924 Br        1 <1>        -0.1403
     15 H1          8.9859   -1.4195    0.8667 H         1 <1>         0.1457
     16 H2          8.8848   -3.8889    0.7370 H         1 <1>         0.1491
     17 H3          4.6330   -3.8057    1.4833 H         1 <1>         0.1456
     18 H4          4.8326    2.0309    2.8467 H         1 <1>         0.0842
     19 H5          5.3731    2.4550    1.2038 H         1 <1>         0.0819
     20 H6          3.7467    1.8219    1.4507 H         1 <1>         0.0856
     21 H7          3.0722   -1.9024    2.6200 H         1 <1>         0.0737
     22 H8          2.7503   -0.1997    2.3830 H         1 <1>         0.0740
     23 H9          2.7598   -2.3523    0.1753 H         1 <1>         0.0701
     24 H10         2.4071   -0.6237   -0.0974 H         1 <1>         0.0707
     25 H11         7.3383    0.8257    1.2888 H         1 <1>         0.3067
     26 H12         0.4304   -0.8116    0.9207 H         1 <1>         0.1343
     27 H13         0.9029   -2.0055    1.9710 H         1 <1>         0.1320
     28 H14         0.5619   -2.3782    0.3906 H         1 <1>         0.1340
@<TRIPOS>BOND
     1    1    2 ar
     2    1    6 ar
     3    2    7 ar
     4    3    4 ar
     5    3    7 ar
     6    4    5 1
     7    4    6 ar
     8    5    8 2
     9    5   10 1
    10    6   12 1
    11    7   14 1
    12    8    9 1
    13    8   12 1
    14   10   11 1
    15   11   13 1
    16    1   15 1
    17    2   16 1
    18    3   17 1
    19    9   18 1
    20    9   19 1
    21    9   20 1
    22   10   21 1
    23   10   22 1
    24   11   23 1
    25   11   24 1
    26   12   25 1
    27   13   26 1
    28   13   27 1
    29   13   28 1
