@<TRIPOS>MOLECULE
AQ-776/42801706
   27    29     0
SMALL
USER_CHARGE


@<TRIPOS>ATOM
      1 C1          0.8963    2.4780    0.2348 C.ar      1 <1>        -0.0964
      2 C2          6.8100   -4.0104    1.0919 C.ar      1 <1>        -0.0946
      3 C3          7.9938   -3.2938    0.9283 C.ar      1 <1>        -0.0917
      4 C4          2.0999    2.0213   -0.3020 C.ar      1 <1>        -0.0935
      5 C5          0.2979    1.7901    1.2905 C.ar      1 <1>        -0.0938
      6 C6          5.6017   -3.3500    1.3424 C.ar      1 <1>        -0.0833
      7 C7          8.0087   -1.8984    1.0092 C.ar      1 <1>        -0.0821
      8 C8          2.7053    0.8767    0.2170 C.ar      1 <1>        -0.0801
      9 C9          0.9031    0.6456    1.8094 C.ar      1 <1>        -0.0804
     10 C10         5.1748    0.2685    1.6338 C.2       1 <1>        -0.0465
     11 C11         5.5920   -1.9437    1.4282 C.ar      1 <1>        -0.0616
     12 C12         6.7933   -1.2517    1.2601 C.ar      1 <1>        -0.0609
     13 C13         2.1068    0.1888    1.2726 C.ar      1 <1>        -0.0594
     14 C14         4.5796   -0.9716    1.6630 C.2       1 <1>        -0.0425
     15 N1          6.5100    0.0894    1.3898 N.pl3     1 <1>        -0.3593
     16 S1          2.8854   -1.2841    1.9395 S.3       1 <1>        -0.1845
     17 H1          0.4255    3.3692   -0.1697 H         1 <1>         0.1216
     18 H2          6.8238   -5.0951    1.0245 H         1 <1>         0.1138
     19 H3          8.9213   -3.8270    0.7355 H         1 <1>         0.1226
     20 H4          2.5660    2.5565   -1.1241 H         1 <1>         0.1195
     21 H5         -0.6393    2.1465    1.7080 H         1 <1>         0.1191
     22 H6          4.6892   -3.9263    1.4665 H         1 <1>         0.1308
     23 H7          8.9312   -1.3414    0.8829 H         1 <1>         0.1275
     24 H8          3.6432    0.5359   -0.2148 H         1 <1>         0.1357
     25 H9          0.4215    0.1229    2.6320 H         1 <1>         0.1346
     26 H10         4.7727    1.2642    1.7626 H         1 <1>         0.1854
     27 H11         7.1895    0.8337    1.3150 H         1 <1>         0.2999
@<TRIPOS>BOND
     1    1    4 ar
     2    1    5 ar
     3    2    3 ar
     4    2    6 ar
     5    3    7 ar
     6    4    8 ar
     7    5    9 ar
     8    6   11 ar
     9    7   12 ar
    10    8   13 ar
    11    9   13 ar
    12   10   14 2
    13   10   15 1
    14   11   12 ar
    15   11   14 1
    16   12   15 1
    17   13   16 1
    18   14   16 1
    19    1   17 1
    20    2   18 1
    21    3   19 1
    22    4   20 1
    23    5   21 1
    24    6   22 1
    25    7   23 1
    26    8   24 1
    27    9   25 1
    28   10   26 1
    29   15   27 1
