@<TRIPOS>MOLECULE
AL-182/12304024
   33    35     0
SMALL
USER_CHARGE


@<TRIPOS>ATOM
      1 C1          6.8099   -4.0103    1.0920 C.ar      1 <1>        -0.0896
      2 C2          7.9938   -3.2937    0.9283 C.ar      1 <1>        -0.0897
      3 C3          5.6017   -3.3500    1.3423 C.ar      1 <1>        -0.0725
      4 C4          8.0087   -1.8984    1.0093 C.ar      1 <1>        -0.0794
      5 C5          5.1748    0.2685    1.6338 C.2       1 <1>        -0.0213
      6 C6          5.5920   -1.9435    1.4282 C.ar      1 <1>        -0.0485
      7 C7          4.5795   -0.9716    1.6631 C.2       1 <1>        -0.0351
      8 C8          6.7934   -1.2516    1.2600 C.ar      1 <1>        -0.0505
      9 C9          3.1580   -1.1920    1.8970 C.2       1 <1>        -0.0666
     10 C10         1.3865    2.2411    0.3181 C.3       1 <1>        -0.0541
     11 C11         2.0973    2.2241    1.6720 C.3       1 <1>        -0.0463
     12 C12         1.8387    1.0682   -0.5523 C.3       1 <1>        -0.0463
     13 C13         1.9237    0.8787    2.3707 C.3       1 <1>        -0.0245
     14 C14         1.6698   -0.2607    0.1785 C.3       1 <1>        -0.0247
     15 N1          6.5100    0.0893    1.3898 N.pl3     1 <1>        -0.3438
     16 N2          2.3059   -0.2187    1.4899 N.pl3     1 <1>        -0.4156
     17 S1          2.5985   -2.5976    2.6127 S.2       1 <1>        -0.2586
     18 H1          6.8239   -5.0952    1.0240 H         1 <1>         0.1193
     19 H2          8.9213   -3.8269    0.7349 H         1 <1>         0.1242
     20 H3          4.6874   -3.9229    1.4673 H         1 <1>         0.1512
     21 H4          8.9310   -1.3418    0.8818 H         1 <1>         0.1288
     22 H5          4.7713    1.2633    1.7641 H         1 <1>         0.2299
     23 H6          0.3020    2.1870    0.4723 H         1 <1>         0.0441
     24 H7          1.5920    3.1861   -0.1968 H         1 <1>         0.0424
     25 H8          3.1660    2.4172    1.5166 H         1 <1>         0.0561
     26 H9          1.7109    3.0281    2.3078 H         1 <1>         0.0568
     27 H10         1.2697    1.0549   -1.4882 H         1 <1>         0.0565
     28 H11         2.8949    1.2055   -0.8158 H         1 <1>         0.0566
     29 H12         2.5190    0.8487    3.2897 H         1 <1>         0.0936
     30 H13         0.8747    0.7243    2.6492 H         1 <1>         0.0992
     31 H14         0.6070   -0.4780    0.3375 H         1 <1>         0.0929
     32 H15         2.0900   -1.0780   -0.4178 H         1 <1>         0.0989
     33 H16         7.1898    0.8336    1.3161 H         1 <1>         0.3162
@<TRIPOS>BOND
     1    1    2 ar
     2    1    3 ar
     3    2    4 ar
     4    3    6 ar
     5    4    8 ar
     6    5    7 2
     7    5   15 1
     8    6    7 1
     9    6    8 ar
    10    7    9 1
    11    8   15 1
    12    9   16 1
    13    9   17 2
    14   10   11 1
    15   10   12 1
    16   11   13 1
    17   12   14 1
    18   13   16 1
    19   14   16 1
    20    1   18 1
    21    2   19 1
    22    3   20 1
    23    4   21 1
    24    5   22 1
    25   10   23 1
    26   10   24 1
    27   11   25 1
    28   11   26 1
    29   12   27 1
    30   12   28 1
    31   13   29 1
    32   13   30 1
    33   14   31 1
    34   14   32 1
    35   15   33 1
