@<TRIPOS>MOLECULE
AE-473/30364030
   39    40     0
SMALL
USER_CHARGE


@<TRIPOS>ATOM
      1 C1          5.0981   -3.1031    1.1899 C.ar      1 <1>        -0.0901
      2 C2          6.0874   -4.0930    1.1652 C.ar      1 <1>        -0.0988
      3 C3          7.8335   -2.4308    1.4688 C.ar      1 <1>        -0.0884
      4 C4          5.6844    0.4812    1.6008 C.2       1 <1>        -0.0640
      5 C5          5.4776   -1.7564    1.3565 C.ar      1 <1>        -0.0829
      6 C6          7.4333   -3.7598    1.3026 C.ar      1 <1>        -0.1055
      7 C7          4.7645   -0.5270    1.4269 C.2       1 <1>        -0.0816
      8 C8          6.8338   -1.4520    1.4918 C.ar      1 <1>        -0.0707
      9 C9          8.4664   -4.8372    1.2706 C.3       1 <1>        -0.0414
     10 C10         1.2052   -3.0527   -0.2670 C.3       1 <1>        -0.0662
     11 C11        -0.9033   -1.8533    0.3439 C.3       1 <1>        -0.0653
     12 C12         3.2687   -0.3494    1.3307 C.3       1 <1>         0.0123
     13 C13         1.2183   -0.5389   -0.2028 C.3       1 <1>        -0.0110
     14 C14         0.6235   -1.8179    0.4283 C.3       1 <1>        -0.0546
     15 C15         2.7449   -0.4080   -0.1101 C.3       1 <1>         0.0907
     16 N1          6.9297   -0.0864    1.6385 N.pl3     1 <1>        -0.3664
     17 N2          3.1284    0.8773   -0.7436 N.pl3     1 <1>        -0.1147
     18 O1          4.3333    1.1628   -0.7656 O.3       1 <1>        -0.1965
     19 O2          2.2156    1.5648   -1.2217 O.2       1 <1>        -0.3349
     20 H1          4.0528   -3.3775    1.0801 H         1 <1>         0.1315
     21 H2          5.7902   -5.1312    1.0354 H         1 <1>         0.1154
     22 H3          8.8803   -2.1643    1.5752 H         1 <1>         0.1250
     23 H4          5.5669    1.5513    1.7018 H         1 <1>         0.1823
     24 H5          8.8077   -5.0065    0.2426 H         1 <1>         0.0609
     25 H6          9.3343   -4.5734    1.8879 H         1 <1>         0.0579
     26 H7          8.0685   -5.7802    1.6664 H         1 <1>         0.0602
     27 H8          0.9544   -3.0643   -1.3333 H         1 <1>         0.0301
     28 H9          2.2962   -3.0738   -0.1742 H         1 <1>         0.0325
     29 H10         0.8157   -3.9723    0.1827 H         1 <1>         0.0337
     30 H11        -1.2448   -1.8028   -0.6956 H         1 <1>         0.0335
     31 H12        -1.3532   -1.0205    0.8924 H         1 <1>         0.0344
     32 H13        -1.2953   -2.7772    0.7833 H         1 <1>         0.0334
     33 H14         2.7620   -1.1013    1.9512 H         1 <1>         0.1091
     34 H15         3.0169    0.6179    1.7886 H         1 <1>         0.1038
     35 H16         0.7542    0.3279    0.2847 H         1 <1>         0.0846
     36 H17         0.9148   -0.4954   -1.2580 H         1 <1>         0.0793
     37 H18         0.9112   -1.8710    1.4851 H         1 <1>         0.0404
     38 H19         3.2597   -1.1849   -0.6821 H         1 <1>         0.1837
     39 H20         7.7946    0.4230    1.7562 H         1 <1>         0.2983
@<TRIPOS>BOND
     1    1    2 ar
     2    1    5 ar
     3    2    6 ar
     4    3    6 ar
     5    3    8 ar
     6    4    7 2
     7    4   16 1
     8    5    7 1
     9    5    8 ar
    10    6    9 1
    11    7   12 1
    12    8   16 1
    13   10   14 1
    14   11   14 1
    15   12   15 1
    16   13   14 1
    17   13   15 1
    18   15   17 1
    19   17   18 1
    20   17   19 2
    21    1   20 1
    22    2   21 1
    23    3   22 1
    24    4   23 1
    25    9   24 1
    26    9   25 1
    27    9   26 1
    28   10   27 1
    29   10   28 1
    30   10   29 1
    31   11   30 1
    32   11   31 1
    33   11   32 1
    34   12   33 1
    35   12   34 1
    36   13   35 1
    37   13   36 1
    38   14   37 1
    39   15   38 1
    40   16   39 1
