@<TRIPOS>MOLECULE
AG-205/11218394
   36    39     0
SMALL
USER_CHARGE


@<TRIPOS>ATOM
      1 C1         -1.4133    2.5618    0.7416 C.ar      1 <1>        -0.0953
      2 C2          5.7805   -3.3989    2.6849 C.ar      1 <1>        -0.0874
      3 C3         -1.0465    1.3526    0.1509 C.ar      1 <1>        -0.0915
      4 C4         -0.5296    3.6409    0.7284 C.ar      1 <1>        -0.0884
      5 C5          5.4408   -2.1602    3.2288 C.ar      1 <1>        -0.0802
      6 C6          5.7053   -3.5998    1.3066 C.ar      1 <1>        -0.0782
      7 C7          0.2041    1.2226   -0.4531 C.ar      1 <1>        -0.0730
      8 C8          0.7210    3.5109    0.1245 C.ar      1 <1>        -0.0681
      9 C9          5.0259   -1.1223    2.3943 C.ar      1 <1>        -0.0584
     10 C10         5.2905   -2.5619    0.4722 C.ar      1 <1>        -0.0544
     11 C11         3.3252    0.3410    0.2483 C.2       1 <1>         0.0192
     12 C12         3.3730    1.2723   -0.7482 C.ar      1 <1>         0.0333
     13 C13         1.0879    2.3017   -0.4663 C.ar      1 <1>        -0.0340
     14 C14         4.6611    1.1515   -1.3852 C.ar      1 <1>         0.0465
     15 C15         4.9508   -1.3231    1.0160 C.ar      1 <1>        -0.0190
     16 C16         2.3698    2.1681   -1.0857 C.ar      1 <1>         0.0333
     17 C17         4.9967    1.9913   -2.4570 C.ar      1 <1>         0.0257
     18 C18         6.2744    1.9890   -3.2125 C.3       1 <1>         0.0131
     19 N1          5.3587    0.1739   -0.7817 N.2       1 <1>        -0.3233
     20 N2          2.7244    2.9675   -2.1269 N.ar      1 <1>        -0.3058
     21 N3          4.0198    2.8777   -2.8005 N.ar      1 <1>        -0.3066
     22 N4          4.5362   -0.2855    0.1829 N.pl3     1 <1>        -0.3026
     23 H1         -2.3878    2.6633    1.2103 H         1 <1>         0.1200
     24 H2          6.1053   -4.2068    3.3340 H         1 <1>         0.1263
     25 H3         -1.7351    0.5128    0.1596 H         1 <1>         0.1198
     26 H4         -0.8152    4.5832    1.1869 H         1 <1>         0.1233
     27 H5          5.5006   -2.0032    4.3017 H         1 <1>         0.1340
     28 H6          5.9714   -4.5643    0.8838 H         1 <1>         0.1350
     29 H7          0.4752    0.2735   -0.9096 H         1 <1>         0.1305
     30 H8          1.3991    4.3610    0.1213 H         1 <1>         0.1440
     31 H9          4.7648   -0.1614    2.8311 H         1 <1>         0.1453
     32 H10         5.2371   -2.7318   -0.6005 H         1 <1>         0.1570
     33 H11         2.5703    0.0706    0.9758 H         1 <1>         0.2526
     34 H12         6.2183    1.3032   -4.0698 H         1 <1>         0.1034
     35 H13         6.5228    2.9915   -3.5920 H         1 <1>         0.1002
     36 H14         7.1190    1.6773   -2.5797 H         1 <1>         0.1038
@<TRIPOS>BOND
     1    1    3 ar
     2    1    4 ar
     3    2    5 ar
     4    2    6 ar
     5    3    7 ar
     6    4    8 ar
     7    5    9 ar
     8    6   10 ar
     9    7   13 ar
    10    8   13 ar
    11    9   15 ar
    12   10   15 ar
    13   11   12 2
    14   11   22 1
    15   12   14 ar
    16   12   16 ar
    17   13   16 1
    18   14   17 ar
    19   14   19 2
    20   15   22 1
    21   16   20 ar
    22   17   18 1
    23   17   21 ar
    24   19   22 1
    25   20   21 ar
    26    1   23 1
    27    2   24 1
    28    3   25 1
    29    4   26 1
    30    5   27 1
    31    6   28 1
    32    7   29 1
    33    8   30 1
    34    9   31 1
    35   10   32 1
    36   11   33 1
    37   18   34 1
    38   18   35 1
    39   18   36 1
