@<TRIPOS>MOLECULE
AS-938/12583062
   43    46     0
SMALL
USER_CHARGE


@<TRIPOS>ATOM
      1 C1          0.2040    1.2258   -0.4499 C.ar      1 <1>        -0.0552
      2 C2          0.7238    3.5140    0.1253 C.ar      1 <1>        -0.0557
      3 C3          4.8871   -2.4392    3.1584 C.ar      1 <1>        -0.0815
      4 C4          6.2595   -3.3211    1.3763 C.ar      1 <1>        -0.0834
      5 C5          4.4718   -1.4009    2.3247 C.ar      1 <1>        -0.0542
      6 C6          5.8441   -2.2828    0.5426 C.ar      1 <1>        -0.0581
      7 C7         -1.0458    1.3577    0.1551 C.ar      1 <1>        -0.0544
      8 C8         -0.5261    3.6460    0.7304 C.ar      1 <1>        -0.0586
      9 C9          3.3253    0.3421    0.2494 C.2       1 <1>         0.0186
     10 C10         3.3729    1.2727   -0.7477 C.ar      1 <1>         0.0324
     11 C11         1.0888    2.3040   -0.4648 C.ar      1 <1>        -0.0273
     12 C12         5.7811   -3.3992    2.6843 C.ar      1 <1>        -0.1010
     13 C13         4.6605    1.1506   -1.3856 C.ar      1 <1>         0.0457
     14 C14         4.9501   -1.3227    1.0169 C.ar      1 <1>        -0.0186
     15 C15        -1.4110    2.5677    0.7452 C.ar      1 <1>        -0.0349
     16 C16         2.3701    2.1691   -1.0851 C.ar      1 <1>         0.0332
     17 C17         4.9960    1.9895   -2.4582 C.ar      1 <1>         0.0248
     18 C18         6.2253   -4.5094    3.5755 C.3       1 <1>        -0.0399
     19 C19         6.2730    1.9858   -3.2147 C.3       1 <1>         0.0125
     20 C20        -3.4861    1.5544    1.3137 C.3       1 <1>         0.0113
     21 N1          5.3579    0.1729   -0.7821 N.2       1 <1>        -0.3238
     22 N2          2.7245    2.9675   -2.1270 N.ar      1 <1>        -0.3073
     23 N3          4.0193    2.8764   -2.8016 N.ar      1 <1>        -0.3078
     24 N4          4.5358   -0.2853    0.1835 N.pl3     1 <1>        -0.3028
     25 O1         -2.6306    2.6963    1.3350 O.3       1 <1>        -0.4625
     26 H1          0.4740    0.2763   -0.9058 H         1 <1>         0.1472
     27 H2          1.4023    4.3637    0.1220 H         1 <1>         0.1537
     28 H3          4.5097   -2.4929    4.1761 H         1 <1>         0.1348
     29 H4          6.9563   -4.0645    0.9984 H         1 <1>         0.1340
     30 H5          3.7752   -0.6585    2.7071 H         1 <1>         0.1583
     31 H6          6.2255   -2.2342   -0.4744 H         1 <1>         0.1469
     32 H7         -1.7311    0.5144    0.1634 H         1 <1>         0.1463
     33 H8         -0.8051    4.5910    1.1884 H         1 <1>         0.1330
     34 H9          2.5707    0.0727    0.9776 H         1 <1>         0.2518
     35 H10         5.5501   -5.3687    3.4808 H         1 <1>         0.0634
     36 H11         7.2429   -4.8374    3.3267 H         1 <1>         0.0606
     37 H12         6.2415   -4.1939    4.6271 H         1 <1>         0.0606
     38 H13         6.2157    1.2995   -4.0715 H         1 <1>         0.1027
     39 H14         6.5218    2.9879   -3.5950 H         1 <1>         0.1031
     40 H15         7.1179    1.6739   -2.5823 H         1 <1>         0.0996
     41 H16        -4.4261    1.7929    1.8172 H         1 <1>         0.1330
     42 H17        -2.9927    0.7189    1.8165 H         1 <1>         0.1096
     43 H18        -3.6905    1.2829    0.2752 H         1 <1>         0.1099
@<TRIPOS>BOND
     1    1    7 ar
     2    1   11 ar
     3    2    8 ar
     4    2   11 ar
     5    3    5 ar
     6    3   12 ar
     7    4    6 ar
     8    4   12 ar
     9    5   14 ar
    10    6   14 ar
    11    7   15 ar
    12    8   15 ar
    13    9   10 2
    14    9   24 1
    15   10   13 ar
    16   10   16 ar
    17   11   16 1
    18   12   18 1
    19   13   17 ar
    20   13   21 2
    21   14   24 1
    22   15   25 1
    23   16   22 ar
    24   17   19 1
    25   17   23 ar
    26   20   25 1
    27   21   24 1
    28   22   23 ar
    29    1   26 1
    30    2   27 1
    31    3   28 1
    32    4   29 1
    33    5   30 1
    34    6   31 1
    35    7   32 1
    36    8   33 1
    37    9   34 1
    38   18   35 1
    39   18   36 1
    40   18   37 1
    41   19   38 1
    42   19   39 1
    43   19   40 1
    44   20   41 1
    45   20   42 1
    46   20   43 1
