@<TRIPOS>MOLECULE
AS-938/12583055
   40    43     0
SMALL
USER_CHARGE


@<TRIPOS>ATOM
      1 C1          0.2041    1.2248   -0.4503 C.ar      1 <1>        -0.0604
      2 C2          0.7233    3.5130    0.1254 C.ar      1 <1>        -0.0501
      3 C3          4.4718   -1.4005    2.3240 C.ar      1 <1>        -0.0375
      4 C4          5.8448   -2.2832    0.5427 C.ar      1 <1>        -0.0416
      5 C5         -1.0458    1.3562    0.1546 C.ar      1 <1>        -0.0613
      6 C6         -0.5266    3.6445    0.7304 C.ar      1 <1>        -0.0512
      7 C7          4.8865   -2.4387    3.1582 C.ar      1 <1>        -0.0400
      8 C8          6.2596   -3.3214    1.3770 C.ar      1 <1>        -0.0422
      9 C9          3.3256    0.3417    0.2490 C.2       1 <1>         0.0201
     10 C10         3.3732    1.2726   -0.7479 C.ar      1 <1>         0.0338
     11 C11         1.0888    2.3031   -0.4649 C.ar      1 <1>        -0.0269
     12 C12         4.6607    1.1508   -1.3858 C.ar      1 <1>         0.0472
     13 C13         4.9509   -1.3229    1.0163 C.ar      1 <1>        -0.0091
     14 C14        -1.4112    2.5659    0.7450 C.ar      1 <1>        -0.0345
     15 C15         5.7803   -3.3991    2.6847 C.ar      1 <1>        -0.0047
     16 C16         2.3701    2.1687   -1.0852 C.ar      1 <1>         0.0344
     17 C17         4.9961    1.9901   -2.4581 C.ar      1 <1>         0.0260
     18 C18         6.2731    1.9869   -3.2144 C.3       1 <1>         0.0131
     19 C19        -3.4861    1.5520    1.3129 C.3       1 <1>         0.0113
     20 N1          5.3583    0.1732   -0.7823 N.2       1 <1>        -0.3222
     21 N2          2.7244    2.9675   -2.1269 N.ar      1 <1>        -0.3059
     22 N3          4.0193    2.8768   -2.8014 N.ar      1 <1>        -0.3064
     23 N4          4.5363   -0.2855    0.1831 N.pl3     1 <1>        -0.2997
     24 O1         -2.6310    2.6941    1.3346 O.3       1 <1>        -0.4622
     25 Cl1         6.2938   -4.6784    3.7150 Cl        1 <1>        -0.1758
     26 H1          0.4744    0.2754   -0.9064 H         1 <1>         0.1401
     27 H2          1.4016    4.3628    0.1223 H         1 <1>         0.1611
     28 H3          3.7748   -0.6586    2.7062 H         1 <1>         0.1717
     29 H4          6.2262   -2.2344   -0.4743 H         1 <1>         0.1596
     30 H5         -1.7309    0.5126    0.1626 H         1 <1>         0.1301
     31 H6         -0.8060    4.5894    1.1886 H         1 <1>         0.1499
     32 H7          4.5048   -2.4873    4.1748 H         1 <1>         0.1613
     33 H8          6.9561   -4.0631    0.9945 H         1 <1>         0.1600
     34 H9          2.5712    0.0720    0.9771 H         1 <1>         0.2530
     35 H10         6.2162    1.3008   -4.0715 H         1 <1>         0.1032
     36 H11         6.5218    2.9891   -3.5947 H         1 <1>         0.1037
     37 H12         7.1181    1.6751   -2.5822 H         1 <1>         0.1000
     38 H13        -4.4262    1.7901    1.8165 H         1 <1>         0.1095
     39 H14        -2.9925    0.7165    1.8157 H         1 <1>         0.1092
     40 H15        -3.6904    1.2805    0.2744 H         1 <1>         0.1331
@<TRIPOS>BOND
     1    1    5 ar
     2    1   11 ar
     3    2    6 ar
     4    2   11 ar
     5    3    7 ar
     6    3   13 ar
     7    4    8 ar
     8    4   13 ar
     9    5   14 ar
    10    6   14 ar
    11    7   15 ar
    12    8   15 ar
    13    9   10 2
    14    9   23 1
    15   10   12 ar
    16   10   16 ar
    17   11   16 1
    18   12   17 ar
    19   12   20 2
    20   13   23 1
    21   14   24 1
    22   15   25 1
    23   16   21 ar
    24   17   18 1
    25   17   22 ar
    26   19   24 1
    27   20   23 1
    28   21   22 ar
    29    1   26 1
    30    2   27 1
    31    3   28 1
    32    4   29 1
    33    5   30 1
    34    6   31 1
    35    7   32 1
    36    8   33 1
    37    9   34 1
    38   18   35 1
    39   18   36 1
    40   18   37 1
    41   19   38 1
    42   19   39 1
    43   19   40 1
