@<TRIPOS>MOLECULE
AS-938/12583061
   42    45     0
SMALL
USER_CHARGE


@<TRIPOS>ATOM
      1 C1          0.4736    1.1939    0.1130 C.ar      1 <1>        -0.0678
      2 C2          0.4547    3.5461   -0.4383 C.ar      1 <1>        -0.0727
      3 C3         -0.7762    1.3255    0.7181 C.ar      1 <1>        -0.0913
      4 C4         -0.7952    3.6778    0.1669 C.ar      1 <1>        -0.0943
      5 C5          4.8870   -2.4392    3.1584 C.ar      1 <1>        -0.0834
      6 C6          6.2595   -3.3211    1.3764 C.ar      1 <1>        -0.0814
      7 C7          4.4717   -1.4009    2.3246 C.ar      1 <1>        -0.0582
      8 C8          5.8441   -2.2828    0.5427 C.ar      1 <1>        -0.0542
      9 C9          3.3254    0.3422    0.2492 C.2       1 <1>         0.0189
     10 C10         3.3732    1.2727   -0.7479 C.ar      1 <1>         0.0329
     11 C11         1.0891    2.3041   -0.4652 C.ar      1 <1>        -0.0336
     12 C12        -1.4107    2.5675    0.7451 C.ar      1 <1>        -0.1080
     13 C13         5.7810   -3.3992    2.6843 C.ar      1 <1>        -0.1010
     14 C14         4.6608    1.1506   -1.3858 C.ar      1 <1>         0.0462
     15 C15         4.9502   -1.3227    1.0169 C.ar      1 <1>        -0.0186
     16 C16         2.3705    2.1691   -1.0854 C.ar      1 <1>         0.0331
     17 C17         4.9964    1.9895   -2.4583 C.ar      1 <1>         0.0253
     18 C18        -2.7469    2.7084    1.3923 C.3       1 <1>        -0.0423
     19 C19         6.2250   -4.5094    3.5756 C.3       1 <1>        -0.0398
     20 C20         6.2735    1.9857   -3.2147 C.3       1 <1>         0.0128
     21 N1          5.3581    0.1728   -0.7821 N.2       1 <1>        -0.3236
     22 N2          2.7250    2.9676   -2.1273 N.ar      1 <1>        -0.3063
     23 N3          4.0198    2.8764   -2.8018 N.ar      1 <1>        -0.3070
     24 N4          4.5360   -0.2853    0.1833 N.pl3     1 <1>        -0.3027
     25 H1          0.9557    0.2192    0.1005 H         1 <1>         0.1454
     26 H2          0.9213    4.4208   -0.8851 H         1 <1>         0.1318
     27 H3         -1.2477    0.4555    1.1671 H         1 <1>         0.1234
     28 H4         -1.2826    4.6491    0.1829 H         1 <1>         0.1200
     29 H5          4.5095   -2.4928    4.1760 H         1 <1>         0.1340
     30 H6          6.9563   -4.0645    0.9986 H         1 <1>         0.1349
     31 H7          3.7751   -0.6584    2.7070 H         1 <1>         0.1467
     32 H8          6.2256   -2.2343   -0.4744 H         1 <1>         0.1584
     33 H9          2.5709    0.0728    0.9773 H         1 <1>         0.2520
     34 H10        -2.6324    2.9583    2.4542 H         1 <1>         0.0613
     35 H11        -3.3414    3.4961    0.9116 H         1 <1>         0.0591
     36 H12        -3.3274    1.7798    1.3139 H         1 <1>         0.0585
     37 H13         5.5499   -5.3687    3.4809 H         1 <1>         0.0635
     38 H14         7.2427   -4.8374    3.3269 H         1 <1>         0.0608
     39 H15         6.2412   -4.1939    4.6271 H         1 <1>         0.0607
     40 H16         6.2162    1.2994   -4.0716 H         1 <1>         0.1031
     41 H17         6.5224    2.9878   -3.5951 H         1 <1>         0.1035
     42 H18         7.1184    1.6738   -2.5823 H         1 <1>         0.0999
@<TRIPOS>BOND
     1    1    3 ar
     2    1   11 ar
     3    2    4 ar
     4    2   11 ar
     5    3   12 ar
     6    4   12 ar
     7    5    7 ar
     8    5   13 ar
     9    6    8 ar
    10    6   13 ar
    11    7   15 ar
    12    8   15 ar
    13    9   10 2
    14    9   24 1
    15   10   14 ar
    16   10   16 ar
    17   11   16 1
    18   12   18 1
    19   13   19 1
    20   14   17 ar
    21   14   21 2
    22   15   24 1
    23   16   22 ar
    24   17   20 1
    25   17   23 ar
    26   21   24 1
    27   22   23 ar
    28    1   25 1
    29    2   26 1
    30    3   27 1
    31    4   28 1
    32    5   29 1
    33    6   30 1
    34    7   31 1
    35    8   32 1
    36    9   33 1
    37   18   34 1
    38   18   35 1
    39   18   36 1
    40   19   37 1
    41   19   38 1
    42   19   39 1
    43   20   40 1
    44   20   41 1
    45   20   42 1
