@<TRIPOS>MOLECULE
AS-938/12583060
   39    42     0
SMALL
USER_CHARGE


@<TRIPOS>ATOM
      1 C1          0.4736    1.1939    0.1130 C.ar      1 <1>        -0.0561
      2 C2          0.4549    3.5462   -0.4379 C.ar      1 <1>        -0.0512
      3 C3          4.8870   -2.4392    3.1584 C.ar      1 <1>        -0.0812
      4 C4          6.2595   -3.3211    1.3764 C.ar      1 <1>        -0.0832
      5 C5          4.4717   -1.4009    2.3246 C.ar      1 <1>        -0.0540
      6 C6          5.8441   -2.2828    0.5427 C.ar      1 <1>        -0.0579
      7 C7         -0.7761    1.3257    0.7185 C.ar      1 <1>        -0.0533
      8 C8         -0.7949    3.6780    0.1675 C.ar      1 <1>        -0.0503
      9 C9          3.3254    0.3422    0.2492 C.2       1 <1>         0.0193
     10 C10         3.3732    1.2727   -0.7479 C.ar      1 <1>         0.0341
     11 C11         1.0891    2.3041   -0.4652 C.ar      1 <1>        -0.0241
     12 C12         5.7810   -3.3992    2.6843 C.ar      1 <1>        -0.1007
     13 C13         4.6608    1.1506   -1.3858 C.ar      1 <1>         0.0472
     14 C14         4.9502   -1.3227    1.0169 C.ar      1 <1>        -0.0183
     15 C15        -1.4102    2.5677    0.7457 C.ar      1 <1>        -0.0129
     16 C16         2.3705    2.1691   -1.0854 C.ar      1 <1>         0.0364
     17 C17         4.9964    1.9895   -2.4583 C.ar      1 <1>         0.0265
     18 C18         6.2250   -4.5094    3.5756 C.3       1 <1>        -0.0397
     19 C19         6.2735    1.9857   -3.2147 C.3       1 <1>         0.0136
     20 N1          5.3581    0.1728   -0.7821 N.2       1 <1>        -0.3227
     21 N2          2.7250    2.9676   -2.1273 N.ar      1 <1>        -0.3043
     22 N3          4.0198    2.8764   -2.8018 N.ar      1 <1>        -0.3055
     23 N4          4.5360   -0.2853    0.1833 N.pl3     1 <1>        -0.3022
     24 Cl1        -2.9515    2.7299    1.4943 Cl        1 <1>        -0.1819
     25 H1          0.9555    0.2191    0.0999 H         1 <1>         0.1452
     26 H2          0.9221    4.4213   -0.8834 H         1 <1>         0.1588
     27 H3          4.5095   -2.4928    4.1760 H         1 <1>         0.1352
     28 H4          6.9563   -4.0645    0.9986 H         1 <1>         0.1344
     29 H5          3.7751   -0.6584    2.7070 H         1 <1>         0.1587
     30 H6          6.2256   -2.2343   -0.4744 H         1 <1>         0.1470
     31 H7         -1.2435    0.4525    1.1669 H         1 <1>         0.1464
     32 H8         -1.2770    4.6522    0.1825 H         1 <1>         0.1497
     33 H9          2.5709    0.0728    0.9773 H         1 <1>         0.2522
     34 H10         5.5499   -5.3687    3.4809 H         1 <1>         0.0637
     35 H11         7.2427   -4.8374    3.3269 H         1 <1>         0.0609
     36 H12         6.2412   -4.1939    4.6271 H         1 <1>         0.0610
     37 H13         6.2162    1.2994   -4.0716 H         1 <1>         0.1042
     38 H14         6.5224    2.9878   -3.5951 H         1 <1>         0.1008
     39 H15         7.1184    1.6738   -2.5823 H         1 <1>         0.1044
@<TRIPOS>BOND
     1    1    7 ar
     2    1   11 ar
     3    2    8 ar
     4    2   11 ar
     5    3    5 ar
     6    3   12 ar
     7    4    6 ar
     8    4   12 ar
     9    5   14 ar
    10    6   14 ar
    11    7   15 ar
    12    8   15 ar
    13    9   10 2
    14    9   23 1
    15   10   13 ar
    16   10   16 ar
    17   11   16 1
    18   12   18 1
    19   13   17 ar
    20   13   20 2
    21   14   23 1
    22   15   24 1
    23   16   21 ar
    24   17   19 1
    25   17   22 ar
    26   20   23 1
    27   21   22 ar
    28    1   25 1
    29    2   26 1
    30    3   27 1
    31    4   28 1
    32    5   29 1
    33    6   30 1
    34    7   31 1
    35    8   32 1
    36    9   33 1
    37   18   34 1
    38   18   35 1
    39   18   36 1
    40   19   37 1
    41   19   38 1
    42   19   39 1
