@<TRIPOS>MOLECULE
AO-476/43201369
   43    47     0
SMALL
USER_CHARGE


@<TRIPOS>ATOM
      1 C1         -1.4310    2.6197    0.6919 C.ar      1 <1>        -0.0943
      2 C2          0.3428   -0.6801    3.0804 C.ar      1 <1>        -0.0910
      3 C3          5.8580   -3.3997    2.6498 C.ar      1 <1>        -0.0855
      4 C4         -1.0715    1.4022    0.1141 C.ar      1 <1>        -0.0885
      5 C5         -0.5344    3.6882    0.6822 C.ar      1 <1>        -0.0893
      6 C6          0.8687    0.6116    3.0564 C.ar      1 <1>        -0.0856
      7 C7          0.7983   -1.6356    2.1720 C.ar      1 <1>        -0.0878
      8 C8          5.5102   -2.1687    3.2061 C.ar      1 <1>        -0.0780
      9 C9          5.7655   -3.5934    1.2716 C.ar      1 <1>        -0.0770
     10 C10         0.1848    1.2530   -0.4733 C.ar      1 <1>        -0.0673
     11 C11         0.7218    3.5391    0.0947 C.ar      1 <1>        -0.0690
     12 C12         1.8501    0.9477    2.1240 C.ar      1 <1>        -0.0685
     13 C13         1.7798   -1.2995    1.2396 C.ar      1 <1>        -0.0714
     14 C14         5.0698   -1.1315    2.3840 C.ar      1 <1>        -0.0538
     15 C15         5.3251   -2.5561    0.4495 C.ar      1 <1>        -0.0519
     16 C16         3.3730    1.2723   -0.7481 C.ar      1 <1>         0.0597
     17 C17         1.0816    2.3214   -0.4830 C.ar      1 <1>        -0.0275
     18 C18         2.3057   -0.0077    1.2155 C.ar      1 <1>        -0.0350
     19 C19         4.6611    1.1514   -1.3852 C.ar      1 <1>         0.1010
     20 C20         4.9773   -1.3251    1.0056 C.ar      1 <1>        -0.0113
     21 C21         2.3698    2.1682   -1.0857 C.ar      1 <1>         0.0510
     22 C22         3.3252    0.3411    0.2484 C.2       1 <1>         0.0295
     23 C23         4.9967    1.9912   -2.4570 C.ar      1 <1>         0.1504
     24 N1          5.3587    0.1738   -0.7818 N.2       1 <1>        -0.2984
     25 N2          2.7244    2.9675   -2.1269 N.ar      1 <1>        -0.2800
     26 N3          4.0198    2.8777   -2.8005 N.ar      1 <1>        -0.2459
     27 N4          4.5362   -0.2855    0.1829 N.pl3     1 <1>        -0.2886
     28 Cl1         6.4745    1.9187   -3.2494 Cl        1 <1>        -0.0433
     29 H1         -2.4100    2.7361    1.1477 H         1 <1>         0.1203
     30 H2         -0.4211   -0.9420    3.8069 H         1 <1>         0.1257
     31 H3          6.2027   -4.2069    3.2893 H         1 <1>         0.1292
     32 H4         -1.7701    0.5708    0.1199 H         1 <1>         0.1217
     33 H5         -0.8143    4.6369    1.1306 H         1 <1>         0.1206
     34 H6          0.5137    1.3555    3.7637 H         1 <1>         0.1278
     35 H7          0.3895   -2.6418    2.1914 H         1 <1>         0.1248
     36 H8          5.5834   -2.0172    4.2791 H         1 <1>         0.1346
     37 H9          6.0379   -4.5519    0.8392 H         1 <1>         0.1352
     38 H10         0.4503    0.2976   -0.9198 H         1 <1>         0.1412
     39 H11         1.4101    4.3810    0.0944 H         1 <1>         0.1350
     40 H12         2.2520    1.9581    2.1197 H         1 <1>         0.1401
     41 H13         2.1237   -2.0553    0.5376 H         1 <1>         0.1333
     42 H14         4.8027   -0.1766    2.8303 H         1 <1>         0.1511
     43 H15         5.2585   -2.7205   -0.6232 H         1 <1>         0.1567
@<TRIPOS>BOND
     1    1    4 ar
     2    1    5 ar
     3    2    6 ar
     4    2    7 ar
     5    3    8 ar
     6    3    9 ar
     7    4   10 ar
     8    5   11 ar
     9    6   12 ar
    10    7   13 ar
    11    8   14 ar
    12    9   15 ar
    13   10   17 ar
    14   11   17 ar
    15   12   18 ar
    16   13   18 ar
    17   14   20 ar
    18   15   20 ar
    19   16   19 ar
    20   16   21 ar
    21   16   22 2
    22   17   21 1
    23   18   22 1
    24   19   23 ar
    25   19   24 2
    26   20   27 1
    27   21   25 ar
    28   22   27 1
    29   23   26 ar
    30   23   28 1
    31   24   27 1
    32   25   26 ar
    33    1   29 1
    34    2   30 1
    35    3   31 1
    36    4   32 1
    37    5   33 1
    38    6   34 1
    39    7   35 1
    40    8   36 1
    41    9   37 1
    42   10   38 1
    43   11   39 1
    44   12   40 1
    45   13   41 1
    46   14   42 1
    47   15   43 1
