@<TRIPOS>MOLECULE
AO-476/43249983
   44    48     0
SMALL
USER_CHARGE


@<TRIPOS>ATOM
      1 C1          0.4316   -0.6350    3.1485 C.ar      1 <1>        -0.0932
      2 C2         -1.3759    2.6825    0.5816 C.ar      1 <1>        -0.0946
      3 C3          5.9541   -3.4395    2.6258 C.ar      1 <1>        -0.0860
      4 C4          0.9687    0.6512    3.0981 C.ar      1 <1>        -0.0879
      5 C5          0.8678   -1.6087    2.2499 C.ar      1 <1>        -0.0900
      6 C6         -1.0178    1.4750   -0.0179 C.ar      1 <1>        -0.0889
      7 C7         -0.4750    3.7473    0.5977 C.ar      1 <1>        -0.0886
      8 C8          5.6223   -2.2065    3.1875 C.ar      1 <1>        -0.0779
      9 C9          5.8336   -3.6340    1.2500 C.ar      1 <1>        -0.0772
     10 C10         1.9420    0.9639    2.1491 C.ar      1 <1>        -0.0715
     11 C11         1.8410   -1.2960    1.3009 C.ar      1 <1>        -0.0744
     12 C12         0.2411    1.3323   -0.6014 C.ar      1 <1>        -0.0673
     13 C13         0.7841    3.6046    0.0144 C.ar      1 <1>        -0.0676
     14 C14         5.1700   -1.1682    2.3733 C.ar      1 <1>        -0.0525
     15 C15         5.3812   -2.5956    0.4357 C.ar      1 <1>        -0.0512
     16 C16         2.3781   -0.0097    1.2504 C.ar      1 <1>        -0.0385
     17 C17         1.1421    2.3971   -0.5852 C.ar      1 <1>        -0.0286
     18 C18         3.3970    1.2454   -0.7395 C.2       1 <1>         0.0670
     19 C19         5.0495   -1.3628    0.9973 C.ar      1 <1>        -0.0086
     20 C20         3.3879    0.3145    0.2670 C.2       1 <1>         0.0308
     21 C21         4.6530    1.1066   -1.3452 C.2       1 <1>         0.1208
     22 C22         2.4741    2.2461   -1.2023 C.2       1 <1>         0.0420
     23 C23         5.0459    1.9612   -2.4321 C.2       1 <1>         0.1588
     24 N1          5.3961    0.1442   -0.7974 N.2       1 <1>        -0.2787
     25 N2          2.8329    3.0380   -2.1740 N.2       1 <1>        -0.3067
     26 N3          4.5967   -0.3227    0.1827 N.pl3     1 <1>        -0.2825
     27 N4          4.0708    2.8980   -2.7651 N.am      1 <1>        -0.2278
     28 O1          6.1314    1.8715   -2.9969 O.2       1 <1>        -0.4694
     29 H1         -0.3257   -0.8787    3.8880 H         1 <1>         0.1224
     30 H2         -2.3561    2.7936    1.0358 H         1 <1>         0.1191
     31 H3          6.3079   -4.2476    3.2592 H         1 <1>         0.1282
     32 H4          0.6287    1.4093    3.7976 H         1 <1>         0.1253
     33 H5          0.4505   -2.6107    2.2900 H         1 <1>         0.1223
     34 H6         -1.7194    0.6460   -0.0303 H         1 <1>         0.1206
     35 H7         -0.7539    4.6875    1.0643 H         1 <1>         0.1211
     36 H8          5.7173   -2.0543    4.2588 H         1 <1>         0.1342
     37 H9          6.0935   -4.5940    0.8130 H         1 <1>         0.1346
     38 H10         2.3526    1.9704    2.1242 H         1 <1>         0.1379
     39 H11         2.1697   -2.0658    0.6069 H         1 <1>         0.1308
     40 H12         0.5098    0.3870   -1.0658 H         1 <1>         0.1399
     41 H13         1.4780    4.4410    0.0330 H         1 <1>         0.1373
     42 H14         4.9155   -0.2119    2.8239 H         1 <1>         0.1525
     43 H15         5.2928   -2.7607   -0.6355 H         1 <1>         0.1562
     44 H16         4.2934    3.5419   -3.5179 H         1 <1>         0.4079
@<TRIPOS>BOND
     1    1    4 ar
     2    1    5 ar
     3    2    6 ar
     4    2    7 ar
     5    3    8 ar
     6    3    9 ar
     7    4   10 ar
     8    5   11 ar
     9    6   12 ar
    10    7   13 ar
    11    8   14 ar
    12    9   15 ar
    13   10   16 ar
    14   11   16 ar
    15   12   17 ar
    16   13   17 ar
    17   14   19 ar
    18   15   19 ar
    19   16   20 1
    20   17   22 1
    21   18   20 2
    22   18   21 1
    23   18   22 1
    24   19   26 1
    25   20   26 1
    26   21   23 1
    27   21   24 2
    28   22   25 2
    29   23   27 am
    30   23   28 2
    31   24   26 1
    32   25   27 1
    33    1   29 1
    34    2   30 1
    35    3   31 1
    36    4   32 1
    37    5   33 1
    38    6   34 1
    39    7   35 1
    40    8   36 1
    41    9   37 1
    42   10   38 1
    43   11   39 1
    44   12   40 1
    45   13   41 1
    46   14   42 1
    47   15   43 1
    48   27   44 1
