@<TRIPOS>MOLECULE
AO-476/43201397
   44    48     0
SMALL
USER_CHARGE


@<TRIPOS>ATOM
      1 C1          0.2942   -0.7974    3.0377 C.ar      1 <1>        -0.0914
      2 C2         -1.4290    2.6450    0.6775 C.ar      1 <1>        -0.0927
      3 C3          5.9067   -3.4373    2.6486 C.ar      1 <1>        -0.0864
      4 C4          0.3526   -1.4155    1.7886 C.ar      1 <1>        -0.0861
      5 C5          1.2313    0.1785    3.3773 C.ar      1 <1>        -0.0880
      6 C6         -0.3457    3.3980    1.1307 C.ar      1 <1>        -0.0872
      7 C7         -1.2640    1.7537   -0.3826 C.ar      1 <1>        -0.0869
      8 C8          5.5299   -2.2215    3.2192 C.ar      1 <1>        -0.0788
      9 C9          5.8284   -3.6135    1.2671 C.ar      1 <1>        -0.0775
     10 C10         1.3480   -1.0579    0.8793 C.ar      1 <1>        -0.0690
     11 C11         2.2267    0.5362    2.4681 C.ar      1 <1>        -0.0715
     12 C12         0.9025    3.2595    0.5236 C.ar      1 <1>        -0.0658
     13 C13        -0.0159    1.6152   -0.9896 C.ar      1 <1>        -0.0659
     14 C14         5.0748   -1.1819    2.4082 C.ar      1 <1>        -0.0544
     15 C15         5.3735   -2.5737    0.4561 C.ar      1 <1>        -0.0522
     16 C16         2.2851   -0.0819    1.2190 C.ar      1 <1>        -0.0349
     17 C17         1.0674    2.3682   -0.5365 C.ar      1 <1>        -0.0271
     18 C18         3.3395    1.2511   -0.7014 C.2       1 <1>         0.0557
     19 C19         4.9967   -1.3580    1.0267 C.ar      1 <1>        -0.0102
     20 C20         3.3167    0.2895    0.2757 C.2       1 <1>         0.0320
     21 C21         4.6028    1.1262   -1.3083 C.2       1 <1>         0.0697
     22 C22         2.3881    2.2217   -1.1789 C.2       1 <1>         0.0399
     23 C23         4.9330    1.9765   -2.4184 C.2       1 <1>         0.0212
     24 N1          5.3493    0.1718   -0.7450 N.2       1 <1>        -0.2931
     25 N2          2.6959    2.9705   -2.2015 N.2       1 <1>        -0.3186
     26 N3          4.5411   -0.3165    0.2153 N.pl3     1 <1>        -0.2837
     27 N4          3.9311    2.8509   -2.8003 N.pl3     1 <1>        -0.2723
     28 S1          6.4156    1.8782   -3.1623 S.2       1 <1>        -0.2291
     29 H1         -0.4813   -1.0754    3.7453 H         1 <1>         0.1252
     30 H2         -2.4007    2.7529    1.1502 H         1 <1>         0.1223
     31 H3          6.2628   -4.2465    3.2794 H         1 <1>         0.1277
     32 H4         -0.3770   -2.1755    1.5244 H         1 <1>         0.1271
     33 H5          1.1850    0.6606    4.3496 H         1 <1>         0.1246
     34 H6         -0.4744    4.0922    1.9559 H         1 <1>         0.1228
     35 H7         -2.1074    1.1672   -0.7352 H         1 <1>         0.1234
     36 H8          5.5920   -2.0837    4.2947 H         1 <1>         0.1335
     37 H9          6.1234   -4.5601    0.8234 H         1 <1>         0.1348
     38 H10         1.3786   -1.5470   -0.0914 H         1 <1>         0.1396
     39 H11         2.9503    1.2978    2.7483 H         1 <1>         0.1337
     40 H12         1.7399    3.8511    0.8847 H         1 <1>         0.1414
     41 H13         0.1010    0.9176   -1.8150 H         1 <1>         0.1394
     42 H14         4.7851   -0.2390    2.8656 H         1 <1>         0.1498
     43 H15         5.3183   -2.7243   -0.6193 H         1 <1>         0.1560
     44 H16         4.0740    3.4843   -3.5808 H         1 <1>         0.4027
@<TRIPOS>BOND
     1    1    4 ar
     2    1    5 ar
     3    2    6 ar
     4    2    7 ar
     5    3    8 ar
     6    3    9 ar
     7    4   10 ar
     8    5   11 ar
     9    6   12 ar
    10    7   13 ar
    11    8   14 ar
    12    9   15 ar
    13   10   16 ar
    14   11   16 ar
    15   12   17 ar
    16   13   17 ar
    17   14   19 ar
    18   15   19 ar
    19   16   20 1
    20   17   22 1
    21   18   20 2
    22   18   21 1
    23   18   22 1
    24   19   26 1
    25   20   26 1
    26   21   23 1
    27   21   24 2
    28   22   25 2
    29   23   27 1
    30   23   28 2
    31   24   26 1
    32   25   27 1
    33    1   29 1
    34    2   30 1
    35    3   31 1
    36    4   32 1
    37    5   33 1
    38    6   34 1
    39    7   35 1
    40    8   36 1
    41    9   37 1
    42   10   38 1
    43   11   39 1
    44   12   40 1
    45   13   41 1
    46   14   42 1
    47   15   43 1
    48   27   44 1
