@<TRIPOS>MOLECULE
AO-476/43250023
   37    40     0
SMALL
USER_CHARGE


@<TRIPOS>ATOM
      1 C1          5.7059   -3.4905    2.8247 C.ar      1 <1>        -0.0956
      2 C2          4.7971   -2.5702    3.3468 C.ar      1 <1>        -0.0892
      3 C3          6.1375   -3.3720    1.5036 C.ar      1 <1>        -0.0916
      4 C4          4.3199   -1.5312    2.5478 C.ar      1 <1>        -0.0694
      5 C5          5.6602   -2.3330    0.7045 C.ar      1 <1>        -0.0739
      6 C6          1.0942    2.8013    0.8930 C.ar      1 <1>        -0.0592
      7 C7          0.1770    1.1908   -0.6568 C.ar      1 <1>        -0.0609
      8 C8         -0.1854    3.3052    1.1266 C.ar      1 <1>        -0.0301
      9 C9         -1.1025    1.6946   -0.4231 C.ar      1 <1>        -0.0311
     10 C10         2.9987    0.1902    0.5966 C.ar      1 <1>        -0.0283
     11 C11         5.1800    2.5209   -3.1147 C.ar      1 <1>         0.0404
     12 C12         3.4878    1.6746   -1.2356 C.ar      1 <1>         0.0215
     13 C13         1.2753    1.7442    0.0012 C.ar      1 <1>        -0.0534
     14 C14         4.7514   -1.4127    1.2266 C.ar      1 <1>        -0.0441
     15 C15         2.6084    1.2194   -0.2421 C.ar      1 <1>        -0.0179
     16 C16        -1.2837    2.7518    0.4686 C.ar      1 <1>         0.0468
     17 C17         4.2573   -0.3370    0.3999 C.ar      1 <1>        -0.0035
     18 C18         4.7506    1.0858   -1.3697 C.ar      1 <1>         0.0475
     19 C19         3.1675    2.7044   -2.1168 C.ar      1 <1>         0.0182
     20 N1          5.5940    1.5158   -2.3148 N.ar      1 <1>        -0.3318
     21 N2          3.9982    3.1520   -3.0730 N.ar      1 <1>        -0.3494
     22 N3          5.1206    0.0896   -0.5533 N.ar      1 <1>        -0.3450
     23 N4          1.9209    3.3656   -2.0671 N.pl3     1 <1>        -0.3300
     24 F1         -2.5124    3.2356    0.6929 F         1 <1>        -0.3386
     25 H1          6.0787   -4.2983    3.4476 H         1 <1>         0.1200
     26 H2          4.4623   -2.6614    4.3759 H         1 <1>         0.1214
     27 H3          6.8462   -4.0873    1.0968 H         1 <1>         0.1194
     28 H4          3.6119   -0.8215    2.9695 H         1 <1>         0.1474
     29 H5          6.0061   -2.2530   -0.3234 H         1 <1>         0.1346
     30 H6          1.9403    3.2435    1.4136 H         1 <1>         0.1507
     31 H7          0.3019    0.3662   -1.3546 H         1 <1>         0.1467
     32 H8         -0.3267    4.1284    1.8208 H         1 <1>         0.1549
     33 H9         -1.9581    1.2641   -0.9350 H         1 <1>         0.1547
     34 H10         2.3472   -0.1905    1.3783 H         1 <1>         0.1677
     35 H11         5.8798    2.8510   -3.8727 H         1 <1>         0.3157
     36 H12         1.2321    3.0565   -1.4126 H         1 <1>         0.2690
     37 H13         1.7152    4.0668   -2.7486 H         1 <1>         0.2662
@<TRIPOS>BOND
     1    1    2 ar
     2    1    3 ar
     3    2    4 ar
     4    3    5 ar
     5    4   14 ar
     6    5   14 ar
     7    6    8 ar
     8    6   13 ar
     9    7    9 ar
    10    7   13 ar
    11    8   16 ar
    12    9   16 ar
    13   10   15 ar
    14   10   17 ar
    15   11   20 ar
    16   11   21 ar
    17   12   15 ar
    18   12   18 ar
    19   12   19 ar
    20   13   15 1
    21   14   17 1
    22   16   24 1
    23   17   22 ar
    24   18   20 ar
    25   18   22 ar
    26   19   21 ar
    27   19   23 1
    28    1   25 1
    29    2   26 1
    30    3   27 1
    31    4   28 1
    32    5   29 1
    33    6   30 1
    34    7   31 1
    35    8   32 1
    36    9   33 1
    37   10   34 1
    38   11   35 1
    39   23   36 1
    40   23   37 1
