@<TRIPOS>MOLECULE
AO-476/15578132
   41    44     0
SMALL
USER_CHARGE


@<TRIPOS>ATOM
      1 C1         -1.2838    2.7519    0.4689 C.ar      1 <1>        -0.0980
      2 C2         -0.1854    3.3052    1.1267 C.ar      1 <1>        -0.0949
      3 C3         -1.1027    1.6945   -0.4228 C.ar      1 <1>        -0.0959
      4 C4          1.0941    2.8015    0.8928 C.ar      1 <1>        -0.0846
      5 C5          0.1767    1.1907   -0.6567 C.ar      1 <1>        -0.0863
      6 C6          4.8676   -1.2355    2.6057 C.ar      1 <1>        -0.0571
      7 C7          5.1123   -2.6284    0.6469 C.ar      1 <1>        -0.0560
      8 C8          5.3451   -2.2746    3.4043 C.ar      1 <1>        -0.0594
      9 C9          5.5897   -3.6676    1.4456 C.ar      1 <1>        -0.0546
     10 C10         2.9985    0.1904    0.5966 C.ar      1 <1>        -0.0301
     11 C11         5.1801    2.5209   -3.1145 C.ar      1 <1>         0.0390
     12 C12         3.4878    1.6747   -1.2355 C.ar      1 <1>         0.0201
     13 C13         1.2752    1.7441    0.0011 C.ar      1 <1>        -0.0661
     14 C14         4.7513   -1.4124    1.2270 C.ar      1 <1>        -0.0376
     15 C15         2.6084    1.2194   -0.2422 C.ar      1 <1>        -0.0214
     16 C16         5.7062   -3.4907    2.8242 C.ar      1 <1>        -0.0351
     17 C17         4.2572   -0.3367    0.4003 C.ar      1 <1>        -0.0042
     18 C18         4.7507    1.0858   -1.3694 C.ar      1 <1>         0.0458
     19 C19         3.1675    2.7043   -2.1169 C.ar      1 <1>         0.0174
     20 C20         6.5236   -5.7207    2.9456 C.3       1 <1>         0.0114
     21 N1          5.5941    1.5159   -2.3145 N.ar      1 <1>        -0.3332
     22 N2          3.9983    3.1520   -3.0730 N.ar      1 <1>        -0.3505
     23 N3          5.1205    0.0897   -0.5530 N.ar      1 <1>        -0.3471
     24 N4          1.9209    3.3656   -2.0673 N.pl3     1 <1>        -0.3299
     25 O1          6.1726   -4.5042    3.6036 O.3       1 <1>        -0.4625
     26 H1         -2.2802    3.1432    0.6525 H         1 <1>         0.1192
     27 H2         -0.3263    4.1274    1.8222 H         1 <1>         0.1190
     28 H3         -1.9578    1.2624   -0.9344 H         1 <1>         0.1189
     29 H4          1.9403    3.2435    1.4136 H         1 <1>         0.1320
     30 H5          0.3022    0.3659   -1.3541 H         1 <1>         0.1280
     31 H6          4.5903   -0.2933    3.0725 H         1 <1>         0.1570
     32 H7          5.0273   -2.7819   -0.4262 H         1 <1>         0.1515
     33 H8          5.4338   -2.1308    4.4776 H         1 <1>         0.1311
     34 H9          5.8698   -4.6126    0.9881 H         1 <1>         0.1458
     35 H10         2.3470   -0.1903    1.3783 H         1 <1>         0.1655
     36 H11         5.8800    2.8510   -3.8724 H         1 <1>         0.3141
     37 H12         6.8801   -6.4446    3.6824 H         1 <1>         0.1330
     38 H13         7.3031   -5.5239    2.2054 H         1 <1>         0.1099
     39 H14         5.6397   -6.1209    2.4433 H         1 <1>         0.1099
     40 H15         1.2321    3.0564   -1.4128 H         1 <1>         0.2701
     41 H16         1.7152    4.0667   -2.7489 H         1 <1>         0.2658
@<TRIPOS>BOND
     1    1    2 ar
     2    1    3 ar
     3    2    4 ar
     4    3    5 ar
     5    4   13 ar
     6    5   13 ar
     7    6    8 ar
     8    6   14 ar
     9    7    9 ar
    10    7   14 ar
    11    8   16 ar
    12    9   16 ar
    13   10   15 ar
    14   10   17 ar
    15   11   21 ar
    16   11   22 ar
    17   12   15 ar
    18   12   18 ar
    19   12   19 ar
    20   13   15 1
    21   14   17 1
    22   16   25 1
    23   17   23 ar
    24   18   21 ar
    25   18   23 ar
    26   19   22 ar
    27   19   24 1
    28   20   25 1
    29    1   26 1
    30    2   27 1
    31    3   28 1
    32    4   29 1
    33    5   30 1
    34    6   31 1
    35    7   32 1
    36    8   33 1
    37    9   34 1
    38   10   35 1
    39   11   36 1
    40   20   37 1
    41   20   38 1
    42   20   39 1
    43   24   40 1
    44   24   41 1
