@<TRIPOS>MOLECULE
AI-031/11219617
   33    36     0
SMALL
USER_CHARGE


@<TRIPOS>ATOM
      1 C1          5.7949   -3.4096    2.6865 C.ar      1 <1>        -0.0872
      2 C2          5.4531   -2.1733    3.2344 C.ar      1 <1>        -0.0799
      3 C3          5.7163   -3.6074    1.3080 C.ar      1 <1>        -0.0780
      4 C4         -1.0554    1.8576    0.3770 C.2       1 <1>        -0.0733
      5 C5          5.0326   -1.1346    2.4036 C.ar      1 <1>        -0.0579
      6 C6          5.2958   -2.5688    0.4772 C.ar      1 <1>        -0.0540
      7 C7          0.0779    1.3418   -0.3157 C.2       1 <1>        -0.0565
      8 C8          3.3209    0.3285    0.2664 C.2       1 <1>         0.0219
      9 C9         -0.8767    3.1696    0.7570 C.2       1 <1>        -0.0431
     10 C10         3.3618    1.2607   -0.7296 C.ar      1 <1>         0.0402
     11 C11         4.6477    1.1446   -1.3718 C.ar      1 <1>         0.0504
     12 C12         4.9539   -1.3324    1.0251 C.ar      1 <1>        -0.0183
     13 C13         2.3543    2.1535   -1.0625 C.ar      1 <1>         0.0510
     14 C14         1.0797    2.2794   -0.4388 C.2       1 <1>         0.0028
     15 C15         4.9764    1.9863   -2.4441 C.ar      1 <1>         0.0292
     16 C16         6.2501    1.9865   -3.2066 C.3       1 <1>         0.0145
     17 N1          5.3509    0.1688   -0.7718 N.2       1 <1>        -0.3209
     18 N2          2.7022    2.9548   -2.1044 N.ar      1 <1>        -0.2962
     19 N3          3.9952    2.8699   -2.7832 N.ar      1 <1>        -0.3010
     20 N4          4.5337   -0.2940    0.1957 N.pl3     1 <1>        -0.3010
     21 S1          0.6525    3.7742    0.2791 S.3       1 <1>        -0.1517
     22 H1          6.1241   -4.2180    3.3327 H         1 <1>         0.1267
     23 H2          5.5155   -2.0186    4.3075 H         1 <1>         0.1345
     24 H3          5.9841   -4.5700    0.8820 H         1 <1>         0.1352
     25 H4         -1.9564    1.2956    0.5854 H         1 <1>         0.1224
     26 H5          4.7698   -0.1755    2.8435 H         1 <1>         0.1458
     27 H6          5.2398   -2.7363   -0.5956 H         1 <1>         0.1573
     28 H7          0.1462    0.3324   -0.7025 H         1 <1>         0.1431
     29 H8          2.5702    0.0552    0.9968 H         1 <1>         0.2537
     30 H9         -1.5711    3.8019    1.2919 H         1 <1>         0.1792
     31 H10         6.1898    1.3017   -4.0645 H         1 <1>         0.1049
     32 H11         6.4952    2.9898   -3.5862 H         1 <1>         0.1050
     33 H12         7.0984    1.6748   -2.5788 H         1 <1>         0.1015
@<TRIPOS>BOND
     1    1    2 ar
     2    1    3 ar
     3    2    5 ar
     4    3    6 ar
     5    4    7 1
     6    4    9 2
     7    5   12 ar
     8    6   12 ar
     9    7   14 2
    10    8   10 2
    11    8   20 1
    12    9   21 1
    13   10   11 ar
    14   10   13 ar
    15   11   15 ar
    16   11   17 2
    17   12   20 1
    18   13   14 1
    19   13   18 ar
    20   14   21 1
    21   15   16 1
    22   15   19 ar
    23   17   20 1
    24   18   19 ar
    25    1   22 1
    26    2   23 1
    27    3   24 1
    28    4   25 1
    29    5   26 1
    30    6   27 1
    31    7   28 1
    32    8   29 1
    33    9   30 1
    34   16   31 1
    35   16   32 1
    36   16   33 1
