@<TRIPOS>MOLECULE
AO-476/15578130
   37    40     0
SMALL
USER_CHARGE


@<TRIPOS>ATOM
      1 C1          5.7061   -3.4907    2.8246 C.ar      1 <1>        -0.0955
      2 C2          4.7973   -2.5703    3.3468 C.ar      1 <1>        -0.0892
      3 C3          6.1377   -3.3720    1.5036 C.ar      1 <1>        -0.0916
      4 C4          4.3200   -1.5313    2.5479 C.ar      1 <1>        -0.0694
      5 C5          5.6602   -2.3331    0.7045 C.ar      1 <1>        -0.0738
      6 C6          1.0941    2.8013    0.8933 C.ar      1 <1>        -0.0693
      7 C7          0.1771    1.1909   -0.6569 C.ar      1 <1>        -0.0677
      8 C8         -0.1854    3.3053    1.1264 C.ar      1 <1>        -0.0576
      9 C9         -1.1024    1.6949   -0.4237 C.ar      1 <1>        -0.0567
     10 C10         2.9987    0.1901    0.5967 C.ar      1 <1>        -0.0280
     11 C11         5.1798    2.5209   -3.1145 C.ar      1 <1>         0.0405
     12 C12         3.4878    1.6745   -1.2353 C.ar      1 <1>         0.0218
     13 C13         1.2753    1.7440    0.0015 C.ar      1 <1>        -0.0561
     14 C14         4.7515   -1.4127    1.2267 C.ar      1 <1>        -0.0440
     15 C15         2.6085    1.2193   -0.2420 C.ar      1 <1>        -0.0177
     16 C16        -1.2837    2.7522    0.4682 C.ar      1 <1>        -0.0150
     17 C17         4.2573   -0.3370    0.4001 C.ar      1 <1>        -0.0033
     18 C18         4.7506    1.0856   -1.3696 C.ar      1 <1>         0.0478
     19 C19         3.1674    2.7043   -2.1167 C.ar      1 <1>         0.0184
     20 N1          5.5940    1.5158   -2.3147 N.ar      1 <1>        -0.3316
     21 N2          3.9981    3.1520   -3.0728 N.ar      1 <1>        -0.3493
     22 N3          5.1205    0.0895   -0.5533 N.ar      1 <1>        -0.3448
     23 N4          1.9208    3.3656   -2.0669 N.pl3     1 <1>        -0.3298
     24 Cl1        -2.8619    3.3756    0.7553 Cl        1 <1>        -0.1811
     25 H1          6.0789   -4.2984    3.4475 H         1 <1>         0.1201
     26 H2          4.4624   -2.6615    4.3760 H         1 <1>         0.1214
     27 H3          6.8463   -4.0874    1.0967 H         1 <1>         0.1194
     28 H4          3.6120   -0.8216    2.9696 H         1 <1>         0.1474
     29 H5          6.0062   -2.2530   -0.3233 H         1 <1>         0.1346
     30 H6          1.9403    3.2431    1.4139 H         1 <1>         0.1429
     31 H7          0.3022    0.3670   -1.3557 H         1 <1>         0.1467
     32 H8         -0.3122    4.1307    1.8227 H         1 <1>         0.1455
     33 H9         -1.9491    1.2550   -0.9445 H         1 <1>         0.1455
     34 H10         2.3473   -0.1906    1.3784 H         1 <1>         0.1680
     35 H11         5.8797    2.8509   -3.8726 H         1 <1>         0.3159
     36 H12         1.2320    3.0564   -1.4123 H         1 <1>         0.2664
     37 H13         1.7151    4.0667   -2.7484 H         1 <1>         0.2693
@<TRIPOS>BOND
     1    1    2 ar
     2    1    3 ar
     3    2    4 ar
     4    3    5 ar
     5    4   14 ar
     6    5   14 ar
     7    6    8 ar
     8    6   13 ar
     9    7    9 ar
    10    7   13 ar
    11    8   16 ar
    12    9   16 ar
    13   10   15 ar
    14   10   17 ar
    15   11   20 ar
    16   11   21 ar
    17   12   15 ar
    18   12   18 ar
    19   12   19 ar
    20   13   15 1
    21   14   17 1
    22   16   24 1
    23   17   22 ar
    24   18   20 ar
    25   18   22 ar
    26   19   21 ar
    27   19   23 1
    28    1   25 1
    29    2   26 1
    30    3   27 1
    31    4   28 1
    32    5   29 1
    33    6   30 1
    34    7   31 1
    35    8   32 1
    36    9   33 1
    37   10   34 1
    38   11   35 1
    39   23   36 1
    40   23   37 1
