@<TRIPOS>MOLECULE
AO-476/43249986
   44    48     0
SMALL
USER_CHARGE


@<TRIPOS>ATOM
      1 C1          0.4311   -0.6315    3.1509 C.ar      1 <1>        -0.0930
      2 C2         -1.3762    2.6838    0.5809 C.ar      1 <1>        -0.0946
      3 C3          0.9682    0.6547    3.0992 C.ar      1 <1>        -0.0875
      4 C4          0.8673   -1.6060    2.2532 C.ar      1 <1>        -0.0900
      5 C5         -1.0182    1.4757   -0.0175 C.ar      1 <1>        -0.0886
      6 C6         -0.4753    3.7485    0.5961 C.ar      1 <1>        -0.0888
      7 C7          5.8330   -3.6333    1.2466 C.ar      1 <1>        -0.0637
      8 C8          5.9562   -3.4417    2.6227 C.ar      1 <1>        -0.0595
      9 C9          1.9415    0.9665    2.1500 C.ar      1 <1>        -0.0710
     10 C10         1.8405   -1.2942    1.3038 C.ar      1 <1>        -0.0746
     11 C11         0.2408    1.3325   -0.6008 C.ar      1 <1>        -0.0676
     12 C12         0.7837    3.6053    0.0130 C.ar      1 <1>        -0.0672
     13 C13         5.3795   -2.5931    0.4354 C.ar      1 <1>        -0.0271
     14 C14         5.6257   -2.2099    3.1877 C.ar      1 <1>        -0.0113
     15 C15         2.3776   -0.0079    1.2523 C.ar      1 <1>        -0.0377
     16 C16         1.1417    2.3972   -0.5855 C.ar      1 <1>        -0.0284
     17 C17         3.3966    1.2453   -0.7388 C.2       1 <1>         0.0684
     18 C18         5.0489   -1.3614    1.0004 C.ar      1 <1>         0.0551
     19 C19         5.1722   -1.1698    2.3765 C.ar      1 <1>         0.0965
     20 C20         3.3875    0.3153    0.2686 C.2       1 <1>         0.0355
     21 C21         4.6526    1.1059   -1.3444 C.2       1 <1>         0.1227
     22 C22         2.4738    2.2456   -1.2025 C.2       1 <1>         0.0426
     23 C23         5.0456    1.9596   -2.4321 C.2       1 <1>         0.1602
     24 N1          5.3956    0.1440   -0.7957 N.2       1 <1>        -0.2736
     25 N2          2.8326    3.0367   -2.1749 N.2       1 <1>        -0.3063
     26 N3          4.5963   -0.3219    0.1848 N.pl3     1 <1>        -0.2632
     27 N4          4.0705    2.8961   -2.7659 N.am      1 <1>        -0.2272
     28 O1          6.1310    1.8694   -2.9968 O.2       1 <1>        -0.4683
     29 F1          4.8584    0.0093    2.9328 F         1 <1>        -0.3073
     30 H1         -0.3262   -0.8745    3.8905 H         1 <1>         0.1227
     31 H2         -2.3565    2.7953    1.0350 H         1 <1>         0.1193
     32 H3          0.6283    1.4135    3.7982 H         1 <1>         0.1257
     33 H4          0.4499   -2.6080    2.2942 H         1 <1>         0.1223
     34 H5         -1.7198    0.6467   -0.0290 H         1 <1>         0.1210
     35 H6         -0.7542    4.6892    1.0618 H         1 <1>         0.1207
     36 H7          6.0910   -4.5922    0.8069 H         1 <1>         0.1429
     37 H8          6.3096   -4.2520    3.2538 H         1 <1>         0.1480
     38 H9          2.3523    1.9730    2.1242 H         1 <1>         0.1387
     39 H10         2.1692   -2.0646    0.6105 H         1 <1>         0.1296
     40 H11         0.5094    0.3868   -1.0643 H         1 <1>         0.1372
     41 H12         1.4777    4.4417    0.0308 H         1 <1>         0.1401
     42 H13         5.2889   -2.7562   -0.6358 H         1 <1>         0.1695
     43 H14         5.7211   -2.0609    4.2592 H         1 <1>         0.1697
     44 H15         4.2931    3.5393   -3.5192 H         1 <1>         0.4084
@<TRIPOS>BOND
     1    1    3 ar
     2    1    4 ar
     3    2    5 ar
     4    2    6 ar
     5    3    9 ar
     6    4   10 ar
     7    5   11 ar
     8    6   12 ar
     9    7    8 ar
    10    7   13 ar
    11    8   14 ar
    12    9   15 ar
    13   10   15 ar
    14   11   16 ar
    15   12   16 ar
    16   13   18 ar
    17   14   19 ar
    18   15   20 1
    19   16   22 1
    20   17   20 2
    21   17   21 1
    22   17   22 1
    23   18   19 ar
    24   18   26 1
    25   19   29 1
    26   20   26 1
    27   21   23 1
    28   21   24 2
    29   22   25 2
    30   23   27 am
    31   23   28 2
    32   24   26 1
    33   25   27 1
    34    1   30 1
    35    2   31 1
    36    3   32 1
    37    4   33 1
    38    5   34 1
    39    6   35 1
    40    7   36 1
    41    8   37 1
    42    9   38 1
    43   10   39 1
    44   11   40 1
    45   12   41 1
    46   13   42 1
    47   14   43 1
    48   27   44 1
