@<TRIPOS>MOLECULE
AO-476/43249991
   44    48     0
SMALL
USER_CHARGE


@<TRIPOS>ATOM
      1 C1          0.4317   -0.6346    3.1489 C.ar      1 <1>        -0.0929
      2 C2         -1.3759    2.6826    0.5816 C.ar      1 <1>        -0.0945
      3 C3          0.9687    0.6517    3.0982 C.ar      1 <1>        -0.0876
      4 C4          0.8679   -1.6084    2.2504 C.ar      1 <1>        -0.0900
      5 C5         -1.0179    1.4750   -0.0178 C.ar      1 <1>        -0.0888
      6 C6         -0.4750    3.7474    0.5975 C.ar      1 <1>        -0.0886
      7 C7          1.9420    0.9642    2.1492 C.ar      1 <1>        -0.0715
      8 C8          1.8411   -1.2958    1.3013 C.ar      1 <1>        -0.0747
      9 C9          0.2411    1.3323   -0.6013 C.ar      1 <1>        -0.0673
     10 C10         0.7841    3.6047    0.0142 C.ar      1 <1>        -0.0676
     11 C11         5.1702   -1.1684    2.3737 C.ar      1 <1>        -0.0257
     12 C12         5.3812   -2.5953    0.4356 C.ar      1 <1>        -0.0271
     13 C13         5.6226   -2.2070    3.1877 C.ar      1 <1>        -0.0122
     14 C14         5.8336   -3.6339    1.2495 C.ar      1 <1>        -0.0129
     15 C15         2.3781   -0.0094    1.2507 C.ar      1 <1>        -0.0387
     16 C16         1.1421    2.3971   -0.5852 C.ar      1 <1>        -0.0284
     17 C17         3.3970    1.2454   -0.7394 C.2       1 <1>         0.0676
     18 C18         5.0495   -1.3627    0.9977 C.ar      1 <1>         0.0041
     19 C19         5.9542   -3.4397    2.6254 C.ar      1 <1>         0.0592
     20 C20         3.3879    0.3146    0.2672 C.2       1 <1>         0.0313
     21 C21         4.6530    1.1064   -1.3452 C.2       1 <1>         0.1216
     22 C22         2.4741    2.2460   -1.2023 C.2       1 <1>         0.0425
     23 C23         5.0458    1.9610   -2.4322 C.2       1 <1>         0.1596
     24 N1          5.3961    0.1441   -0.7972 N.2       1 <1>        -0.2779
     25 N2          2.8328    3.0379   -2.1741 N.2       1 <1>        -0.3063
     26 N3          4.5967   -0.3225    0.1830 N.pl3     1 <1>        -0.2797
     27 N4          4.0707    2.8977   -2.7652 N.am      1 <1>        -0.2273
     28 O1          6.1313    1.8712   -2.9970 O.2       1 <1>        -0.4687
     29 F1          6.3886   -4.4370    3.4070 F         1 <1>        -0.3325
     30 H1         -0.3257   -0.8782    3.8884 H         1 <1>         0.1231
     31 H2         -2.3561    2.7937    1.0358 H         1 <1>         0.1193
     32 H3          0.6288    1.4099    3.7977 H         1 <1>         0.1259
     33 H4          0.4505   -2.6103    2.2907 H         1 <1>         0.1226
     34 H5         -1.7193    0.6461   -0.0300 H         1 <1>         0.1208
     35 H6         -0.7539    4.6877    1.0640 H         1 <1>         0.1211
     36 H7          2.3526    1.9709    2.1242 H         1 <1>         0.1383
     37 H8          2.1698   -2.0657    0.6074 H         1 <1>         0.1306
     38 H9          0.5097    0.3869   -1.0655 H         1 <1>         0.1400
     39 H10         1.4780    4.4410    0.0327 H         1 <1>         0.1374
     40 H11         4.9146   -0.2129    2.8256 H         1 <1>         0.1753
     41 H12         5.2928   -2.7599   -0.6356 H         1 <1>         0.1709
     42 H13         5.7158   -2.0565    4.2590 H         1 <1>         0.1707
     43 H14         6.0927   -4.5937    0.8123 H         1 <1>         0.1703
     44 H15         4.2933    3.5416   -3.5182 H         1 <1>         0.4084
@<TRIPOS>BOND
     1    1    3 ar
     2    1    4 ar
     3    2    5 ar
     4    2    6 ar
     5    3    7 ar
     6    4    8 ar
     7    5    9 ar
     8    6   10 ar
     9    7   15 ar
    10    8   15 ar
    11    9   16 ar
    12   10   16 ar
    13   11   13 ar
    14   11   18 ar
    15   12   14 ar
    16   12   18 ar
    17   13   19 ar
    18   14   19 ar
    19   15   20 1
    20   16   22 1
    21   17   20 2
    22   17   21 1
    23   17   22 1
    24   18   26 1
    25   19   29 1
    26   20   26 1
    27   21   23 1
    28   21   24 2
    29   22   25 2
    30   23   27 am
    31   23   28 2
    32   24   26 1
    33   25   27 1
    34    1   30 1
    35    2   31 1
    36    3   32 1
    37    4   33 1
    38    5   34 1
    39    6   35 1
    40    7   36 1
    41    8   37 1
    42    9   38 1
    43   10   39 1
    44   11   40 1
    45   12   41 1
    46   13   42 1
    47   14   43 1
    48   27   44 1
