@<TRIPOS>MOLECULE
AO-476/43250025
   41    44     0
SMALL
USER_CHARGE


@<TRIPOS>ATOM
      1 C1          5.7064   -3.5418    2.8779 C.ar      1 <1>        -0.0957
      2 C2          5.3472   -2.3237    3.4548 C.ar      1 <1>        -0.0917
      3 C3          5.5930   -3.7209    1.4991 C.ar      1 <1>        -0.0893
      4 C4         -0.1641    3.2659    1.1543 C.ar      1 <1>        -0.0829
      5 C5          4.8745   -1.2848    2.6530 C.ar      1 <1>        -0.0738
      6 C6          5.1202   -2.6821    0.6974 C.ar      1 <1>        -0.0694
      7 C7          1.1151    2.7594    0.9249 C.ar      1 <1>        -0.0787
      8 C8         -1.2618    2.7135    0.4944 C.ar      1 <1>        -0.0686
      9 C9          0.1989    1.1479   -0.6246 C.ar      1 <1>        -0.0503
     10 C10         3.0142    0.1426    0.6374 C.ar      1 <1>        -0.0267
     11 C11         5.2110    2.4617   -3.0719 C.ar      1 <1>         0.0399
     12 C12         3.5119    1.6229   -1.1957 C.ar      1 <1>         0.0231
     13 C13         4.7610   -1.4639    1.2743 C.ar      1 <1>        -0.0439
     14 C14         1.2966    1.7002    0.0355 C.ar      1 <1>        -0.0502
     15 C15         2.6288    1.1715   -0.2038 C.ar      1 <1>        -0.0148
     16 C16        -1.0804    1.6544   -0.3951 C.ar      1 <1>        -0.0363
     17 C17         4.2718   -0.3882    0.4448 C.ar      1 <1>        -0.0030
     18 C18         4.7735    1.0304   -1.3258 C.ar      1 <1>         0.0480
     19 C19         3.1966    2.6521   -2.0793 C.ar      1 <1>         0.0190
     20 C20        -1.8948    0.0350   -1.9345 C.3       1 <1>         0.0106
     21 N1          5.6204    1.4568   -2.2695 N.ar      1 <1>        -0.3321
     22 N2          4.0308    3.0961   -3.0342 N.ar      1 <1>        -0.3495
     23 N3          5.1387    0.0345   -0.5070 N.ar      1 <1>        -0.3448
     24 N4          1.9516    3.3169   -2.0338 N.pl3     1 <1>        -0.3293
     25 O1         -2.1516    1.1155   -1.0389 O.3       1 <1>        -0.4634
     26 H1          6.0760   -4.3500    3.5020 H         1 <1>         0.1197
     27 H2          5.4371   -2.1835    4.5280 H         1 <1>         0.1192
     28 H3          5.8738   -4.6687    1.0491 H         1 <1>         0.1212
     29 H4         -0.3053    4.0907    1.8466 H         1 <1>         0.1283
     30 H5          4.5987   -0.3411    3.1177 H         1 <1>         0.1348
     31 H6          5.0378   -2.8361   -0.3758 H         1 <1>         0.1474
     32 H7          1.9608    3.2007    1.4470 H         1 <1>         0.1302
     33 H8         -2.2560    3.1120    0.6771 H         1 <1>         0.1287
     34 H9          0.3309    0.3220   -1.3209 H         1 <1>         0.1535
     35 H10         2.3598   -0.2351    1.4180 H         1 <1>         0.1686
     36 H11         5.9136    2.7887   -3.8287 H         1 <1>         0.3150
     37 H12        -2.8343   -0.3008   -2.3804 H         1 <1>         0.1088
     38 H13        -1.4233   -0.7867   -1.3898 H         1 <1>         0.1090
     39 H14        -1.2222    0.3797   -2.7237 H         1 <1>         0.1329
     40 H15         1.2605    3.0105   -1.3806 H         1 <1>         0.2705
     41 H16         1.7494    4.0175   -2.7169 H         1 <1>         0.2666
@<TRIPOS>BOND
     1    1    2 ar
     2    1    3 ar
     3    2    5 ar
     4    3    6 ar
     5    4    7 ar
     6    4    8 ar
     7    5   13 ar
     8    6   13 ar
     9    7   14 ar
    10    8   16 ar
    11    9   14 ar
    12    9   16 ar
    13   10   15 ar
    14   10   17 ar
    15   11   21 ar
    16   11   22 ar
    17   12   15 ar
    18   12   18 ar
    19   12   19 ar
    20   13   17 1
    21   14   15 1
    22   16   25 1
    23   17   23 ar
    24   18   21 ar
    25   18   23 ar
    26   19   22 ar
    27   19   24 1
    28   20   25 1
    29    1   26 1
    30    2   27 1
    31    3   28 1
    32    4   29 1
    33    5   30 1
    34    6   31 1
    35    7   32 1
    36    8   33 1
    37    9   34 1
    38   10   35 1
    39   11   36 1
    40   20   37 1
    41   20   38 1
    42   20   39 1
    43   24   40 1
    44   24   41 1
