@<TRIPOS>MOLECULE
AO-476/43249984
   47    51     0
SMALL
USER_CHARGE


@<TRIPOS>ATOM
      1 C1          0.4314   -0.6339    3.1493 C.ar      1 <1>        -0.0933
      2 C2         -1.3759    2.6829    0.5814 C.ar      1 <1>        -0.0946
      3 C3          0.9686    0.6524    3.0985 C.ar      1 <1>        -0.0879
      4 C4          0.8677   -1.6079    2.2510 C.ar      1 <1>        -0.0901
      5 C5         -1.0180    1.4752   -0.0178 C.ar      1 <1>        -0.0886
      6 C6         -0.4750    3.7477    0.5972 C.ar      1 <1>        -0.0889
      7 C7          1.9418    0.9647    2.1493 C.ar      1 <1>        -0.0715
      8 C8          1.8409   -1.2954    1.3018 C.ar      1 <1>        -0.0745
      9 C9          0.2410    1.3323   -0.6011 C.ar      1 <1>        -0.0676
     10 C10         0.7839    3.6048    0.0139 C.ar      1 <1>        -0.0674
     11 C11         5.6230   -2.2077    3.1877 C.ar      1 <1>        -0.0805
     12 C12         5.8337   -3.6337    1.2488 C.ar      1 <1>        -0.0811
     13 C13         5.1704   -1.1687    2.3745 C.ar      1 <1>        -0.0511
     14 C14         5.3810   -2.5948    0.4355 C.ar      1 <1>        -0.0523
     15 C15         2.3780   -0.0091    1.2510 C.ar      1 <1>        -0.0385
     16 C16         1.1420    2.3971   -0.5853 C.ar      1 <1>        -0.0286
     17 C17         3.3969    1.2454   -0.7393 C.2       1 <1>         0.0668
     18 C18         5.9546   -3.4402    2.6248 C.ar      1 <1>        -0.0997
     19 C19         5.0494   -1.3623    0.9983 C.ar      1 <1>        -0.0082
     20 C20         3.3879    0.3147    0.2675 C.2       1 <1>         0.0306
     21 C21         4.6529    1.1064   -1.3450 C.2       1 <1>         0.1206
     22 C22         2.4740    2.2459   -1.2024 C.2       1 <1>         0.0419
     23 C23         5.0458    1.9607   -2.4322 C.2       1 <1>         0.1586
     24 C24         6.4386   -4.5510    3.4942 C.3       1 <1>        -0.0392
     25 N1          5.3960    0.1441   -0.7968 N.2       1 <1>        -0.2790
     26 N2          2.8329    3.0376   -2.1743 N.2       1 <1>        -0.3069
     27 N3          4.5966   -0.3224    0.1834 N.pl3     1 <1>        -0.2825
     28 N4          4.0707    2.8974   -2.7654 N.am      1 <1>        -0.2279
     29 O1          6.1312    1.8709   -2.9969 O.2       1 <1>        -0.4696
     30 H1         -0.3258   -0.8773    3.8888 H         1 <1>         0.1222
     31 H2         -2.3562    2.7941    1.0356 H         1 <1>         0.1191
     32 H3          0.6286    1.4107    3.7978 H         1 <1>         0.1252
     33 H4          0.4504   -2.6098    2.2914 H         1 <1>         0.1221
     34 H5         -1.7194    0.6462   -0.0298 H         1 <1>         0.1210
     35 H6         -0.7539    4.6880    1.0635 H         1 <1>         0.1206
     36 H7          2.3526    1.9713    2.1242 H         1 <1>         0.1378
     37 H8          2.1696   -2.0654    0.6080 H         1 <1>         0.1307
     38 H9          0.5097    0.3869   -1.0653 H         1 <1>         0.1374
     39 H10         1.4779    4.4412    0.0322 H         1 <1>         0.1399
     40 H11         5.7144   -2.0487    4.2588 H         1 <1>         0.1345
     41 H12         6.0900   -4.5905    0.8015 H         1 <1>         0.1342
     42 H13         4.9159   -0.2128    2.8257 H         1 <1>         0.1575
     43 H14         5.2920   -2.7598   -0.6356 H         1 <1>         0.1538
     44 H15         5.5941   -5.1556    3.8470 H         1 <1>         0.0642
     45 H16         7.1337   -5.2064    2.9536 H         1 <1>         0.0614
     46 H17         6.9800   -4.1660    4.3683 H         1 <1>         0.0613
     47 H18         4.2933    3.5410   -3.5184 H         1 <1>         0.4078
@<TRIPOS>BOND
     1    1    3 ar
     2    1    4 ar
     3    2    5 ar
     4    2    6 ar
     5    3    7 ar
     6    4    8 ar
     7    5    9 ar
     8    6   10 ar
     9    7   15 ar
    10    8   15 ar
    11    9   16 ar
    12   10   16 ar
    13   11   13 ar
    14   11   18 ar
    15   12   14 ar
    16   12   18 ar
    17   13   19 ar
    18   14   19 ar
    19   15   20 1
    20   16   22 1
    21   17   20 2
    22   17   21 1
    23   17   22 1
    24   18   24 1
    25   19   27 1
    26   20   27 1
    27   21   23 1
    28   21   25 2
    29   22   26 2
    30   23   28 am
    31   23   29 2
    32   25   27 1
    33   26   28 1
    34    1   30 1
    35    2   31 1
    36    3   32 1
    37    4   33 1
    38    5   34 1
    39    6   35 1
    40    7   36 1
    41    8   37 1
    42    9   38 1
    43   10   39 1
    44   11   40 1
    45   12   41 1
    46   13   42 1
    47   14   43 1
    48   24   44 1
    49   24   45 1
    50   24   46 1
    51   28   47 1
