@<TRIPOS>MOLECULE
AO-476/43249988
   44    48     0
SMALL
USER_CHARGE


@<TRIPOS>ATOM
      1 C1          0.4316   -0.6347    3.1487 C.ar      1 <1>        -0.0929
      2 C2         -1.3759    2.6825    0.5816 C.ar      1 <1>        -0.0945
      3 C3          0.9687    0.6515    3.0981 C.ar      1 <1>        -0.0875
      4 C4          0.8679   -1.6085    2.2503 C.ar      1 <1>        -0.0899
      5 C5         -1.0179    1.4751   -0.0179 C.ar      1 <1>        -0.0888
      6 C6         -0.4750    3.7474    0.5976 C.ar      1 <1>        -0.0885
      7 C7          1.9420    0.9641    2.1492 C.ar      1 <1>        -0.0714
      8 C8          1.8411   -1.2959    1.3011 C.ar      1 <1>        -0.0746
      9 C9          0.2411    1.3323   -0.6013 C.ar      1 <1>        -0.0673
     10 C10         0.7841    3.6046    0.0142 C.ar      1 <1>        -0.0676
     11 C11         5.1703   -1.1683    2.3736 C.ar      1 <1>        -0.0342
     12 C12         5.3812   -2.5954    0.4356 C.ar      1 <1>        -0.0357
     13 C13         5.6225   -2.2068    3.1876 C.ar      1 <1>        -0.0389
     14 C14         5.8335   -3.6340    1.2496 C.ar      1 <1>        -0.0396
     15 C15         2.3781   -0.0095    1.2506 C.ar      1 <1>        -0.0385
     16 C16         1.1421    2.3971   -0.5851 C.ar      1 <1>        -0.0284
     17 C17         3.3970    1.2454   -0.7395 C.2       1 <1>         0.0679
     18 C18         5.0496   -1.3627    0.9976 C.ar      1 <1>         0.0013
     19 C19         5.9540   -3.4397    2.6256 C.ar      1 <1>        -0.0028
     20 C20         3.3879    0.3146    0.2672 C.2       1 <1>         0.0317
     21 C21         4.6531    1.1065   -1.3451 C.2       1 <1>         0.1219
     22 C22         2.4741    2.2460   -1.2023 C.2       1 <1>         0.0427
     23 C23         5.0460    1.9611   -2.4322 C.2       1 <1>         0.1599
     24 N1          5.3962    0.1441   -0.7972 N.2       1 <1>        -0.2775
     25 N2          2.8330    3.0379   -2.1740 N.2       1 <1>        -0.3061
     26 N3          4.5968   -0.3226    0.1830 N.pl3     1 <1>        -0.2795
     27 N4          4.0708    2.8978   -2.7652 N.am      1 <1>        -0.2271
     28 O1          6.1313    1.8713   -2.9969 O.2       1 <1>        -0.4685
     29 Cl1         6.5143   -4.7201    3.6298 Cl        1 <1>        -0.1737
     30 H1         -0.3256   -0.8784    3.8883 H         1 <1>         0.1231
     31 H2         -2.3561    2.7936    1.0358 H         1 <1>         0.1194
     32 H3          0.6288    1.4097    3.7977 H         1 <1>         0.1259
     33 H4          0.4505   -2.6105    2.2904 H         1 <1>         0.1228
     34 H5         -1.7194    0.6461   -0.0300 H         1 <1>         0.1208
     35 H6         -0.7539    4.6876    1.0641 H         1 <1>         0.1211
     36 H7          2.3527    1.9707    2.1242 H         1 <1>         0.1383
     37 H8          2.1698   -2.0657    0.6072 H         1 <1>         0.1305
     38 H9          0.5098    0.3869   -1.0656 H         1 <1>         0.1400
     39 H10         1.4780    4.4410    0.0328 H         1 <1>         0.1374
     40 H11         4.9155   -0.2126    2.8251 H         1 <1>         0.1712
     41 H12         5.2921   -2.7601   -0.6355 H         1 <1>         0.1669
     42 H13         5.7113   -2.0419    4.2583 H         1 <1>         0.1610
     43 H14         6.0879   -4.5895    0.7979 H         1 <1>         0.1606
     44 H15         4.2934    3.5417   -3.5180 H         1 <1>         0.4086
@<TRIPOS>BOND
     1    1    3 ar
     2    1    4 ar
     3    2    5 ar
     4    2    6 ar
     5    3    7 ar
     6    4    8 ar
     7    5    9 ar
     8    6   10 ar
     9    7   15 ar
    10    8   15 ar
    11    9   16 ar
    12   10   16 ar
    13   11   13 ar
    14   11   18 ar
    15   12   14 ar
    16   12   18 ar
    17   13   19 ar
    18   14   19 ar
    19   15   20 1
    20   16   22 1
    21   17   20 2
    22   17   21 1
    23   17   22 1
    24   18   26 1
    25   19   29 1
    26   20   26 1
    27   21   23 1
    28   21   24 2
    29   22   25 2
    30   23   27 am
    31   23   28 2
    32   24   26 1
    33   25   27 1
    34    1   30 1
    35    2   31 1
    36    3   32 1
    37    4   33 1
    38    5   34 1
    39    6   35 1
    40    7   36 1
    41    8   37 1
    42    9   38 1
    43   10   39 1
    44   11   40 1
    45   12   41 1
    46   13   42 1
    47   14   43 1
    48   27   44 1
