@<TRIPOS>MOLECULE
AG-690/11481219
   32    34     0
SMALL
USER_CHARGE


@<TRIPOS>ATOM
      1 C1          3.0962    2.8898   -2.2704 C.1       1 <1>         0.0459
      2 C2          5.9350   -3.3627    2.5559 C.ar      1 <1>        -0.0951
      3 C3          5.5654   -2.1568    3.1515 C.ar      1 <1>        -0.0894
      4 C4          5.8007   -3.5300    1.1776 C.ar      1 <1>        -0.0914
      5 C5          5.0616   -1.1181    2.3688 C.ar      1 <1>        -0.0711
      6 C6          5.2968   -2.4911    0.3948 C.ar      1 <1>        -0.0749
      7 C7          1.1960    2.9397    0.6889 C.ar      1 <1>        -0.0669
      8 C8          0.2786    1.3280   -0.8599 C.ar      1 <1>        -0.0684
      9 C9         -0.0804    3.4592    0.9043 C.ar      1 <1>        -0.0631
     10 C10        -0.9977    1.8476   -0.6443 C.ar      1 <1>        -0.0637
     11 C11         3.1368    0.3000    0.4020 C.ar      1 <1>        -0.0162
     12 C12         3.5331    1.8227   -1.4171 C.ar      1 <1>         0.1150
     13 C13         1.3756    1.8741   -0.1932 C.ar      1 <1>        -0.0454
     14 C14         4.9273   -1.2850    0.9904 C.ar      1 <1>        -0.0466
     15 C15         2.6995    1.3355   -0.4165 C.ar      1 <1>         0.0161
     16 C16        -1.1773    2.9131    0.2379 C.ar      1 <1>        -0.0345
     17 C17         4.4060   -0.2097    0.1808 C.ar      1 <1>        -0.0035
     18 C18         4.7847    1.2450   -1.5567 C.ar      1 <1>         0.1024
     19 N1          2.7430    3.7532   -2.9607 N.1       1 <1>        -0.3712
     20 N2          5.2443    0.2377   -0.7809 N.ar      1 <1>        -0.3384
     21 Br1        -2.9073    3.6158    0.5300 Br        1 <1>        -0.1364
     22 Br2         6.0063    1.8417   -2.9006 Br        1 <1>        -0.0078
     23 H1          6.3289   -4.1708    3.1652 H         1 <1>         0.1209
     24 H2          5.6715   -2.0259    4.2243 H         1 <1>         0.1219
     25 H3          6.0895   -4.4681    0.7129 H         1 <1>         0.1206
     26 H4          4.7782   -0.1837    2.8479 H         1 <1>         0.1455
     27 H5          5.1985   -2.6357   -0.6784 H         1 <1>         0.1345
     28 H6          2.0411    3.3760    1.2160 H         1 <1>         0.1458
     29 H7          0.4023    0.4969   -1.5498 H         1 <1>         0.1403
     30 H8         -0.2034    4.2891    1.5955 H         1 <1>         0.1465
     31 H9         -1.8417    1.4108   -1.1716 H         1 <1>         0.1459
     32 H10         2.5044   -0.0982    1.1908 H         1 <1>         0.1828
@<TRIPOS>BOND
     1    1   12 1
     2    1   19 3
     3    2    3 ar
     4    2    4 ar
     5    3    5 ar
     6    4    6 ar
     7    5   14 ar
     8    6   14 ar
     9    7    9 ar
    10    7   13 ar
    11    8   10 ar
    12    8   13 ar
    13    9   16 ar
    14   10   16 ar
    15   11   15 ar
    16   11   17 ar
    17   12   15 ar
    18   12   18 ar
    19   13   15 1
    20   14   17 1
    21   16   21 1
    22   17   20 ar
    23   18   20 ar
    24   18   22 1
    25    2   23 1
    26    3   24 1
    27    4   25 1
    28    5   26 1
    29    6   27 1
    30    7   28 1
    31    8   29 1
    32    9   30 1
    33   10   31 1
    34   11   32 1
