@<TRIPOS>MOLECULE
AE-641/00006013
   37    40     0
SMALL
USER_CHARGE


@<TRIPOS>ATOM
      1 C1         -1.2524    2.8605    0.3371 C.ar      1 <1>        -0.0994
      2 C2          5.8697   -3.3743    2.6066 C.ar      1 <1>        -0.0979
      3 C3          3.9208    3.3302   -3.2121 C.ar      1 <1>        -0.0872
      4 C4         -0.1542    3.4123    0.9969 C.ar      1 <1>        -0.0965
      5 C5         -1.0715    1.8015   -0.5526 C.ar      1 <1>        -0.0968
      6 C6          5.4992   -2.1695    3.2036 C.ar      1 <1>        -0.0939
      7 C7          5.7340   -3.5406    1.2283 C.ar      1 <1>        -0.0920
      8 C8          5.1789    2.7609   -3.3647 C.ar      1 <1>        -0.0804
      9 C9          3.0691    2.8581   -2.2175 C.ar      1 <1>        -0.0756
     10 C10         1.1247    2.9053    0.7668 C.ar      1 <1>        -0.0880
     11 C11         0.2074    1.2943   -0.7825 C.ar      1 <1>        -0.0883
     12 C12         4.9928   -1.1308    2.4225 C.ar      1 <1>        -0.0779
     13 C13         5.2277   -2.5018    0.4471 C.ar      1 <1>        -0.0742
     14 C14         5.5824    1.7215   -2.5229 C.ar      1 <1>        -0.0601
     15 C15         3.0684    0.2846    0.4579 C.ar      1 <1>        -0.0450
     16 C16         3.4752    1.8125   -1.3710 C.ar      1 <1>        -0.0490
     17 C17         1.3055    1.8462   -0.1227 C.ar      1 <1>        -0.0748
     18 C18         4.8570   -1.2969    1.0442 C.ar      1 <1>        -0.0535
     19 C19         2.6380    1.3180   -0.3618 C.ar      1 <1>        -0.0515
     20 C20         4.7512    1.2300   -1.5201 C.ar      1 <1>        -0.0327
     21 C21         4.3332   -0.2214    0.2361 C.ar      1 <1>        -0.0269
     22 N1          5.1716    0.2269   -0.7261 N.ar      1 <1>        -0.3895
     23 H1         -2.2483    3.2545    0.5175 H         1 <1>         0.1164
     24 H2          6.2655   -4.1824    3.2148 H         1 <1>         0.1166
     25 H3          3.6043    4.1382   -3.8646 H         1 <1>         0.1224
     26 H4         -0.2950    4.2359    1.6908 H         1 <1>         0.1184
     27 H5         -1.9263    1.3705   -1.0655 H         1 <1>         0.1180
     28 H6          5.6063   -2.0393    4.2766 H         1 <1>         0.1174
     29 H7          6.0235   -4.4780    0.7625 H         1 <1>         0.1186
     30 H8          5.8496    3.1235   -4.1383 H         1 <1>         0.1312
     31 H9          2.0917    3.3254   -2.1252 H         1 <1>         0.1338
     32 H10         1.9705    3.3460    1.2892 H         1 <1>         0.1264
     33 H11         0.3327    0.4681   -1.4782 H         1 <1>         0.1261
     34 H12         4.7086   -0.1973    2.9028 H         1 <1>         0.1312
     35 H13         5.1281   -2.6456   -0.6262 H         1 <1>         0.1421
     36 H14         6.5729    1.2926   -2.6633 H         1 <1>         0.1540
     37 H15         2.4356   -0.1139    1.2461 H         1 <1>         0.1584
@<TRIPOS>BOND
     1    1    4 ar
     2    1    5 ar
     3    2    6 ar
     4    2    7 ar
     5    3    8 ar
     6    3    9 ar
     7    4   10 ar
     8    5   11 ar
     9    6   12 ar
    10    7   13 ar
    11    8   14 ar
    12    9   16 ar
    13   10   17 ar
    14   11   17 ar
    15   12   18 ar
    16   13   18 ar
    17   14   20 ar
    18   15   19 ar
    19   15   21 ar
    20   16   19 ar
    21   16   20 ar
    22   17   19 1
    23   18   21 1
    24   20   22 ar
    25   21   22 ar
    26    1   23 1
    27    2   24 1
    28    3   25 1
    29    4   26 1
    30    5   27 1
    31    6   28 1
    32    7   29 1
    33    8   30 1
    34    9   31 1
    35   10   32 1
    36   11   33 1
    37   12   34 1
    38   13   35 1
    39   14   36 1
    40   15   37 1
