@<TRIPOS>MOLECULE
AO-476/43250026
   40    43     0
SMALL
USER_CHARGE


@<TRIPOS>ATOM
      1 C1          1.0941    2.8014    0.8930 C.ar      1 <1>        -0.0841
      2 C2          0.1770    1.1908   -0.6567 C.ar      1 <1>        -0.0859
      3 C3          4.3200   -1.5312    2.5481 C.ar      1 <1>        -0.0486
      4 C4          5.6601   -2.3328    0.7044 C.ar      1 <1>        -0.0443
      5 C5         -0.1855    3.3053    1.1266 C.ar      1 <1>        -0.0976
      6 C6         -1.1025    1.6946   -0.4232 C.ar      1 <1>        -0.0987
      7 C7          4.7973   -2.5704    3.3468 C.ar      1 <1>        -0.0270
      8 C8          6.1375   -3.3719    1.5032 C.ar      1 <1>        -0.0247
      9 C9          2.9986    0.1903    0.5967 C.ar      1 <1>        -0.0289
     10 C10         5.1799    2.5209   -3.1145 C.ar      1 <1>         0.0400
     11 C11         3.4878    1.6746   -1.2354 C.ar      1 <1>         0.0211
     12 C12         1.2753    1.7442    0.0014 C.ar      1 <1>        -0.0654
     13 C13         4.7514   -1.4125    1.2269 C.ar      1 <1>        -0.0317
     14 C14         2.6084    1.2195   -0.2420 C.ar      1 <1>        -0.0205
     15 C15        -1.2838    2.7518    0.4685 C.ar      1 <1>        -0.1105
     16 C16         5.7060   -3.4908    2.8244 C.ar      1 <1>         0.0488
     17 C17         4.2573   -0.3368    0.4002 C.ar      1 <1>        -0.0015
     18 C18         4.7506    1.0858   -1.3695 C.ar      1 <1>         0.0472
     19 C19         3.1675    2.7044   -2.1167 C.ar      1 <1>         0.0184
     20 C20        -2.6518    3.2907    0.7178 C.3       1 <1>        -0.0426
     21 N1          5.5940    1.5158   -2.3146 N.ar      1 <1>        -0.3322
     22 N2          3.9982    3.1520   -3.0729 N.ar      1 <1>        -0.3496
     23 N3          5.1206    0.0897   -0.5531 N.ar      1 <1>        -0.3452
     24 N4          1.9208    3.3656   -2.0670 N.pl3     1 <1>        -0.3293
     25 F1          6.1643   -4.4887    3.5915 F         1 <1>        -0.3385
     26 H1          1.9402    3.2440    1.4133 H         1 <1>         0.1335
     27 H2          0.3020    0.3659   -1.3543 H         1 <1>         0.1294
     28 H3          3.6119   -0.8218    2.9698 H         1 <1>         0.1533
     29 H4          6.0060   -2.2537   -0.3234 H         1 <1>         0.1657
     30 H5         -0.3172    4.1299    1.8221 H         1 <1>         0.1195
     31 H6         -1.9526    1.2570   -0.9399 H         1 <1>         0.1193
     32 H7          4.4615   -2.6633    4.3754 H         1 <1>         0.1551
     33 H8          6.8450   -4.0888    1.0972 H         1 <1>         0.1569
     34 H9          2.3473   -0.1904    1.3784 H         1 <1>         0.1662
     35 H10         5.8798    2.8510   -3.8726 H         1 <1>         0.3153
     36 H11        -2.8786    4.0990    0.0119 H         1 <1>         0.0618
     37 H12        -3.4143    2.5087    0.6081 H         1 <1>         0.0590
     38 H13        -2.7451    3.6840    1.7387 H         1 <1>         0.0591
     39 H14         1.2321    3.0565   -1.4125 H         1 <1>         0.2709
     40 H15         1.7152    4.0668   -2.7486 H         1 <1>         0.2664
@<TRIPOS>BOND
     1    1    5 ar
     2    1   12 ar
     3    2    6 ar
     4    2   12 ar
     5    3    7 ar
     6    3   13 ar
     7    4    8 ar
     8    4   13 ar
     9    5   15 ar
    10    6   15 ar
    11    7   16 ar
    12    8   16 ar
    13    9   14 ar
    14    9   17 ar
    15   10   21 ar
    16   10   22 ar
    17   11   14 ar
    18   11   18 ar
    19   11   19 ar
    20   12   14 1
    21   13   17 1
    22   15   20 1
    23   16   25 1
    24   17   23 ar
    25   18   21 ar
    26   18   23 ar
    27   19   22 ar
    28   19   24 1
    29    1   26 1
    30    2   27 1
    31    3   28 1
    32    4   29 1
    33    5   30 1
    34    6   31 1
    35    7   32 1
    36    8   33 1
    37    9   34 1
    38   10   35 1
    39   20   36 1
    40   20   37 1
    41   20   38 1
    42   24   39 1
    43   24   40 1
