@<TRIPOS>MOLECULE
AE-848/41009149
   40    42     0
SMALL
USER_CHARGE


@<TRIPOS>ATOM
      1 C1          3.0821    2.9028   -2.2707 C.1       1 <1>         0.0459
      2 C2         -1.2043    2.9278    0.2385 C.ar      1 <1>        -0.0972
      3 C3          5.9089   -3.3516    2.5600 C.ar      1 <1>        -0.0967
      4 C4         -0.1079    3.4721    0.9072 C.ar      1 <1>        -0.0945
      5 C5         -1.0246    1.8628   -0.6441 C.ar      1 <1>        -0.0942
      6 C6          4.9944   -2.4493    3.1035 C.ar      1 <1>        -0.0925
      7 C7          6.3192   -3.2151    1.2339 C.ar      1 <1>        -0.0912
      8 C8          1.1684    2.9515    0.6930 C.ar      1 <1>        -0.0835
      9 C9          0.2516    1.3421   -0.8581 C.ar      1 <1>        -0.0824
     10 C10         4.4902   -1.4107    2.3208 C.ar      1 <1>        -0.0762
     11 C11         5.8150   -2.1765    0.4511 C.ar      1 <1>        -0.0734
     12 C12         3.1090    0.3100    0.4061 C.ar      1 <1>        -0.0212
     13 C13         3.5061    1.8355   -1.4105 C.ar      1 <1>         0.1044
     14 C14         1.3482    1.8865   -0.1896 C.ar      1 <1>        -0.0549
     15 C15         4.9005   -1.2741    0.9946 C.ar      1 <1>        -0.0496
     16 C16         2.6720    1.3466   -0.4112 C.ar      1 <1>         0.0126
     17 C17         4.3786   -0.1990    0.1851 C.ar      1 <1>        -0.0099
     18 C18         4.7580    1.2584   -1.5500 C.ar      1 <1>         0.0444
     19 C19         6.5405    2.8236   -2.2799 C.3       1 <1>        -0.0149
     20 C20         5.6034    1.1484   -3.8811 C.3       1 <1>        -0.0149
     21 N1          2.7393    3.7660   -2.9665 N.1       1 <1>        -0.3760
     22 N2          5.2174    0.2501   -0.7755 N.ar      1 <1>        -0.3540
     23 N3          5.6237    1.7427   -2.5635 N.pl3     1 <1>        -0.3817
     24 H1         -2.1981    3.3322    0.4067 H         1 <1>         0.1195
     25 H2          6.3026   -4.1592    3.1701 H         1 <1>         0.1186
     26 H3         -0.2479    4.3004    1.5957 H         1 <1>         0.1203
     27 H4         -1.8782    1.4375   -1.1639 H         1 <1>         0.1205
     28 H5          4.6761   -2.5544    4.1366 H         1 <1>         0.1193
     29 H6          7.0321   -3.9164    0.8104 H         1 <1>         0.1194
     30 H7          2.0131    3.3867    1.2220 H         1 <1>         0.1261
     31 H8          0.3762    0.5113   -1.5485 H         1 <1>         0.1303
     32 H9          3.7781   -0.7153    2.7591 H         1 <1>         0.1336
     33 H10         6.1444   -2.0822   -0.5809 H         1 <1>         0.1418
     34 H11         2.4767   -0.0892    1.1945 H         1 <1>         0.1723
     35 H12         7.1253    3.0639   -3.1717 H         1 <1>         0.0899
     36 H13         7.2252    2.5377   -1.4768 H         1 <1>         0.0962
     37 H14         5.9892    3.7152   -1.9697 H         1 <1>         0.0788
     38 H15         6.3312    1.6445   -4.5284 H         1 <1>         0.0899
     39 H16         4.6097    1.2499   -4.3262 H         1 <1>         0.0790
     40 H17         5.8531    0.0857   -3.8204 H         1 <1>         0.0962
@<TRIPOS>BOND
     1    1   13 1
     2    1   21 3
     3    2    4 ar
     4    2    5 ar
     5    3    6 ar
     6    3    7 ar
     7    4    8 ar
     8    5    9 ar
     9    6   10 ar
    10    7   11 ar
    11    8   14 ar
    12    9   14 ar
    13   10   15 ar
    14   11   15 ar
    15   12   16 ar
    16   12   17 ar
    17   13   16 ar
    18   13   18 ar
    19   14   16 1
    20   15   17 1
    21   17   22 ar
    22   18   22 ar
    23   18   23 1
    24   19   23 1
    25   20   23 1
    26    2   24 1
    27    3   25 1
    28    4   26 1
    29    5   27 1
    30    6   28 1
    31    7   29 1
    32    8   30 1
    33    9   31 1
    34   10   32 1
    35   11   33 1
    36   12   34 1
    37   19   35 1
    38   19   36 1
    39   19   37 1
    40   20   38 1
    41   20   39 1
    42   20   40 1
