@<TRIPOS>MOLECULE
AS-938/12583050
   39    42     0
SMALL
USER_CHARGE


@<TRIPOS>ATOM
      1 C1          5.7808   -3.3974    2.6865 C.ar      1 <1>        -0.0875
      2 C2          4.8882   -2.4358    3.1601 C.ar      1 <1>        -0.0802
      3 C3          6.2588   -3.3215    1.3783 C.ar      1 <1>        -0.0782
      4 C4          0.4749    1.1960    0.1170 C.ar      1 <1>        -0.0678
      5 C5          0.4563    3.5479   -0.4354 C.ar      1 <1>        -0.0727
      6 C6         -0.7741    1.3285    0.7237 C.ar      1 <1>        -0.0913
      7 C7         -0.7928    3.6806    0.1712 C.ar      1 <1>        -0.0943
      8 C8          4.4735   -1.3981    2.3251 C.ar      1 <1>        -0.0584
      9 C9          5.8439   -2.2838    0.5435 C.ar      1 <1>        -0.0544
     10 C10         3.3263    0.3430    0.2503 C.2       1 <1>         0.0191
     11 C11         3.3734    1.2731   -0.7474 C.ar      1 <1>         0.0331
     12 C12         1.0902    2.3057   -0.4625 C.ar      1 <1>        -0.0335
     13 C13        -1.4080    2.5708    0.7506 C.ar      1 <1>        -0.1080
     14 C14         4.6602    1.1500   -1.3867 C.ar      1 <1>         0.0463
     15 C15         4.9513   -1.3223    1.0169 C.ar      1 <1>        -0.0191
     16 C16         2.3707    2.1697   -1.0841 C.ar      1 <1>         0.0333
     17 C17         4.9949    1.9881   -2.4601 C.ar      1 <1>         0.0255
     18 C18        -2.7433    2.7127    1.3994 C.3       1 <1>        -0.0423
     19 C19         6.2711    1.9833   -3.2179 C.3       1 <1>         0.0129
     20 N1          5.3578    0.1722   -0.7834 N.2       1 <1>        -0.3234
     21 N2          2.7244    2.9675   -2.1269 N.ar      1 <1>        -0.3061
     22 N3          4.0184    2.8753   -2.8028 N.ar      1 <1>        -0.3069
     23 N4          4.5365   -0.2851    0.1834 N.pl3     1 <1>        -0.3027
     24 H1          6.1054   -4.2045    3.3368 H         1 <1>         0.1262
     25 H2          4.5171   -2.4940    4.1791 H         1 <1>         0.1340
     26 H3          6.9549   -4.0700    1.0109 H         1 <1>         0.1349
     27 H4          0.9565    0.2211    0.1046 H         1 <1>         0.1454
     28 H5          0.9229    4.4222   -0.8832 H         1 <1>         0.1318
     29 H6         -1.2457    0.4590    1.1736 H         1 <1>         0.1234
     30 H7         -1.2797    4.6521    0.1872 H         1 <1>         0.1201
     31 H8          3.7780   -0.6546    2.7068 H         1 <1>         0.1452
     32 H9          6.2249   -2.2362   -0.4739 H         1 <1>         0.1570
     33 H10         2.5725    0.0745    0.9795 H         1 <1>         0.2524
     34 H11        -2.6276    2.9631    2.4611 H         1 <1>         0.0613
     35 H12        -3.3381    3.5005    0.9190 H         1 <1>         0.0591
     36 H13        -3.3244    1.7845    1.3222 H         1 <1>         0.0586
     37 H14         6.2125    1.2967   -4.0743 H         1 <1>         0.1032
     38 H15         6.5201    2.9850   -3.5991 H         1 <1>         0.1036
     39 H16         7.1165    1.6713   -2.5864 H         1 <1>         0.1000
@<TRIPOS>BOND
     1    1    2 ar
     2    1    3 ar
     3    2    8 ar
     4    3    9 ar
     5    4    6 ar
     6    4   12 ar
     7    5    7 ar
     8    5   12 ar
     9    6   13 ar
    10    7   13 ar
    11    8   15 ar
    12    9   15 ar
    13   10   11 2
    14   10   23 1
    15   11   14 ar
    16   11   16 ar
    17   12   16 1
    18   13   18 1
    19   14   17 ar
    20   14   20 2
    21   15   23 1
    22   16   21 ar
    23   17   19 1
    24   17   22 ar
    25   20   23 1
    26   21   22 ar
    27    1   24 1
    28    2   25 1
    29    3   26 1
    30    4   27 1
    31    5   28 1
    32    6   29 1
    33    7   30 1
    34    8   31 1
    35    9   32 1
    36   10   33 1
    37   18   34 1
    38   18   35 1
    39   18   36 1
    40   19   37 1
    41   19   38 1
    42   19   39 1
