@<TRIPOS>MOLECULE
AO-476/43380440
   38    41     0
SMALL
USER_CHARGE


@<TRIPOS>ATOM
      1 C1          5.8876   -3.4145    2.6513 C.ar      1 <1>        -0.0955
      2 C2          5.4913   -2.2191    3.2506 C.ar      1 <1>        -0.0913
      3 C3          5.7645   -3.5773    1.2713 C.ar      1 <1>        -0.0892
      4 C4         -1.0751    2.1627   -0.2432 C.2       1 <1>        -0.0794
      5 C5          4.9715   -1.1864    2.4702 C.ar      1 <1>        -0.0734
      6 C6          5.2449   -2.5446    0.4909 C.ar      1 <1>        -0.0694
      7 C7          0.0249    1.3694   -0.6799 C.2       1 <1>        -0.0726
      8 C8          3.0237    0.1896    0.5173 C.ar      1 <1>        -0.0236
      9 C9         -0.6896    3.1310    0.6576 C.2       1 <1>        -0.0494
     10 C10         3.3678    1.7350   -1.2776 C.ar      1 <1>         0.0325
     11 C11         4.8484   -1.3491    1.0902 C.ar      1 <1>        -0.0430
     12 C12         2.5292    1.2226   -0.2767 C.ar      1 <1>        -0.0081
     13 C13         3.2796    2.7416   -2.2717 C.2       1 <1>         0.0297
     14 C14         4.3097   -0.2784    0.2814 C.ar      1 <1>         0.0017
     15 C15         1.2097    1.7618   -0.0963 C.2       1 <1>        -0.0314
     16 C16         4.4837    2.7325   -2.9363 C.2       1 <1>         0.0844
     17 C17         4.6368    1.1735   -1.4069 C.ar      1 <1>         0.0835
     18 C18         4.9742    3.5146   -4.0213 C.2       1 <1>         0.0735
     19 C19         6.3763    3.2475   -4.5295 C.3       1 <1>         0.0285
     20 N1          5.1603    0.1769   -0.6674 N.ar      1 <1>        -0.3303
     21 N2          2.2348    3.5564   -2.5310 N.pl3     1 <1>        -0.3373
     22 O1          4.3544    4.4260   -4.6113 O.2       1 <1>        -0.5145
     23 O2          5.3122    1.7873   -2.4213 O.3       1 <1>        -0.3473
     24 S1          0.9927    3.0813    0.9733 S.3       1 <1>        -0.1713
     25 H1          6.2939   -4.2178    3.2589 H         1 <1>         0.1198
     26 H2          5.5885   -2.0915    4.3247 H         1 <1>         0.1199
     27 H3          6.0744   -4.5074    0.8038 H         1 <1>         0.1214
     28 H4         -2.0973    2.0306   -0.5730 H         1 <1>         0.1215
     29 H5          4.6670   -0.2603    2.9524 H         1 <1>         0.1353
     30 H6          5.1554   -2.6857   -0.5836 H         1 <1>         0.1468
     31 H7         -0.0569    0.5543   -1.3882 H         1 <1>         0.1320
     32 H8          2.4110   -0.2400    1.3063 H         1 <1>         0.1740
     33 H9         -1.3152    3.8655    1.1450 H         1 <1>         0.1784
     34 H10         6.4132    2.4923   -5.3304 H         1 <1>         0.1008
     35 H11         7.0637    2.9195   -3.7345 H         1 <1>         0.1113
     36 H12         6.8716    4.1281   -4.9762 H         1 <1>         0.1113
     37 H13         1.3407    3.4794   -2.0240 H         1 <1>         0.2547
     38 H14         2.2461    4.2308   -3.3103 H         1 <1>         0.2660
@<TRIPOS>BOND
     1    1    2 ar
     2    1    3 ar
     3    2    5 ar
     4    3    6 ar
     5    4    7 1
     6    4    9 2
     7    5   11 ar
     8    6   11 ar
     9    7   15 2
    10    8   12 ar
    11    8   14 ar
    12    9   24 1
    13   10   12 ar
    14   10   13 1
    15   10   17 ar
    16   11   14 1
    17   12   15 1
    18   13   16 2
    19   13   21 1
    20   14   20 ar
    21   15   24 1
    22   16   18 1
    23   16   23 1
    24   17   20 ar
    25   17   23 1
    26   18   19 1
    27   18   22 2
    28    1   25 1
    29    2   26 1
    30    3   27 1
    31    4   28 1
    32    5   29 1
    33    6   30 1
    34    7   31 1
    35    8   32 1
    36    9   33 1
    37   19   34 1
    38   19   35 1
    39   19   36 1
    40   21   37 1
    41   21   38 1
