@<TRIPOS>MOLECULE
AN-329/05740035
   44    47     0
SMALL
USER_CHARGE


@<TRIPOS>ATOM
      1 C1          5.8664   -3.4447    2.6778 C.ar      1 <1>        -0.0960
      2 C2          4.9518   -2.5447    3.2248 C.ar      1 <1>        -0.0918
      3 C3          6.2737   -3.3056    1.3510 C.ar      1 <1>        -0.0900
      4 C4          4.4446   -1.5056    2.4447 C.ar      1 <1>        -0.0748
      5 C5          5.7665   -2.2665    0.5711 C.ar      1 <1>        -0.0713
      6 C6          0.1454    0.9681   -0.1544 C.ar      1 <1>        -0.0685
      7 C7          1.1162    3.1378    0.2783 C.ar      1 <1>        -0.0736
      8 C8         -1.1289    1.4976    0.0491 C.ar      1 <1>        -0.0583
      9 C9         -0.1581    3.6673    0.4818 C.ar      1 <1>        -0.0652
     10 C10         3.0553    0.2029    0.5501 C.ar      1 <1>        -0.0349
     11 C11         3.4237    1.7431   -1.2676 C.ar      1 <1>         0.0029
     12 C12         1.2679    1.7881   -0.0398 C.ar      1 <1>        -0.0626
     13 C13         4.8518   -1.3663    1.1178 C.ar      1 <1>        -0.0475
     14 C14         2.5873    1.2399   -0.2505 C.ar      1 <1>        -0.0318
     15 C15         3.2472    2.7796   -2.2395 C.2       1 <1>         0.0078
     16 C16        -1.2807    2.8473    0.3672 C.ar      1 <1>        -0.0372
     17 C17         4.3260   -0.2891    0.3098 C.ar      1 <1>        -0.0119
     18 C18         4.3481    2.9357   -3.0526 C.2       1 <1>         0.0607
     19 C19         4.6773    1.1539   -1.3968 C.ar      1 <1>         0.0434
     20 C20         4.5603    3.8515   -4.1289 C.2       1 <1>         0.0837
     21 C21        -3.6277    2.4694    0.4318 C.3       1 <1>         0.0115
     22 N1          5.1735    0.1485   -0.6458 N.ar      1 <1>        -0.3559
     23 N2          2.1305    3.5391   -2.3677 N.pl3     1 <1>        -0.3460
     24 N3          5.7853    3.8132   -4.8135 N.am      1 <1>        -0.3073
     25 O1          3.6976    4.6985   -4.4725 O.2       1 <1>        -0.5228
     26 O2         -2.5241    3.3638    0.5651 O.3       1 <1>        -0.4627
     27 S1          5.6000    1.8408   -2.6557 S.3       1 <1>        -0.0709
     28 H1          6.2626   -4.2528    3.2860 H         1 <1>         0.1193
     29 H2          4.6357   -2.6518    4.2582 H         1 <1>         0.1196
     30 H3          6.9870   -4.0053    0.9251 H         1 <1>         0.1208
     31 H4          3.7323   -0.8118    2.8856 H         1 <1>         0.1345
     32 H5          6.0937   -2.1702   -0.4615 H         1 <1>         0.1447
     33 H6          0.2474   -0.0859   -0.4017 H         1 <1>         0.1452
     34 H7          1.9813    3.7899    0.3711 H         1 <1>         0.1384
     35 H8         -1.9996    0.8540   -0.0417 H         1 <1>         0.1464
     36 H9         -0.2703    4.7194    0.7290 H         1 <1>         0.1298
     37 H10         2.4368   -0.2089    1.3436 H         1 <1>         0.1661
     38 H11        -4.5597    3.0097    0.6150 H         1 <1>         0.1098
     39 H12        -3.5223    1.6501    1.1472 H         1 <1>         0.1100
     40 H13        -3.6372    2.0653   -0.5833 H         1 <1>         0.1338
     41 H14         1.2984    3.3814   -1.7862 H         1 <1>         0.2479
     42 H15         2.0349    4.2398   -3.1127 H         1 <1>         0.2557
     43 H16         6.4850    3.1377   -4.5259 H         1 <1>         0.2768
     44 H17         5.9958    4.4370   -5.5858 H         1 <1>         0.2725
@<TRIPOS>BOND
     1    1    2 ar
     2    1    3 ar
     3    2    4 ar
     4    3    5 ar
     5    4   13 ar
     6    5   13 ar
     7    6    8 ar
     8    6   12 ar
     9    7    9 ar
    10    7   12 ar
    11    8   16 ar
    12    9   16 ar
    13   10   14 ar
    14   10   17 ar
    15   11   14 ar
    16   11   15 1
    17   11   19 ar
    18   12   14 1
    19   13   17 1
    20   15   18 2
    21   15   23 1
    22   16   26 1
    23   17   22 ar
    24   18   20 1
    25   18   27 1
    26   19   22 ar
    27   19   27 1
    28   20   24 am
    29   20   25 2
    30   21   26 1
    31    1   28 1
    32    2   29 1
    33    3   30 1
    34    4   31 1
    35    5   32 1
    36    6   33 1
    37    7   34 1
    38    8   35 1
    39    9   36 1
    40   10   37 1
    41   21   38 1
    42   21   39 1
    43   21   40 1
    44   23   41 1
    45   23   42 1
    46   24   43 1
    47   24   44 1
