@<TRIPOS>MOLECULE
AG-205/32388062
   41    44     0
SMALL
USER_CHARGE


@<TRIPOS>ATOM
      1 C1          5.9426   -3.3585    2.5473 C.ar      1 <1>        -0.0981
      2 C2          7.4046    2.6259   -4.5260 C.ar      1 <1>        -0.0981
      3 C3          5.5671   -2.1580    3.1501 C.ar      1 <1>        -0.0923
      4 C4          5.8021   -3.5207    1.1690 C.ar      1 <1>        -0.0942
      5 C5          6.0274    2.7009   -4.7333 C.ar      1 <1>        -0.0942
      6 C6          7.9029    2.1015   -3.3332 C.ar      1 <1>        -0.0923
      7 C7          5.0512   -1.1196    2.3747 C.ar      1 <1>        -0.0754
      8 C8          5.2863   -2.4824    0.3936 C.ar      1 <1>        -0.0792
      9 C9          5.1482    2.2513   -3.7479 C.ar      1 <1>        -0.0792
     10 C10         7.0237    1.6519   -2.3479 C.ar      1 <1>        -0.0754
     11 C11         0.3076    1.0869    0.3117 C.ar      1 <1>        -0.0751
     12 C12         1.0933    3.2271   -0.4880 C.ar      1 <1>        -0.0751
     13 C13        -0.9642    1.6261    0.5053 C.ar      1 <1>        -0.0685
     14 C14        -0.1786    3.7663   -0.2945 C.ar      1 <1>        -0.0685
     15 C15         3.1050    0.2921    0.4247 C.ar      1 <1>        -0.0488
     16 C16         3.4809    1.8291   -1.3864 C.ar      1 <1>        -0.0488
     17 C17         1.3364    1.8874   -0.1849 C.ar      1 <1>        -0.0682
     18 C18         4.9107   -1.2818    0.9964 C.ar      1 <1>        -0.0555
     19 C19         5.6464    1.7269   -2.5552 C.ar      1 <1>        -0.0555
     20 C20         2.6558    1.3293   -0.3850 C.ar      1 <1>        -0.0530
     21 C21        -1.2072    2.9658    0.2020 C.ar      1 <1>        -0.0411
     22 C22         4.3768   -0.2067    0.1941 C.ar      1 <1>        -0.0289
     23 C23         4.7361    1.2617   -1.5359 C.ar      1 <1>        -0.0289
     24 N1          5.2069    0.2530   -0.7687 N.ar      1 <1>        -0.3878
     25 I1         -3.1020    3.7682    0.4893 I         1 <1>        -0.1315
     26 H1          6.3458   -4.1663    3.1511 H         1 <1>         0.1165
     27 H2          8.0889    2.9744   -5.2939 H         1 <1>         0.1165
     28 H3          5.6778   -2.0310    4.2231 H         1 <1>         0.1187
     29 H4          6.0956   -4.4546    0.6987 H         1 <1>         0.1176
     30 H5          5.6392    3.1075   -5.6625 H         1 <1>         0.1176
     31 H6          8.9752    2.0414   -3.1717 H         1 <1>         0.1187
     32 H7          4.7633   -0.1898    2.8595 H         1 <1>         0.1408
     33 H8          5.1832   -2.6230   -0.6798 H         1 <1>         0.1296
     34 H9          4.0772    2.3163   -3.9249 H         1 <1>         0.1296
     35 H10         7.4267    1.2450   -1.4235 H         1 <1>         0.1408
     36 H11         0.4821    0.0410    0.5532 H         1 <1>         0.1387
     37 H12         1.8853    3.8638   -0.8749 H         1 <1>         0.1387
     38 H13        -1.7507    0.9845    0.8936 H         1 <1>         0.1405
     39 H14        -0.3464    4.8126   -0.5371 H         1 <1>         0.1405
     40 H15         2.4785   -0.1141    1.2144 H         1 <1>         0.1545
     41 H16         3.1508    2.6384   -2.0318 H         1 <1>         0.1545
@<TRIPOS>BOND
     1    1    3 ar
     2    1    4 ar
     3    2    5 ar
     4    2    6 ar
     5    3    7 ar
     6    4    8 ar
     7    5    9 ar
     8    6   10 ar
     9    7   18 ar
    10    8   18 ar
    11    9   19 ar
    12   10   19 ar
    13   11   13 ar
    14   11   17 ar
    15   12   14 ar
    16   12   17 ar
    17   13   21 ar
    18   14   21 ar
    19   15   20 ar
    20   15   22 ar
    21   16   20 ar
    22   16   23 ar
    23   17   20 1
    24   18   22 1
    25   19   23 1
    26   21   25 1
    27   22   24 ar
    28   23   24 ar
    29    1   26 1
    30    2   27 1
    31    3   28 1
    32    4   29 1
    33    5   30 1
    34    6   31 1
    35    7   32 1
    36    8   33 1
    37    9   34 1
    38   10   35 1
    39   11   36 1
    40   12   37 1
    41   13   38 1
    42   14   39 1
    43   15   40 1
    44   16   41 1
