@<TRIPOS>MOLECULE
AG-690/36427043
   39    41     0
SMALL
USER_CHARGE


@<TRIPOS>ATOM
      1 C1          3.1628    2.7421   -2.1467 C.1       1 <1>         0.0359
      2 C2         -1.1407    2.8252    0.3067 C.ar      1 <1>        -0.0969
      3 C3          5.8745   -3.5138    2.7499 C.ar      1 <1>        -0.0962
      4 C4         -0.9927    1.4745   -0.0086 C.ar      1 <1>        -0.0938
      5 C5         -0.0155    3.6411    0.4252 C.ar      1 <1>        -0.0943
      6 C6          5.5115   -2.2996    3.3328 C.ar      1 <1>        -0.0920
      7 C7          5.7539   -3.6892    1.3713 C.ar      1 <1>        -0.0908
      8 C8          0.2803    0.9396   -0.2050 C.ar      1 <1>        -0.0823
      9 C9          1.2576    3.1061    0.2287 C.ar      1 <1>        -0.0836
     10 C10         5.0280   -1.2609    2.5371 C.ar      1 <1>        -0.0756
     11 C11         5.2704   -2.6506    0.5756 C.ar      1 <1>        -0.0730
     12 C12         3.1412    0.1641    0.5384 C.ar      1 <1>        -0.0241
     13 C13         3.5773    1.6727   -1.2832 C.ar      1 <1>         0.0958
     14 C14         1.4057    1.7554   -0.0864 C.ar      1 <1>        -0.0567
     15 C15         4.9074   -1.4365    1.1586 C.ar      1 <1>        -0.0499
     16 C16         2.7260    1.2003   -0.2906 C.ar      1 <1>         0.0063
     17 C17         4.4072   -0.3613    0.3355 C.ar      1 <1>        -0.0137
     18 C18         4.8238    1.0799   -1.4045 C.ar      1 <1>         0.0485
     19 C19         4.4602    1.1567   -4.8552 C.3       1 <1>        -0.0418
     20 C20         5.5241    0.5061   -3.9917 C.3       1 <1>         0.0000
     21 N1          2.8278    3.6066   -2.8445 N.1       1 <1>        -0.3790
     22 N2          5.2623    0.0716   -0.6181 N.ar      1 <1>        -0.3599
     23 S1          6.0065    1.6054   -2.6444 S.3       1 <1>        -0.1567
     24 H1         -2.1322    3.2418    0.4579 H         1 <1>         0.1200
     25 H2          6.2525   -4.3217    3.3694 H         1 <1>         0.1192
     26 H3         -1.8688    0.8395   -0.1025 H         1 <1>         0.1209
     27 H4         -0.1301    4.6931    0.6692 H         1 <1>         0.1204
     28 H5          5.6069   -2.1623    4.4059 H         1 <1>         0.1197
     29 H6          6.0376   -4.6339    0.9166 H         1 <1>         0.1198
     30 H7          0.3791   -0.1152   -0.4504 H         1 <1>         0.1310
     31 H8          2.1255    3.7544    0.3239 H         1 <1>         0.1262
     32 H9          4.7494   -0.3204    3.0065 H         1 <1>         0.1346
     33 H10         5.1825   -2.8018   -0.4976 H         1 <1>         0.1421
     34 H11         2.4954   -0.2232    1.3217 H         1 <1>         0.1720
     35 H12         3.5634    1.3982   -4.2746 H         1 <1>         0.0485
     36 H13         4.8290    2.0749   -5.3248 H         1 <1>         0.0485
     37 H14         4.1608    0.4726   -5.6563 H         1 <1>         0.0552
     38 H15         6.4094    0.2737   -4.5914 H         1 <1>         0.0977
     39 H16         5.1470   -0.4287   -3.5658 H         1 <1>         0.0977
@<TRIPOS>BOND
     1    1   13 1
     2    1   21 3
     3    2    4 ar
     4    2    5 ar
     5    3    6 ar
     6    3    7 ar
     7    4    8 ar
     8    5    9 ar
     9    6   10 ar
    10    7   11 ar
    11    8   14 ar
    12    9   14 ar
    13   10   15 ar
    14   11   15 ar
    15   12   16 ar
    16   12   17 ar
    17   13   16 ar
    18   13   18 ar
    19   14   16 1
    20   15   17 1
    21   17   22 ar
    22   18   22 ar
    23   18   23 1
    24   19   20 1
    25   20   23 1
    26    2   24 1
    27    3   25 1
    28    4   26 1
    29    5   27 1
    30    6   28 1
    31    7   29 1
    32    8   30 1
    33    9   31 1
    34   10   32 1
    35   11   33 1
    36   12   34 1
    37   19   35 1
    38   19   36 1
    39   19   37 1
    40   20   38 1
    41   20   39 1
