@<TRIPOS>MOLECULE
AG-205/33140043
   49    53     0
SMALL
USER_CHARGE


@<TRIPOS>ATOM
      1 C1          5.8669   -3.4444    2.6780 C.ar      1 <1>        -0.0958
      2 C2          5.4961   -2.2401    3.2763 C.ar      1 <1>        -0.0917
      3 C3          5.7303   -3.6096    1.2997 C.ar      1 <1>        -0.0898
      4 C4          4.9886   -1.2012    2.4962 C.ar      1 <1>        -0.0745
      5 C5          5.2227   -2.5705    0.5197 C.ar      1 <1>        -0.0709
      6 C6          0.1453    0.9680   -0.1542 C.ar      1 <1>        -0.0686
      7 C7          1.1161    3.1378    0.2782 C.ar      1 <1>        -0.0735
      8 C8         -1.1288    1.4977    0.0492 C.ar      1 <1>        -0.0583
      9 C9         -0.1581    3.6673    0.4816 C.ar      1 <1>        -0.0652
     10 C10         3.0554    0.2029    0.5501 C.ar      1 <1>        -0.0352
     11 C11         3.4237    1.7431   -1.2676 C.ar      1 <1>        -0.0005
     12 C12         1.2678    1.7882   -0.0399 C.ar      1 <1>        -0.0629
     13 C13         4.8519   -1.3662    1.1179 C.ar      1 <1>        -0.0471
     14 C14         2.5872    1.2400   -0.2505 C.ar      1 <1>        -0.0329
     15 C15         3.2472    2.7796   -2.2395 C.2       1 <1>        -0.0007
     16 C16        -1.2807    2.8472    0.3672 C.ar      1 <1>        -0.0371
     17 C17         4.3260   -0.2891    0.3099 C.ar      1 <1>        -0.0116
     18 C18         4.3480    2.9356   -3.0527 C.2       1 <1>         0.0456
     19 C19         4.6772    1.1539   -1.3968 C.ar      1 <1>         0.0416
     20 C20         4.5602    3.8513   -4.1291 C.2       1 <1>         0.0476
     21 C21         2.9611    5.7533   -4.8885 C.3       1 <1>        -0.0294
     22 C22         3.5759    5.1814   -6.1323 C.3       1 <1>        -0.0296
     23 C23         3.3612    4.3076   -4.9313 C.3       1 <1>         0.0121
     24 C24        -2.6071    4.7514    0.8873 C.3       1 <1>         0.0116
     25 N1          5.1736    0.1484   -0.6458 N.ar      1 <1>        -0.3557
     26 N2          2.1304    3.5390   -2.3678 N.pl3     1 <1>        -0.3488
     27 O1          5.6601    4.3198   -4.4854 O.2       1 <1>        -0.5266
     28 O2         -2.5241    3.3639    0.5650 O.3       1 <1>        -0.4626
     29 S1          5.5999    1.8408   -2.6558 S.3       1 <1>        -0.0779
     30 H1          6.2636   -4.2526    3.2853 H         1 <1>         0.1197
     31 H2          5.6041   -2.1107    4.3493 H         1 <1>         0.1196
     32 H3          6.0201   -4.5465    0.8330 H         1 <1>         0.1210
     33 H4          4.7042   -0.2682    2.9776 H         1 <1>         0.1347
     34 H5          5.1225   -2.7136   -0.5536 H         1 <1>         0.1450
     35 H6          0.2474   -0.0859   -0.4016 H         1 <1>         0.1451
     36 H7          1.9814    3.7899    0.3710 H         1 <1>         0.1388
     37 H8         -1.9996    0.8539   -0.0416 H         1 <1>         0.1463
     38 H9         -0.2704    4.7195    0.7289 H         1 <1>         0.1296
     39 H10         2.4370   -0.2088    1.3436 H         1 <1>         0.1657
     40 H11         3.5641    6.4286   -4.2938 H         1 <1>         0.0677
     41 H12         1.9071    6.0016   -4.9167 H         1 <1>         0.0670
     42 H13         2.9341    5.0486   -6.9948 H         1 <1>         0.0676
     43 H14         4.5923    5.4699   -6.3712 H         1 <1>         0.0661
     44 H15         2.5573    3.5820   -4.9934 H         1 <1>         0.0994
     45 H16        -3.6547    5.0335    1.0190 H         1 <1>         0.1339
     46 H17        -2.1585    5.3404    0.0836 H         1 <1>         0.1099
     47 H18        -2.0633    4.9336    1.8172 H         1 <1>         0.1100
     48 H19         1.2983    3.3814   -1.7862 H         1 <1>         0.2478
     49 H20         2.0347    4.2397   -3.1129 H         1 <1>         0.2532
@<TRIPOS>BOND
     1    1    2 ar
     2    1    3 ar
     3    2    4 ar
     4    3    5 ar
     5    4   13 ar
     6    5   13 ar
     7    6    8 ar
     8    6   12 ar
     9    7    9 ar
    10    7   12 ar
    11    8   16 ar
    12    9   16 ar
    13   10   14 ar
    14   10   17 ar
    15   11   14 ar
    16   11   15 1
    17   11   19 ar
    18   12   14 1
    19   13   17 1
    20   15   18 2
    21   15   26 1
    22   16   28 1
    23   17   25 ar
    24   18   20 1
    25   18   29 1
    26   19   25 ar
    27   19   29 1
    28   20   23 1
    29   20   27 2
    30   21   22 1
    31   21   23 1
    32   22   23 1
    33   24   28 1
    34    1   30 1
    35    2   31 1
    36    3   32 1
    37    4   33 1
    38    5   34 1
    39    6   35 1
    40    7   36 1
    41    8   37 1
    42    9   38 1
    43   10   39 1
    44   21   40 1
    45   21   41 1
    46   22   42 1
    47   22   43 1
    48   23   44 1
    49   24   45 1
    50   24   46 1
    51   24   47 1
    52   26   48 1
    53   26   49 1
