@<TRIPOS>MOLECULE
AK-777/36504058
   45    49     0
SMALL
USER_CHARGE


@<TRIPOS>ATOM
      1 C1          5.8667   -3.4445    2.6779 C.ar      1 <1>        -0.0954
      2 C2          5.4958   -2.2404    3.2762 C.ar      1 <1>        -0.0895
      3 C3          5.7301   -3.6097    1.2996 C.ar      1 <1>        -0.0915
      4 C4          4.9884   -1.2013    2.4962 C.ar      1 <1>        -0.0707
      5 C5          5.2225   -2.5705    0.5196 C.ar      1 <1>        -0.0744
      6 C6          1.0892    2.8581    0.8370 C.ar      1 <1>        -0.0605
      7 C7          0.1724    1.2477   -0.7131 C.ar      1 <1>        -0.0608
      8 C8         -0.1851    3.3878    1.0405 C.ar      1 <1>        -0.0303
      9 C9         -1.1020    1.7772   -0.5097 C.ar      1 <1>        -0.0303
     10 C10         3.0553    0.2030    0.5500 C.ar      1 <1>        -0.0337
     11 C11         3.4238    1.7431   -1.2677 C.ar      1 <1>         0.0008
     12 C12         1.2678    1.7882   -0.0399 C.ar      1 <1>        -0.0569
     13 C13         4.8516   -1.3664    1.1179 C.ar      1 <1>        -0.0467
     14 C14         2.5872    1.2401   -0.2506 C.ar      1 <1>        -0.0305
     15 C15         3.2472    2.7796   -2.2394 C.2       1 <1>        -0.0002
     16 C16        -1.2807    2.8472    0.3673 C.ar      1 <1>         0.0472
     17 C17         4.3259   -0.2892    0.3098 C.ar      1 <1>        -0.0106
     18 C18         4.3482    2.9357   -3.0526 C.2       1 <1>         0.0468
     19 C19         4.6771    1.1538   -1.3968 C.ar      1 <1>         0.0430
     20 C20         4.5604    3.8514   -4.1290 C.2       1 <1>         0.0487
     21 C21         6.0602    2.8269   -5.9868 C.3       1 <1>        -0.0293
     22 C22         5.9499    4.2947   -6.2792 C.3       1 <1>        -0.0294
     23 C23         5.8828    3.8046   -4.8624 C.3       1 <1>         0.0125
     24 N1          5.1735    0.1485   -0.6458 N.ar      1 <1>        -0.3545
     25 N2          2.1306    3.5392   -2.3677 N.pl3     1 <1>        -0.3490
     26 O1          3.7482    4.7086   -4.5313 O.2       1 <1>        -0.5255
     27 F1         -2.5044    3.3558    0.5628 F         1 <1>        -0.3383
     28 S1          5.6000    1.8408   -2.6557 S.3       1 <1>        -0.0761
     29 H1          6.2633   -4.2529    3.2852 H         1 <1>         0.1202
     30 H2          5.6037   -2.1110    4.3492 H         1 <1>         0.1214
     31 H3          6.0199   -4.5466    0.8328 H         1 <1>         0.1200
     32 H4          4.7040   -0.2685    2.9776 H         1 <1>         0.1454
     33 H5          5.1224   -2.7137   -0.5537 H         1 <1>         0.1346
     34 H6          1.9332    3.2906    1.3692 H         1 <1>         0.1481
     35 H7          0.2953    0.4135   -1.3998 H         1 <1>         0.1475
     36 H8         -0.3246    4.2209    1.7230 H         1 <1>         0.1556
     37 H9         -1.9555    1.3569   -1.0333 H         1 <1>         0.1561
     38 H10         2.4368   -0.2089    1.3434 H         1 <1>         0.1672
     39 H11         5.2187    2.1970   -6.2481 H         1 <1>         0.0678
     40 H12         7.0279    2.3587   -6.1204 H         1 <1>         0.0672
     41 H13         6.8434    4.8096   -6.6108 H         1 <1>         0.0678
     42 H14         5.0336    4.6511   -6.7337 H         1 <1>         0.0664
     43 H15         6.7509    3.9925   -4.2398 H         1 <1>         0.0995
     44 H16         1.2985    3.3814   -1.7863 H         1 <1>         0.2464
     45 H17         2.0349    4.2398   -3.1129 H         1 <1>         0.2535
@<TRIPOS>BOND
     1    1    2 ar
     2    1    3 ar
     3    2    4 ar
     4    3    5 ar
     5    4   13 ar
     6    5   13 ar
     7    6    8 ar
     8    6   12 ar
     9    7    9 ar
    10    7   12 ar
    11    8   16 ar
    12    9   16 ar
    13   10   14 ar
    14   10   17 ar
    15   11   14 ar
    16   11   15 1
    17   11   19 ar
    18   12   14 1
    19   13   17 1
    20   15   18 2
    21   15   25 1
    22   16   27 1
    23   17   24 ar
    24   18   20 1
    25   18   28 1
    26   19   24 ar
    27   19   28 1
    28   20   23 1
    29   20   26 2
    30   21   22 1
    31   21   23 1
    32   22   23 1
    33    1   29 1
    34    2   30 1
    35    3   31 1
    36    4   32 1
    37    5   33 1
    38    6   34 1
    39    7   35 1
    40    8   36 1
    41    9   37 1
    42   10   38 1
    43   21   39 1
    44   21   40 1
    45   22   41 1
    46   22   42 1
    47   23   43 1
    48   25   44 1
    49   25   45 1
