@<TRIPOS>MOLECULE
AM-807/41930361
   40    44     0
SMALL
USER_CHARGE


@<TRIPOS>ATOM
      1 C1          5.8513   -3.4421    2.6869 C.ar      1 <1>        -0.0990
      2 C2          5.4823   -2.2362    3.2826 C.ar      1 <1>        -0.0922
      3 C3          5.7170   -3.6090    1.3086 C.ar      1 <1>        -0.0943
      4 C4          4.9789   -1.1970    2.5000 C.ar      1 <1>        -0.0727
      5 C5          5.2137   -2.5699    0.5259 C.ar      1 <1>        -0.0765
      6 C6          1.0878    2.8592    0.8372 C.ar      1 <1>        -0.0704
      7 C7          0.1719    1.2481   -0.7129 C.ar      1 <1>        -0.0703
      8 C8         -0.1872    3.3862    1.0427 C.ar      1 <1>        -0.0563
      9 C9         -1.1031    1.7753   -0.5073 C.ar      1 <1>        -0.0572
     10 C10         3.0529    0.2083    0.5484 C.ar      1 <1>        -0.0375
     11 C11         3.4248    1.7460   -1.2711 C.ar      1 <1>         0.0085
     12 C12         1.2674    1.7901   -0.0406 C.ar      1 <1>        -0.0614
     13 C13         4.8446   -1.3639    1.1217 C.ar      1 <1>        -0.0494
     14 C14         2.5867    1.2451   -0.2539 C.ar      1 <1>        -0.0318
     15 C15         3.2753    2.7707   -2.2477 C.2       1 <1>         0.0195
     16 C16        -1.2826    2.8443    0.3705 C.ar      1 <1>        -0.0152
     17 C17         4.3230   -0.2865    0.3109 C.ar      1 <1>        -0.0143
     18 C18         4.3789    2.9162   -3.0537 C.2       1 <1>         0.0528
     19 C19         4.6810    1.1522   -1.3979 C.ar      1 <1>         0.0459
     20 C20         3.2217    4.7436   -4.2672 C.2       1 <1>        -0.0240
     21 C21         4.4539    3.8941   -4.1157 C.2       1 <1>         0.0435
     22 C22         2.1588    4.5586   -3.4435 C.2       1 <1>        -0.0342
     23 N1          5.1732    0.1470   -0.6440 N.ar      1 <1>        -0.3565
     24 N2          2.2006    3.5759   -2.4470 N.pl3     1 <1>        -0.3282
     25 O1          1.0528    5.1609   -3.4121 O.3       1 <1>        -0.5164
     26 O2          5.4111    4.0653   -4.8642 O.2       1 <1>        -0.5639
     27 S1          5.6169    1.8330   -2.6607 S.3       1 <1>        -0.0706
     28 Cl1        -2.8552    3.4963    0.6236 Cl        1 <1>        -0.1831
     29 H1          6.2449   -4.2504    3.2962 H         1 <1>         0.1139
     30 H2          5.5883   -2.1054    4.3556 H         1 <1>         0.1177
     31 H3          6.0057   -4.5473    0.8439 H         1 <1>         0.1160
     32 H4          4.6957   -0.2627    2.9794 H         1 <1>         0.1440
     33 H5          5.1154   -2.7144   -0.5472 H         1 <1>         0.1328
     34 H6          1.9319    3.2926    1.3685 H         1 <1>         0.1403
     35 H7          0.2958    0.4152   -1.4011 H         1 <1>         0.1420
     36 H8         -0.3126    4.2208    1.7283 H         1 <1>         0.1501
     37 H9         -1.9475    1.3438   -1.0388 H         1 <1>         0.1461
     38 H10         2.4335   -0.2015    1.3424 H         1 <1>         0.1615
     39 H11         3.2286    5.4932   -5.0521 H         1 <1>         0.1319
     40 H12         1.3563    3.5205   -1.8876 H         1 <1>         0.3086
@<TRIPOS>BOND
     1    1    2 ar
     2    1    3 ar
     3    2    4 ar
     4    3    5 ar
     5    4   13 ar
     6    5   13 ar
     7    6    8 ar
     8    6   12 ar
     9    7    9 ar
    10    7   12 ar
    11    8   16 ar
    12    9   16 ar
    13   10   14 ar
    14   10   17 ar
    15   11   14 ar
    16   11   15 1
    17   11   19 ar
    18   12   14 1
    19   13   17 1
    20   15   18 2
    21   15   24 1
    22   16   28 1
    23   17   23 ar
    24   18   21 1
    25   18   27 1
    26   19   23 ar
    27   19   27 1
    28   20   21 1
    29   20   22 2
    30   21   26 2
    31   22   24 1
    32   22   25 1
    33    1   29 1
    34    2   30 1
    35    3   31 1
    36    4   32 1
    37    5   33 1
    38    6   34 1
    39    7   35 1
    40    8   36 1
    41    9   37 1
    42   10   38 1
    43   20   39 1
    44   24   40 1
