@<TRIPOS>MOLECULE
AI-211/36556008
   36    38     0
SMALL
USER_CHARGE


@<TRIPOS>ATOM
      1 C1          3.0946    2.9001   -2.2764 C.1       1 <1>         0.0471
      2 C2          0.2294    1.0603   -0.2997 C.ar      1 <1>        -0.0641
      3 C3          1.1898    3.2342    0.1343 C.ar      1 <1>        -0.0656
      4 C4          5.0362   -1.1075    2.3734 C.ar      1 <1>        -0.0576
      5 C5          5.2707   -2.4796    0.3988 C.ar      1 <1>        -0.0550
      6 C6         -1.0467    1.5814   -0.0864 C.ar      1 <1>        -0.0551
      7 C7         -0.0863    3.7555    0.3476 C.ar      1 <1>        -0.0556
      8 C8          5.5402   -2.1467    3.1555 C.ar      1 <1>        -0.0533
      9 C9          5.7748   -3.5189    1.1808 C.ar      1 <1>        -0.0521
     10 C10         3.1097    0.3103    0.4077 C.ar      1 <1>        -0.0191
     11 C11         3.5044    1.8343   -1.4105 C.ar      1 <1>         0.1215
     12 C12         1.3478    1.8866   -0.1893 C.ar      1 <1>        -0.0435
     13 C13         4.9014   -1.2739    0.9950 C.ar      1 <1>        -0.0375
     14 C14         2.6716    1.3460   -0.4100 C.ar      1 <1>         0.0197
     15 C15        -1.2046    2.9291    0.2371 C.ar      1 <1>        -0.0139
     16 C16         5.9095   -3.3523    2.5592 C.ar      1 <1>        -0.0132
     17 C17         4.3791   -0.1986    0.1858 C.ar      1 <1>        -0.0017
     18 C18         4.7564    1.2574   -1.5510 C.ar      1 <1>         0.0946
     19 C19         6.4981    2.7578   -2.1602 C.3       1 <1>         0.0347
     20 N1          2.7626    3.7632   -2.9776 N.1       1 <1>        -0.3782
     21 N2          5.2168    0.2500   -0.7760 N.ar      1 <1>        -0.3347
     22 O1          5.6158    1.7029   -2.5224 O.3       1 <1>        -0.4079
     23 Cl1        -2.7794    3.5711    0.5017 Cl        1 <1>        -0.1809
     24 Cl2         6.5300   -4.6347    3.5249 Cl        1 <1>        -0.1816
     25 H1          0.3363    0.0077   -0.5511 H         1 <1>         0.1471
     26 H2          2.0519    3.8911    0.2249 H         1 <1>         0.1418
     27 H3          4.7525   -0.1737    2.8529 H         1 <1>         0.1506
     28 H4          5.1708   -2.6250   -0.6743 H         1 <1>         0.1581
     29 H5         -1.9096    0.9257   -0.1739 H         1 <1>         0.1478
     30 H6         -0.1944    4.8073    0.6002 H         1 <1>         0.1473
     31 H7          5.6383   -2.0042    4.2288 H         1 <1>         0.1467
     32 H8          6.0575   -4.4534    0.7029 H         1 <1>         0.1468
     33 H9          2.4779   -0.0890    1.1966 H         1 <1>         0.1707
     34 H10         7.1257    3.0189   -3.0158 H         1 <1>         0.1256
     35 H11         7.1217    2.4403   -1.3207 H         1 <1>         0.1256
     36 H12         5.9083    3.6287   -1.8647 H         1 <1>         0.1450
@<TRIPOS>BOND
     1    1   11 1
     2    1   20 3
     3    2    6 ar
     4    2   12 ar
     5    3    7 ar
     6    3   12 ar
     7    4    8 ar
     8    4   13 ar
     9    5    9 ar
    10    5   13 ar
    11    6   15 ar
    12    7   15 ar
    13    8   16 ar
    14    9   16 ar
    15   10   14 ar
    16   10   17 ar
    17   11   14 ar
    18   11   18 ar
    19   12   14 1
    20   13   17 1
    21   15   23 1
    22   16   24 1
    23   17   21 ar
    24   18   21 ar
    25   18   22 1
    26   19   22 1
    27    2   25 1
    28    3   26 1
    29    4   27 1
    30    5   28 1
    31    6   29 1
    32    7   30 1
    33    8   31 1
    34    9   32 1
    35   10   33 1
    36   19   34 1
    37   19   35 1
    38   19   36 1
