@<TRIPOS>MOLECULE
AS-980/15246972
   40    43     0
SMALL
USER_CHARGE


@<TRIPOS>ATOM
      1 C1         -1.7642    2.9296    0.5688 C.ar      1 <1>        -0.0954
      2 C2          5.9438   -3.0832    2.2606 C.ar      1 <1>        -0.0915
      3 C3         -1.5904    1.8431   -0.2884 C.ar      1 <1>        -0.0902
      4 C4         -0.6725    3.4533    1.2614 C.ar      1 <1>        -0.0898
      5 C5          6.1329   -2.7961    0.9088 C.ar      1 <1>        -0.0826
      6 C6          5.0097   -2.3608    3.0031 C.ar      1 <1>        -0.0818
      7 C7         -0.3247    1.2801   -0.4529 C.ar      1 <1>        -0.0709
      8 C8          0.5931    2.8902    1.0970 C.ar      1 <1>        -0.0705
      9 C9          5.3879   -1.7866    0.2994 C.ar      1 <1>        -0.0566
     10 C10         4.2647   -1.3511    2.3936 C.ar      1 <1>        -0.0556
     11 C11         4.4073    2.4846   -2.6229 C.ar      1 <1>        -0.0643
     12 C12         3.0522    1.5793   -0.8796 C.ar      1 <1>         0.0074
     13 C13         0.7669    1.8036    0.2397 C.ar      1 <1>        -0.0350
     14 C14         3.1999    2.4999   -1.9245 C.ar      1 <1>        -0.0580
     15 C15         4.4538   -1.0641    1.0418 C.ar      1 <1>        -0.0121
     16 C16         2.0746    1.2221    0.0701 C.2       1 <1>         0.0256
     17 C17         5.3877    1.5705   -2.2518 C.ar      1 <1>        -0.0483
     18 C18         4.1095    0.7230   -0.6142 C.ar      1 <1>         0.0349
     19 C19         2.1450    3.4799   -2.3195 C.3       1 <1>        -0.0241
     20 C20         6.6767    1.5657   -3.0102 C.3       1 <1>        -0.0103
     21 N1          2.4696    0.2272    0.8715 N.2       1 <1>        -0.3177
     22 N2          5.2923    0.6623   -1.2506 N.ar      1 <1>        -0.3742
     23 N3          3.7094   -0.0551    0.4318 N.pl3     1 <1>        -0.2876
     24 H1         -2.7493    3.3687    0.6962 H         1 <1>         0.1194
     25 H2          6.5223   -3.8702    2.7353 H         1 <1>         0.1191
     26 H3         -2.4399    1.4360   -0.8288 H         1 <1>         0.1214
     27 H4         -0.8080    4.3000    1.9278 H         1 <1>         0.1216
     28 H5          6.8593   -3.3593    0.3303 H         1 <1>         0.1277
     29 H6          4.8620   -2.5858    4.0554 H         1 <1>         0.1290
     30 H7         -0.2054    0.4333   -1.1248 H         1 <1>         0.1376
     31 H8          1.4339    3.3101    1.6441 H         1 <1>         0.1376
     32 H9          5.5445   -1.5735   -0.7552 H         1 <1>         0.1474
     33 H10         3.5393   -0.7962    2.9838 H         1 <1>         0.1498
     34 H11         4.5787    3.1769   -3.4424 H         1 <1>         0.1395
     35 H12         1.4862    3.0438   -3.0796 H         1 <1>         0.0762
     36 H13         1.5351    3.7755   -1.4568 H         1 <1>         0.0719
     37 H14         2.5883    4.3976   -2.7262 H         1 <1>         0.0743
     38 H15         7.3925    2.2506   -2.5429 H         1 <1>         0.0932
     39 H16         7.1159    0.5618   -3.0352 H         1 <1>         0.0917
     40 H17         6.5228    1.8747   -4.0509 H         1 <1>         0.0911
@<TRIPOS>BOND
     1    1    3 ar
     2    1    4 ar
     3    2    5 ar
     4    2    6 ar
     5    3    7 ar
     6    4    8 ar
     7    5    9 ar
     8    6   10 ar
     9    7   13 ar
    10    8   13 ar
    11    9   15 ar
    12   10   15 ar
    13   11   14 ar
    14   11   17 ar
    15   12   14 ar
    16   12   16 1
    17   12   18 ar
    18   13   16 1
    19   14   19 1
    20   15   23 1
    21   16   21 2
    22   17   20 1
    23   17   22 ar
    24   18   22 ar
    25   18   23 1
    26   21   23 1
    27    1   24 1
    28    2   25 1
    29    3   26 1
    30    4   27 1
    31    5   28 1
    32    6   29 1
    33    7   30 1
    34    8   31 1
    35    9   32 1
    36   10   33 1
    37   11   34 1
    38   19   35 1
    39   19   36 1
    40   19   37 1
    41   20   38 1
    42   20   39 1
    43   20   40 1
