@<TRIPOS>MOLECULE
AI-211/36556006
   39    41     0
SMALL
USER_CHARGE


@<TRIPOS>ATOM
      1 C1          3.0945    2.9001   -2.2762 C.1       1 <1>         0.0466
      2 C2          0.2294    1.0603   -0.2995 C.ar      1 <1>        -0.0823
      3 C3          1.1899    3.2343    0.1342 C.ar      1 <1>        -0.0809
      4 C4          5.0358   -1.1076    2.3735 C.ar      1 <1>        -0.0600
      5 C5          5.2710   -2.4796    0.3987 C.ar      1 <1>        -0.0573
      6 C6         -1.0467    1.5816   -0.0866 C.ar      1 <1>        -0.0968
      7 C7         -0.0862    3.7557    0.3471 C.ar      1 <1>        -0.0963
      8 C8          5.5403   -2.1467    3.1554 C.ar      1 <1>        -0.0618
      9 C9          5.7755   -3.5187    1.1807 C.ar      1 <1>        -0.0606
     10 C10         3.1095    0.3102    0.4079 C.ar      1 <1>        -0.0200
     11 C11         3.5043    1.8342   -1.4103 C.ar      1 <1>         0.1205
     12 C12         1.3478    1.8867   -0.1891 C.ar      1 <1>        -0.0530
     13 C13         4.9010   -1.2742    0.9950 C.ar      1 <1>        -0.0379
     14 C14         2.6713    1.3460   -0.4098 C.ar      1 <1>         0.0169
     15 C15        -1.2046    2.9292    0.2368 C.ar      1 <1>        -0.1093
     16 C16         5.9102   -3.3522    2.5591 C.ar      1 <1>        -0.0349
     17 C17         4.3790   -0.1987    0.1858 C.ar      1 <1>        -0.0020
     18 C18         4.7562    1.2573   -1.5507 C.ar      1 <1>         0.0940
     19 C19        -2.5690    3.4865    0.4646 C.3       1 <1>        -0.0422
     20 C20         6.4980    2.7576   -2.1600 C.3       1 <1>         0.0344
     21 N1          2.7625    3.7633   -2.9772 N.1       1 <1>        -0.3790
     22 N2          5.2166    0.2498   -0.7759 N.ar      1 <1>        -0.3352
     23 O1          5.6156    1.7028   -2.5223 O.3       1 <1>        -0.4083
     24 Br1         6.5948   -4.7601    3.6178 Br        1 <1>        -0.1390
     25 H1          0.3361    0.0075   -0.5503 H         1 <1>         0.1284
     26 H2          2.0517    3.8914    0.2234 H         1 <1>         0.1334
     27 H3          4.7518   -0.1739    2.8529 H         1 <1>         0.1495
     28 H4          5.1727   -2.6245   -0.6744 H         1 <1>         0.1570
     29 H5         -1.9123    0.9303   -0.1737 H         1 <1>         0.1208
     30 H6         -0.2001    4.8070    0.5981 H         1 <1>         0.1214
     31 H7          5.6397   -2.0005    4.2280 H         1 <1>         0.1443
     32 H8          6.0590   -4.4515    0.7006 H         1 <1>         0.1443
     33 H9          2.4776   -0.0891    1.1968 H         1 <1>         0.1698
     34 H10        -2.8460    3.3980    1.5223 H         1 <1>         0.0617
     35 H11        -2.6198    4.5453    0.1792 H         1 <1>         0.0593
     36 H12        -3.3205    2.9591   -0.1371 H         1 <1>         0.0589
     37 H13         7.1256    3.0187   -3.0154 H         1 <1>         0.1252
     38 H14         7.1216    2.4401   -1.3204 H         1 <1>         0.1446
     39 H15         5.9082    3.6286   -1.8643 H         1 <1>         0.1252
@<TRIPOS>BOND
     1    1   11 1
     2    1   21 3
     3    2    6 ar
     4    2   12 ar
     5    3    7 ar
     6    3   12 ar
     7    4    8 ar
     8    4   13 ar
     9    5    9 ar
    10    5   13 ar
    11    6   15 ar
    12    7   15 ar
    13    8   16 ar
    14    9   16 ar
    15   10   14 ar
    16   10   17 ar
    17   11   14 ar
    18   11   18 ar
    19   12   14 1
    20   13   17 1
    21   15   19 1
    22   16   24 1
    23   17   22 ar
    24   18   22 ar
    25   18   23 1
    26   20   23 1
    27    2   25 1
    28    3   26 1
    29    4   27 1
    30    5   28 1
    31    6   29 1
    32    7   30 1
    33    8   31 1
    34    9   32 1
    35   10   33 1
    36   19   34 1
    37   19   35 1
    38   19   36 1
    39   20   37 1
    40   20   38 1
    41   20   39 1
