@<TRIPOS>MOLECULE
AI-031/12583059
   39    42     0
SMALL
USER_CHARGE


@<TRIPOS>ATOM
      1 C1         -1.4107    2.5671    0.7461 C.ar      1 <1>        -0.0953
      2 C2         -0.7760    1.3254    0.7191 C.ar      1 <1>        -0.0915
      3 C3         -0.7957    3.6775    0.1677 C.ar      1 <1>        -0.0885
      4 C4          0.4739    1.1940    0.1138 C.ar      1 <1>        -0.0730
      5 C5          0.4542    3.5462   -0.4374 C.ar      1 <1>        -0.0681
      6 C6          4.8873   -2.4391    3.1585 C.ar      1 <1>        -0.0814
      7 C7          6.2593   -3.3212    1.3763 C.ar      1 <1>        -0.0834
      8 C8          4.4719   -1.4008    2.3248 C.ar      1 <1>        -0.0541
      9 C9          5.8439   -2.2829    0.5426 C.ar      1 <1>        -0.0581
     10 C10         3.3253    0.3423    0.2495 C.2       1 <1>         0.0190
     11 C11         3.3729    1.2728   -0.7476 C.ar      1 <1>         0.0330
     12 C12         1.0890    2.3043   -0.4644 C.ar      1 <1>        -0.0341
     13 C13         5.7811   -3.3992    2.6843 C.ar      1 <1>        -0.1009
     14 C14         4.6603    1.1504   -1.3858 C.ar      1 <1>         0.0463
     15 C15         4.9502   -1.3227    1.0169 C.ar      1 <1>        -0.0185
     16 C16         2.3702    2.1692   -1.0849 C.ar      1 <1>         0.0331
     17 C17         4.9958    1.9892   -2.4584 C.ar      1 <1>         0.0255
     18 C18         6.2253   -4.5094    3.5754 C.3       1 <1>        -0.0398
     19 C19         6.2726    1.9853   -3.2151 C.3       1 <1>         0.0130
     20 N1          5.3578    0.1727   -0.7823 N.2       1 <1>        -0.3235
     21 N2          2.7245    2.9675   -2.1270 N.ar      1 <1>        -0.3060
     22 N3          4.0193    2.8762   -2.8017 N.ar      1 <1>        -0.3068
     23 N4          4.5358   -0.2854    0.1835 N.pl3     1 <1>        -0.3026
     24 H1         -2.3846    2.6688    1.2159 H         1 <1>         0.1198
     25 H2         -1.2555    0.4604    1.1677 H         1 <1>         0.1198
     26 H3         -1.2899    4.6444    0.1872 H         1 <1>         0.1232
     27 H4          0.9556    0.2191    0.1008 H         1 <1>         0.1305
     28 H5          0.9211    4.4205   -0.8846 H         1 <1>         0.1440
     29 H6          4.5101   -2.4927    4.1763 H         1 <1>         0.1349
     30 H7          6.9560   -4.0648    0.9982 H         1 <1>         0.1341
     31 H8          3.7755   -0.6583    2.7073 H         1 <1>         0.1585
     32 H9          6.2251   -2.2346   -0.4747 H         1 <1>         0.1468
     33 H10         2.5709    0.0730    0.9779 H         1 <1>         0.2522
     34 H11         5.5501   -5.3687    3.4810 H         1 <1>         0.0635
     35 H12         7.2428   -4.8375    3.3266 H         1 <1>         0.0608
     36 H13         6.2417   -4.1939    4.6270 H         1 <1>         0.0608
     37 H14         6.2152    1.2990   -4.0719 H         1 <1>         0.1033
     38 H15         6.5216    2.9874   -3.5956 H         1 <1>         0.1036
     39 H16         7.1177    1.6734   -2.5829 H         1 <1>         0.1001
@<TRIPOS>BOND
     1    1    2 ar
     2    1    3 ar
     3    2    4 ar
     4    3    5 ar
     5    4   12 ar
     6    5   12 ar
     7    6    8 ar
     8    6   13 ar
     9    7    9 ar
    10    7   13 ar
    11    8   15 ar
    12    9   15 ar
    13   10   11 2
    14   10   23 1
    15   11   14 ar
    16   11   16 ar
    17   12   16 1
    18   13   18 1
    19   14   17 ar
    20   14   20 2
    21   15   23 1
    22   16   21 ar
    23   17   19 1
    24   17   22 ar
    25   20   23 1
    26   21   22 ar
    27    1   24 1
    28    2   25 1
    29    3   26 1
    30    4   27 1
    31    5   28 1
    32    6   29 1
    33    7   30 1
    34    8   31 1
    35    9   32 1
    36   10   33 1
    37   18   34 1
    38   18   35 1
    39   18   36 1
    40   19   37 1
    41   19   38 1
    42   19   39 1
