@<TRIPOS>MOLECULE
AN-919/13952015
   39    41     0
SMALL
USER_CHARGE


@<TRIPOS>ATOM
      1 C1          3.1627    2.7422   -2.1467 C.1       1 <1>         0.0357
      2 C2          5.8741   -3.5138    2.7499 C.ar      1 <1>        -0.0963
      3 C3          4.9641   -2.5972    3.2766 C.ar      1 <1>        -0.0921
      4 C4          6.3009   -3.3916    1.4276 C.ar      1 <1>        -0.0908
      5 C5          4.4808   -1.5585    2.4809 C.ar      1 <1>        -0.0757
      6 C6          5.8176   -2.3529    0.6319 C.ar      1 <1>        -0.0730
      7 C7          0.2802    0.9396   -0.2053 C.ar      1 <1>        -0.0833
      8 C8          1.2578    3.1059    0.2288 C.ar      1 <1>        -0.0821
      9 C9         -0.9928    1.4745   -0.0085 C.ar      1 <1>        -0.0972
     10 C10        -0.0152    3.6409    0.4257 C.ar      1 <1>        -0.0967
     11 C11         3.1413    0.1640    0.5383 C.ar      1 <1>        -0.0242
     12 C12         3.5773    1.6727   -1.2833 C.ar      1 <1>         0.0956
     13 C13         1.4055    1.7552   -0.0866 C.ar      1 <1>        -0.0562
     14 C14         4.9075   -1.4363    1.1585 C.ar      1 <1>        -0.0500
     15 C15         2.7259    1.2002   -0.2907 C.ar      1 <1>         0.0063
     16 C16        -1.1406    2.8252    0.3070 C.ar      1 <1>        -0.1097
     17 C17         4.4073   -0.3612    0.3354 C.ar      1 <1>        -0.0139
     18 C18         4.8240    1.0802   -1.4045 C.ar      1 <1>         0.0484
     19 C19        -2.5016    3.3972    0.5178 C.3       1 <1>        -0.0424
     20 C20         5.0370    1.2765   -4.1302 C.3       1 <1>         0.0053
     21 N1          2.8277    3.6067   -2.8446 N.1       1 <1>        -0.3791
     22 N2          5.2623    0.0717   -0.6181 N.ar      1 <1>        -0.3602
     23 S1          6.0067    1.6056   -2.6443 S.3       1 <1>        -0.1546
     24 H1          6.2516   -4.3214    3.3702 H         1 <1>         0.1191
     25 H2          4.6329   -2.6912    4.3066 H         1 <1>         0.1197
     26 H3          7.0106   -4.1041    1.0173 H         1 <1>         0.1198
     27 H4          3.7718   -0.8518    2.9061 H         1 <1>         0.1345
     28 H5          6.1597   -2.2700   -0.3970 H         1 <1>         0.1422
     29 H6          0.3789   -0.1154   -0.4501 H         1 <1>         0.1274
     30 H7          2.1254    3.7547    0.3241 H         1 <1>         0.1322
     31 H8         -1.8639    0.8315   -0.1018 H         1 <1>         0.1206
     32 H9         -0.1210    4.6945    0.6705 H         1 <1>         0.1211
     33 H10         2.4954   -0.2231    1.3216 H         1 <1>         0.1718
     34 H11        -2.7908    3.3165    1.5728 H         1 <1>         0.0615
     35 H12        -2.5387    4.4552    0.2269 H         1 <1>         0.0591
     36 H13        -3.2520    2.8746   -0.0897 H         1 <1>         0.0589
     37 H14         5.6148    1.5446   -5.0180 H         1 <1>         0.0969
     38 H15         4.1176    1.8667   -4.1116 H         1 <1>         0.0969
     39 H16         4.7798    0.2155   -4.1780 H         1 <1>         0.1036
@<TRIPOS>BOND
     1    1   12 1
     2    1   21 3
     3    2    3 ar
     4    2    4 ar
     5    3    5 ar
     6    4    6 ar
     7    5   14 ar
     8    6   14 ar
     9    7    9 ar
    10    7   13 ar
    11    8   10 ar
    12    8   13 ar
    13    9   16 ar
    14   10   16 ar
    15   11   15 ar
    16   11   17 ar
    17   12   15 ar
    18   12   18 ar
    19   13   15 1
    20   14   17 1
    21   16   19 1
    22   17   22 ar
    23   18   22 ar
    24   18   23 1
    25   20   23 1
    26    2   24 1
    27    3   25 1
    28    4   26 1
    29    5   27 1
    30    6   28 1
    31    7   29 1
    32    8   30 1
    33    9   31 1
    34   10   32 1
    35   11   33 1
    36   19   34 1
    37   19   35 1
    38   19   36 1
    39   20   37 1
    40   20   38 1
    41   20   39 1
