@<TRIPOS>MOLECULE
AG-401/43339472
   30    32     0
SMALL
USER_CHARGE


@<TRIPOS>ATOM
      1 C1          5.7900   -3.3473    2.6245 C.ar      1 <1>        -0.0942
      2 C2          6.2433   -3.2463    1.3092 C.ar      1 <1>        -0.0872
      3 C3          4.8875   -2.4089    3.1252 C.ar      1 <1>        -0.0870
      4 C4          5.7941   -2.2069    0.4947 C.ar      1 <1>        -0.0618
      5 C5          4.4384   -1.3696    2.3106 C.ar      1 <1>        -0.0613
      6 C6          1.2761    3.1215    0.2026 C.ar      1 <1>        -0.0457
      7 C7         -0.0060    3.6082    0.4573 C.ar      1 <1>        -0.0346
      8 C8          3.5611    1.8099   -1.4185 C.ar      1 <1>        -0.0293
      9 C9          0.3572    0.9309   -0.2378 C.ar      1 <1>        -0.0218
     10 C10         4.8106    1.2443   -1.5704 C.ar      1 <1>        -0.0123
     11 C11         4.8916   -1.2685    0.9953 C.ar      1 <1>        -0.0262
     12 C12         1.4577    1.7828   -0.1450 C.ar      1 <1>        -0.0257
     13 C13        -1.1065    2.7562    0.3645 C.ar      1 <1>         0.0275
     14 C14        -0.9250    1.4175    0.0170 C.ar      1 <1>         0.0307
     15 C15         2.7849    1.2801   -0.4080 C.ar      1 <1>        -0.0063
     16 C16         4.4258   -0.1907    0.1501 C.ar      1 <1>         0.0164
     17 N1          5.2770    0.2389   -0.8009 N.ar      1 <1>        -0.3670
     18 N2          3.1871    0.2757    0.3982 N.ar      1 <1>        -0.3590
     19 Cl1        -2.6688    3.4183    0.6955 Cl        1 <1>        -0.1546
     20 Cl2        -2.2488    0.3127   -0.1101 Cl        1 <1>        -0.1549
     21 H1          6.1385   -4.1577    3.2579 H         1 <1>         0.1200
     22 H2          6.9446   -3.9777    0.9186 H         1 <1>         0.1206
     23 H3          4.5331   -2.4879    4.1487 H         1 <1>         0.1210
     24 H4          6.1565   -2.1419   -0.5286 H         1 <1>         0.1481
     25 H5          3.7343   -0.6459    2.7146 H         1 <1>         0.1496
     26 H6          2.1239    3.7985    0.2767 H         1 <1>         0.1667
     27 H7         -0.1289    4.6545    0.7260 H         1 <1>         0.1618
     28 H8          3.2253    2.6163   -2.0584 H         1 <1>         0.1620
     29 H9          0.5006   -0.1130   -0.5102 H         1 <1>         0.1733
     30 H10         5.4920    1.5945   -2.3384 H         1 <1>         0.2314
@<TRIPOS>BOND
     1    1    2 ar
     2    1    3 ar
     3    2    4 ar
     4    3    5 ar
     5    4   11 ar
     6    5   11 ar
     7    6    7 ar
     8    6   12 ar
     9    7   13 ar
    10    8   10 ar
    11    8   15 ar
    12    9   12 ar
    13    9   14 ar
    14   10   17 ar
    15   11   16 1
    16   12   15 1
    17   13   14 ar
    18   13   19 1
    19   14   20 1
    20   15   18 ar
    21   16   17 ar
    22   16   18 ar
    23    1   21 1
    24    2   22 1
    25    3   23 1
    26    4   24 1
    27    5   25 1
    28    6   26 1
    29    7   27 1
    30    8   28 1
    31    9   29 1
    32   10   30 1
