@<TRIPOS>MOLECULE
AM-879/15041697
   38    40     0
SMALL
USER_CHARGE


@<TRIPOS>ATOM
      1 C1          3.1899    2.8413   -2.2706 C.1       1 <1>         0.0251
      2 C2          5.9128   -3.4144    2.6231 C.ar      1 <1>        -0.0971
      3 C3          5.0020   -2.5006    3.1529 C.ar      1 <1>        -0.0924
      4 C4          6.3368   -3.2893    1.3000 C.ar      1 <1>        -0.0911
      5 C5         -0.0007    3.7380    0.3153 C.ar      1 <1>        -0.0826
      6 C6          4.5149   -1.4616    2.3597 C.ar      1 <1>        -0.0748
      7 C7          5.8499   -2.2503    0.5069 C.ar      1 <1>        -0.0719
      8 C8          1.2729    3.2051    0.1162 C.ar      1 <1>        -0.0769
      9 C9         -1.1249    2.9203    0.1984 C.ar      1 <1>        -0.0686
     10 C10         0.2983    1.0372   -0.3167 C.ar      1 <1>        -0.0485
     11 C11         3.1669    0.2636    0.4206 C.ar      1 <1>        -0.0271
     12 C12         3.5956    1.7750   -1.4005 C.ar      1 <1>         0.0885
     13 C13         4.9389   -1.3364    1.0367 C.ar      1 <1>        -0.0486
     14 C14         1.4225    1.8549   -0.1997 C.ar      1 <1>        -0.0424
     15 C15         2.7475    1.2995   -0.4066 C.ar      1 <1>         0.0081
     16 C16        -0.9753    1.5700   -0.1177 C.ar      1 <1>        -0.0355
     17 C17         4.4338   -0.2585    0.2145 C.ar      1 <1>        -0.0137
     18 C18         4.8432    1.1853   -1.5251 C.ar      1 <1>         0.0398
     19 C19        -1.8475   -0.5984   -0.5570 C.3       1 <1>         0.0106
     20 N1          2.8619    3.7038   -2.9744 N.1       1 <1>        -0.3928
     21 N2          5.2856    0.1771   -0.7405 N.ar      1 <1>        -0.3626
     22 N3          5.7230    1.6557   -2.5329 N.pl3     1 <1>        -0.3208
     23 O1         -2.0723    0.7725   -0.2316 O.3       1 <1>        -0.4631
     24 H1          6.2932   -4.2223    3.2413 H         1 <1>         0.1175
     25 H2          4.6729   -2.5969    4.1834 H         1 <1>         0.1184
     26 H3          7.0472   -3.9996    0.8873 H         1 <1>         0.1185
     27 H4         -0.1172    4.7894    0.5609 H         1 <1>         0.1287
     28 H5          3.8053   -0.7571    2.7874 H         1 <1>         0.1356
     29 H6          6.1900   -2.1650   -0.5224 H         1 <1>         0.1441
     30 H7          2.1394    3.8554    0.2110 H         1 <1>         0.1291
     31 H8         -2.1147    3.3407    0.3545 H         1 <1>         0.1274
     32 H9          0.4053   -0.0171   -0.5637 H         1 <1>         0.1506
     33 H10         2.5235   -0.1253    1.2052 H         1 <1>         0.1588
     34 H11        -2.8052   -1.1212   -0.6172 H         1 <1>         0.1327
     35 H12        -1.2173   -1.0569    0.2092 H         1 <1>         0.1088
     36 H13        -1.3423   -0.6560   -1.5240 H         1 <1>         0.1084
     37 H14         5.4044    2.3652   -3.1554 H         1 <1>         0.2793
     38 H15         6.6011    1.2012   -2.6537 H         1 <1>         0.2809
@<TRIPOS>BOND
     1    1   12 1
     2    1   20 3
     3    2    3 ar
     4    2    4 ar
     5    3    6 ar
     6    4    7 ar
     7    5    8 ar
     8    5    9 ar
     9    6   13 ar
    10    7   13 ar
    11    8   14 ar
    12    9   16 ar
    13   10   14 ar
    14   10   16 ar
    15   11   15 ar
    16   11   17 ar
    17   12   15 ar
    18   12   18 ar
    19   13   17 1
    20   14   15 1
    21   16   23 1
    22   17   21 ar
    23   18   21 ar
    24   18   22 1
    25   19   23 1
    26    2   24 1
    27    3   25 1
    28    4   26 1
    29    5   27 1
    30    6   28 1
    31    7   29 1
    32    8   30 1
    33    9   31 1
    34   10   32 1
    35   11   33 1
    36   19   34 1
    37   19   35 1
    38   19   36 1
    39   22   37 1
    40   22   38 1
