@<TRIPOS>MOLECULE
AG-690/13704183
   48    51     0
SMALL
USER_CHARGE


@<TRIPOS>ATOM
      1 C1          5.8891   -3.4335    2.6565 C.ar      1 <1>        -0.0955
      2 C2          5.5194   -2.2278    3.2526 C.ar      1 <1>        -0.0915
      3 C3          5.7544   -3.6003    1.2783 C.ar      1 <1>        -0.0895
      4 C4          5.0148   -1.1889    2.4704 C.ar      1 <1>        -0.0744
      5 C5          5.2499   -2.5616    0.4960 C.ar      1 <1>        -0.0706
      6 C6          1.1247    2.8743    0.7993 C.ar      1 <1>        -0.0692
      7 C7          0.2077    1.2635   -0.7504 C.ar      1 <1>        -0.0690
      8 C8         -0.1491    3.4066    0.9997 C.ar      1 <1>        -0.0569
      9 C9         -1.0659    1.7956   -0.5500 C.ar      1 <1>        -0.0566
     10 C10         3.0869    0.2156    0.5192 C.ar      1 <1>        -0.0327
     11 C11         3.4608    1.7525   -1.3002 C.ar      1 <1>         0.0097
     12 C12         1.3030    1.8028   -0.0758 C.ar      1 <1>        -0.0592
     13 C13         4.8799   -1.3558    1.0921 C.ar      1 <1>        -0.0465
     14 C14         2.6219    1.2523   -0.2836 C.ar      1 <1>        -0.0281
     15 C15         3.2874    2.7880   -2.2737 C.2       1 <1>         0.0213
     16 C16        -1.2443    2.8671    0.3250 C.ar      1 <1>        -0.0146
     17 C17         4.3571   -0.2789    0.2817 C.ar      1 <1>        -0.0096
     18 C18         4.3899    2.9410   -3.0853 C.2       1 <1>         0.0968
     19 C19         4.7135    1.1611   -1.4265 C.ar      1 <1>         0.0533
     20 C20         4.6053    3.8550   -4.1626 C.2       1 <1>         0.1480
     21 C21         7.6814    4.8283   -5.8244 C.3       1 <1>        -0.0346
     22 C22         5.7265    3.9280   -7.1357 C.3       1 <1>        -0.0310
     23 C23         6.1826    4.5688   -5.8338 C.3       1 <1>         0.0237
     24 N1          5.2069    0.1560   -0.6733 N.ar      1 <1>        -0.3518
     25 N2          2.1722    3.5491   -2.4048 N.pl3     1 <1>        -0.3427
     26 O1          3.7825    4.7098   -4.5643 O.2       1 <1>        -0.4728
     27 O2          5.8468    3.7068   -4.7412 O.3       1 <1>        -0.3939
     28 S1          5.6393    1.8447   -2.6849 S.3       1 <1>        -0.0487
     29 Cl1        -2.8154    3.5252    0.5716 Cl        1 <1>        -0.1806
     30 H1          6.2836   -4.2416    3.2656 H         1 <1>         0.1201
     31 H2          5.6256   -2.0972    4.3255 H         1 <1>         0.1199
     32 H3          6.0434   -4.5383    0.8133 H         1 <1>         0.1214
     33 H4          4.7311   -0.2551    2.9499 H         1 <1>         0.1345
     34 H5          5.1511   -2.7060   -0.5773 H         1 <1>         0.1457
     35 H6          1.9685    3.3058    1.3323 H         1 <1>         0.1434
     36 H7          0.3308    0.4287   -1.4365 H         1 <1>         0.1440
     37 H8         -0.2737    4.2429    1.6831 H         1 <1>         0.1464
     38 H9         -1.9103    1.3661   -1.0833 H         1 <1>         0.1472
     39 H10         2.4665   -0.1941    1.3123 H         1 <1>         0.1680
     40 H11         8.2456    3.9024   -5.9725 H         1 <1>         0.0530
     41 H12         7.9509    5.5333   -6.6180 H         1 <1>         0.0572
     42 H13         7.9970    5.2837   -4.8792 H         1 <1>         0.0499
     43 H14         6.2442    2.9808   -7.3152 H         1 <1>         0.0572
     44 H15         5.9215    4.5988   -7.9795 H         1 <1>         0.0643
     45 H16         4.6471    3.7409   -7.1259 H         1 <1>         0.0591
     46 H17         5.6475    5.5121   -5.6837 H         1 <1>         0.1277
     47 H18         1.3389    3.3936   -1.8245 H         1 <1>         0.2499
     48 H19         2.0789    4.2489   -3.1510 H         1 <1>         0.2580
@<TRIPOS>BOND
     1    1    2 ar
     2    1    3 ar
     3    2    4 ar
     4    3    5 ar
     5    4   13 ar
     6    5   13 ar
     7    6    8 ar
     8    6   12 ar
     9    7    9 ar
    10    7   12 ar
    11    8   16 ar
    12    9   16 ar
    13   10   14 ar
    14   10   17 ar
    15   11   14 ar
    16   11   15 1
    17   11   19 ar
    18   12   14 1
    19   13   17 1
    20   15   18 2
    21   15   25 1
    22   16   29 1
    23   17   24 ar
    24   18   20 1
    25   18   28 1
    26   19   24 ar
    27   19   28 1
    28   20   26 2
    29   20   27 1
    30   21   23 1
    31   22   23 1
    32   23   27 1
    33    1   30 1
    34    2   31 1
    35    3   32 1
    36    4   33 1
    37    5   34 1
    38    6   35 1
    39    7   36 1
    40    8   37 1
    41    9   38 1
    42   10   39 1
    43   21   40 1
    44   21   41 1
    45   21   42 1
    46   22   43 1
    47   22   44 1
    48   22   45 1
    49   23   46 1
    50   25   47 1
    51   25   48 1
