@<TRIPOS>MOLECULE
AG-690/11481224
   42    44     0
SMALL
USER_CHARGE


@<TRIPOS>ATOM
      1 C1          3.0944    2.9002   -2.2760 C.1       1 <1>         0.0465
      2 C2          5.9103   -3.3522    2.5591 C.ar      1 <1>        -0.0957
      3 C3          5.5404   -2.1465    3.1554 C.ar      1 <1>        -0.0914
      4 C4          5.7756   -3.5188    1.1808 C.ar      1 <1>        -0.0902
      5 C5          5.0358   -1.1076    2.3733 C.ar      1 <1>        -0.0745
      6 C6          5.2709   -2.4799    0.3988 C.ar      1 <1>        -0.0718
      7 C7          0.2295    1.0603   -0.2994 C.ar      1 <1>        -0.0678
      8 C8          1.1899    3.2344    0.1342 C.ar      1 <1>        -0.0664
      9 C9         -1.0467    1.5816   -0.0867 C.ar      1 <1>        -0.0641
     10 C10        -0.0863    3.7557    0.3469 C.ar      1 <1>        -0.0635
     11 C11         3.1094    0.3101    0.4078 C.ar      1 <1>        -0.0200
     12 C12         3.5042    1.8343   -1.4103 C.ar      1 <1>         0.1215
     13 C13         1.3479    1.8867   -0.1889 C.ar      1 <1>        -0.0437
     14 C14         4.9010   -1.2742    0.9950 C.ar      1 <1>        -0.0473
     15 C15         2.6714    1.3459   -0.4097 C.ar      1 <1>         0.0198
     16 C16        -1.2046    2.9292    0.2365 C.ar      1 <1>        -0.0354
     17 C17         4.3790   -0.1988    0.1858 C.ar      1 <1>        -0.0045
     18 C18         4.7562    1.2574   -1.5508 C.ar      1 <1>         0.0945
     19 C19         7.4816    1.4118   -4.7082 C.3       1 <1>        -0.0564
     20 C20         7.7882    2.1564   -3.4211 C.3       1 <1>        -0.0315
     21 C21         7.0059    1.5961   -2.2433 C.3       1 <1>         0.0258
     22 N1          2.7625    3.7635   -2.9770 N.1       1 <1>        -0.3791
     23 N2          5.2166    0.2498   -0.7759 N.ar      1 <1>        -0.3352
     24 O1          5.6155    1.7028   -2.5222 O.3       1 <1>        -0.4104
     25 Br1        -2.9334    3.6364    0.5240 Br        1 <1>        -0.1381
     26 H1          6.3048   -4.1603    3.1680 H         1 <1>         0.1198
     27 H2          5.6468   -2.0161    4.2283 H         1 <1>         0.1203
     28 H3          6.0647   -4.4567    0.7157 H         1 <1>         0.1202
     29 H4          4.7520   -0.1738    2.8529 H         1 <1>         0.1359
     30 H5          5.1722   -2.6241   -0.6745 H         1 <1>         0.1435
     31 H6          0.3365    0.0077   -0.5507 H         1 <1>         0.1409
     32 H7          2.0516    3.8916    0.2232 H         1 <1>         0.1461
     33 H8         -1.9078    0.9242   -0.1773 H         1 <1>         0.1449
     34 H9         -0.1921    4.8077    0.5980 H         1 <1>         0.1455
     35 H10         2.4776   -0.0891    1.1967 H         1 <1>         0.1697
     36 H11         7.7058    0.3451   -4.6069 H         1 <1>         0.0371
     37 H12         6.4218    1.5134   -4.9622 H         1 <1>         0.0371
     38 H13         8.0701    1.8094   -5.5410 H         1 <1>         0.0405
     39 H14         7.5573    3.2214   -3.5431 H         1 <1>         0.0618
     40 H15         8.8626    2.1039   -3.2076 H         1 <1>         0.0618
     41 H16         7.2483    0.5414   -2.0790 H         1 <1>         0.1273
     42 H17         7.2217    2.1574   -1.3284 H         1 <1>         0.1273
@<TRIPOS>BOND
     1    1   12 1
     2    1   22 3
     3    2    3 ar
     4    2    4 ar
     5    3    5 ar
     6    4    6 ar
     7    5   14 ar
     8    6   14 ar
     9    7    9 ar
    10    7   13 ar
    11    8   10 ar
    12    8   13 ar
    13    9   16 ar
    14   10   16 ar
    15   11   15 ar
    16   11   17 ar
    17   12   15 ar
    18   12   18 ar
    19   13   15 1
    20   14   17 1
    21   16   25 1
    22   17   23 ar
    23   18   23 ar
    24   18   24 1
    25   19   20 1
    26   20   21 1
    27   21   24 1
    28    2   26 1
    29    3   27 1
    30    4   28 1
    31    5   29 1
    32    6   30 1
    33    7   31 1
    34    8   32 1
    35    9   33 1
    36   10   34 1
    37   11   35 1
    38   19   36 1
    39   19   37 1
    40   19   38 1
    41   20   39 1
    42   20   40 1
    43   21   41 1
    44   21   42 1
