@<TRIPOS>MOLECULE
AI-211/36556007
   36    38     0
SMALL
USER_CHARGE


@<TRIPOS>ATOM
      1 C1          3.0956    2.9007   -2.2766 C.1       1 <1>         0.0471
      2 C2          5.9121   -3.3543    2.5602 C.ar      1 <1>        -0.0955
      3 C3          4.9976   -2.4525    3.1043 C.ar      1 <1>        -0.0912
      4 C4          6.3222   -3.2172    1.2341 C.ar      1 <1>        -0.0900
      5 C5          4.4932   -1.4135    2.3221 C.ar      1 <1>        -0.0743
      6 C6          5.8177   -2.1782    0.4519 C.ar      1 <1>        -0.0716
      7 C7          1.1871    3.2358    0.1339 C.ar      1 <1>        -0.0554
      8 C8         -0.0888    3.7577    0.3470 C.ar      1 <1>        -0.0382
      9 C9          0.2257    1.0622   -0.2999 C.ar      1 <1>        -0.0269
     10 C10         3.1104    0.3102    0.4067 C.ar      1 <1>        -0.0186
     11 C11         3.5054    1.8347   -1.4109 C.ar      1 <1>         0.1223
     12 C12         4.9033   -1.2763    0.9960 C.ar      1 <1>        -0.0470
     13 C13         1.3444    1.8881   -0.1896 C.ar      1 <1>        -0.0290
     14 C14         2.6723    1.3460   -0.4107 C.ar      1 <1>         0.0236
     15 C15        -1.2074    2.9319    0.2367 C.ar      1 <1>         0.0268
     16 C16        -1.0502    1.5840   -0.0867 C.ar      1 <1>         0.0295
     17 C17         4.3801   -0.1985    0.1851 C.ar      1 <1>        -0.0039
     18 C18         4.7575    1.2580   -1.5511 C.ar      1 <1>         0.0948
     19 C19         6.4990    2.7589   -2.1594 C.3       1 <1>         0.0347
     20 N1          2.7639    3.7639   -2.9776 N.1       1 <1>        -0.3783
     21 N2          5.2178    0.2505   -0.7762 N.ar      1 <1>        -0.3349
     22 O1          5.6171    1.7040   -2.5222 O.3       1 <1>        -0.4078
     23 Cl1        -2.7608    3.6370    0.5160 Cl        1 <1>        -0.1541
     24 Cl2        -2.3974    0.5105   -0.2337 Cl        1 <1>        -0.1537
     25 H1          6.3060   -4.1623    3.1699 H         1 <1>         0.1201
     26 H2          4.6795   -2.5581    4.1373 H         1 <1>         0.1205
     27 H3          7.0352   -3.9183    0.8103 H         1 <1>         0.1205
     28 H4          3.7813   -0.7183    2.7608 H         1 <1>         0.1361
     29 H5          6.1471   -2.0836   -0.5801 H         1 <1>         0.1437
     30 H6          2.0494    3.8928    0.2212 H         1 <1>         0.1506
     31 H7         -0.1925    4.8107    0.5975 H         1 <1>         0.1614
     32 H8          0.3501    0.0111   -0.5536 H         1 <1>         0.1714
     33 H9          2.4784   -0.0894    1.1954 H         1 <1>         0.1709
     34 H10         7.1269    3.0203   -3.0148 H         1 <1>         0.1256
     35 H11         7.1225    2.4413   -1.3198 H         1 <1>         0.1256
     36 H12         5.9091    3.6296   -1.8637 H         1 <1>         0.1450
@<TRIPOS>BOND
     1    1   11 1
     2    1   20 3
     3    2    3 ar
     4    2    4 ar
     5    3    5 ar
     6    4    6 ar
     7    5   12 ar
     8    6   12 ar
     9    7    8 ar
    10    7   13 ar
    11    8   15 ar
    12    9   13 ar
    13    9   16 ar
    14   10   14 ar
    15   10   17 ar
    16   11   14 ar
    17   11   18 ar
    18   12   17 1
    19   13   14 1
    20   15   16 ar
    21   15   23 1
    22   16   24 1
    23   17   21 ar
    24   18   21 ar
    25   18   22 1
    26   19   22 1
    27    2   25 1
    28    3   26 1
    29    4   27 1
    30    5   28 1
    31    6   29 1
    32    7   30 1
    33    8   31 1
    34    9   32 1
    35   10   33 1
    36   19   34 1
    37   19   35 1
    38   19   36 1
