@<TRIPOS>MOLECULE
AG-690/40749446
   42    44     0
SMALL
USER_CHARGE


@<TRIPOS>ATOM
      1 C1          3.1631    2.7421   -2.1468 C.1       1 <1>         0.0366
      2 C2          5.8743   -3.5138    2.7499 C.ar      1 <1>        -0.0961
      3 C3          5.5112   -2.2997    3.3327 C.ar      1 <1>        -0.0919
      4 C4          5.7540   -3.6892    1.3714 C.ar      1 <1>        -0.0907
      5 C5          5.0277   -1.2610    2.5371 C.ar      1 <1>        -0.0755
      6 C6          5.2705   -2.6505    0.5757 C.ar      1 <1>        -0.0727
      7 C7          0.2801    0.9396   -0.2057 C.ar      1 <1>        -0.0667
      8 C8          1.2577    3.1058    0.2288 C.ar      1 <1>        -0.0653
      9 C9         -0.9929    1.4747   -0.0086 C.ar      1 <1>        -0.0561
     10 C10        -0.0152    3.6409    0.4259 C.ar      1 <1>        -0.0556
     11 C11         3.1412    0.1641    0.5382 C.ar      1 <1>        -0.0228
     12 C12         3.5774    1.6728   -1.2834 C.ar      1 <1>         0.0974
     13 C13         1.4055    1.7552   -0.0869 C.ar      1 <1>        -0.0467
     14 C14         4.9074   -1.4364    1.1586 C.ar      1 <1>        -0.0494
     15 C15         2.7260    1.2001   -0.2909 C.ar      1 <1>         0.0095
     16 C16        -1.1406    2.8253    0.3073 C.ar      1 <1>        -0.0143
     17 C17         4.4072   -0.3612    0.3354 C.ar      1 <1>        -0.0124
     18 C18         4.8240    1.0800   -1.4044 C.ar      1 <1>         0.0501
     19 C19         6.8059    2.8559   -0.3567 C.3       1 <1>        -0.0445
     20 C20         8.1575    0.8786   -1.1339 C.3       1 <1>        -0.0428
     21 C21         7.3612    2.1056   -1.5614 C.3       1 <1>        -0.0050
     22 N1          2.8281    3.6067   -2.8447 N.1       1 <1>        -0.3783
     23 N2          5.2624    0.0717   -0.6179 N.ar      1 <1>        -0.3579
     24 S1          6.0070    1.6056   -2.6442 S.3       1 <1>        -0.1573
     25 Cl1        -2.7116    3.4844    0.5520 Cl        1 <1>        -0.1813
     26 H1          6.2522   -4.3217    3.3694 H         1 <1>         0.1193
     27 H2          5.6063   -2.1622    4.4059 H         1 <1>         0.1199
     28 H3          6.0378   -4.6337    0.9166 H         1 <1>         0.1199
     29 H4          4.7490   -0.3204    3.0065 H         1 <1>         0.1345
     30 H5          5.1828   -2.8017   -0.4976 H         1 <1>         0.1427
     31 H6          0.3790   -0.1150   -0.4511 H         1 <1>         0.1407
     32 H7          2.1255    3.7544    0.3258 H         1 <1>         0.1460
     33 H8         -1.8613    0.8274   -0.1023 H         1 <1>         0.1469
     34 H9         -0.1153    4.6950    0.6727 H         1 <1>         0.1475
     35 H10         2.4954   -0.2232    1.3215 H         1 <1>         0.1727
     36 H11         6.1509    2.2022    0.2300 H         1 <1>         0.0442
     37 H12         7.6092    3.1934    0.3077 H         1 <1>         0.0470
     38 H13         6.2162    3.7300   -0.6556 H         1 <1>         0.0537
     39 H14         7.5232    0.1944   -0.5590 H         1 <1>         0.0492
     40 H15         9.0026    1.1547   -0.4937 H         1 <1>         0.0558
     41 H16         8.5453    0.3224   -1.9950 H         1 <1>         0.0492
     42 H17         8.0119    2.7754   -2.1335 H         1 <1>         0.1002
@<TRIPOS>BOND
     1    1   12 1
     2    1   22 3
     3    2    3 ar
     4    2    4 ar
     5    3    5 ar
     6    4    6 ar
     7    5   14 ar
     8    6   14 ar
     9    7    9 ar
    10    7   13 ar
    11    8   10 ar
    12    8   13 ar
    13    9   16 ar
    14   10   16 ar
    15   11   15 ar
    16   11   17 ar
    17   12   15 ar
    18   12   18 ar
    19   13   15 1
    20   14   17 1
    21   16   25 1
    22   17   23 ar
    23   18   23 ar
    24   18   24 1
    25   19   21 1
    26   20   21 1
    27   21   24 1
    28    2   26 1
    29    3   27 1
    30    4   28 1
    31    5   29 1
    32    6   30 1
    33    7   31 1
    34    8   32 1
    35    9   33 1
    36   10   34 1
    37   11   35 1
    38   19   36 1
    39   19   37 1
    40   19   38 1
    41   20   39 1
    42   20   40 1
    43   20   41 1
    44   21   42 1
