@<TRIPOS>MOLECULE
AG-205/08567008
   43    45     0
SMALL
USER_CHARGE


@<TRIPOS>ATOM
      1 C1          3.1625    2.7422   -2.1466 C.1       1 <1>         0.0349
      2 C2          5.8744   -3.5137    2.7498 C.ar      1 <1>        -0.0963
      3 C3          5.5114   -2.2997    3.3328 C.ar      1 <1>        -0.0921
      4 C4          5.7540   -3.6891    1.3712 C.ar      1 <1>        -0.0909
      5 C5          5.0278   -1.2610    2.5371 C.ar      1 <1>        -0.0756
      6 C6          5.2704   -2.6505    0.5756 C.ar      1 <1>        -0.0731
      7 C7          0.2802    0.9395   -0.2052 C.ar      1 <1>        -0.0712
      8 C8          1.2581    3.1057    0.2286 C.ar      1 <1>        -0.0645
      9 C9         -0.9928    1.4748   -0.0084 C.ar      1 <1>        -0.0645
     10 C10        -0.0149    3.6410    0.4254 C.ar      1 <1>        -0.0568
     11 C11         3.1411    0.1640    0.5384 C.ar      1 <1>        -0.0247
     12 C12         3.5770    1.6727   -1.2831 C.ar      1 <1>         0.0950
     13 C13         1.4056    1.7550   -0.0865 C.ar      1 <1>        -0.0500
     14 C14         4.9073   -1.4364    1.1585 C.ar      1 <1>        -0.0500
     15 C15         2.7257    1.2001   -0.2906 C.ar      1 <1>         0.0066
     16 C16        -1.1404    2.8254    0.3067 C.ar      1 <1>        -0.0365
     17 C17         4.4071   -0.3611    0.3356 C.ar      1 <1>        -0.0142
     18 C18         4.8236    1.0802   -1.4044 C.ar      1 <1>         0.0479
     19 C19         7.9834   -0.1937   -2.0666 C.3       1 <1>        -0.0420
     20 C20        -2.4612    4.7359    0.8177 C.3       1 <1>         0.0113
     21 C21         7.5367    1.2246   -1.7672 C.3       1 <1>        -0.0002
     22 N1          2.8274    3.6068   -2.8443 N.1       1 <1>        -0.3800
     23 N2          5.2622    0.0717   -0.6179 N.ar      1 <1>        -0.3604
     24 O1         -2.3824    3.3477    0.4980 O.3       1 <1>        -0.4626
     25 S1          6.0065    1.6056   -2.6442 S.3       1 <1>        -0.1571
     26 H1          6.2526   -4.3217    3.3693 H         1 <1>         0.1189
     27 H2          5.6066   -2.1624    4.4058 H         1 <1>         0.1196
     28 H3          6.0379   -4.6336    0.9165 H         1 <1>         0.1196
     29 H4          4.7491   -0.3204    3.0066 H         1 <1>         0.1348
     30 H5          5.1827   -2.8017   -0.4977 H         1 <1>         0.1420
     31 H6          0.3788   -0.1152   -0.4505 H         1 <1>         0.1354
     32 H7          2.1255    3.7544    0.3246 H         1 <1>         0.1478
     33 H8         -1.8658    0.8346   -0.1024 H         1 <1>         0.1302
     34 H9         -0.1238    4.6939    0.6705 H         1 <1>         0.1473
     35 H10         2.4953   -0.2232    1.3217 H         1 <1>         0.1714
     36 H11         7.2264   -0.9258   -1.7653 H         1 <1>         0.0551
     37 H12         8.1971   -0.3319   -3.1319 H         1 <1>         0.0484
     38 H13         8.9009   -0.4202   -1.5131 H         1 <1>         0.0483
     39 H14        -3.5081    5.0226    0.9441 H         1 <1>         0.1096
     40 H15        -2.0062    5.3220    0.0153 H         1 <1>         0.1095
     41 H16        -1.9210    4.9173    1.7500 H         1 <1>         0.1335
     42 H17         8.3070    1.9380   -2.0758 H         1 <1>         0.0976
     43 H18         7.3680    1.3500   -0.6934 H         1 <1>         0.0976
@<TRIPOS>BOND
     1    1   12 1
     2    1   22 3
     3    2    3 ar
     4    2    4 ar
     5    3    5 ar
     6    4    6 ar
     7    5   14 ar
     8    6   14 ar
     9    7    9 ar
    10    7   13 ar
    11    8   10 ar
    12    8   13 ar
    13    9   16 ar
    14   10   16 ar
    15   11   15 ar
    16   11   17 ar
    17   12   15 ar
    18   12   18 ar
    19   13   15 1
    20   14   17 1
    21   16   24 1
    22   17   23 ar
    23   18   23 ar
    24   18   25 1
    25   19   21 1
    26   20   24 1
    27   21   25 1
    28    2   26 1
    29    3   27 1
    30    4   28 1
    31    5   29 1
    32    6   30 1
    33    7   31 1
    34    8   32 1
    35    9   33 1
    36   10   34 1
    37   11   35 1
    38   19   36 1
    39   19   37 1
    40   19   38 1
    41   20   39 1
    42   20   40 1
    43   20   41 1
    44   21   42 1
    45   21   43 1
