@<TRIPOS>MOLECULE
AE-848/34408043
   40    42     0
SMALL
USER_CHARGE


@<TRIPOS>ATOM
      1 C1          3.1625    2.7423   -2.1465 C.1       1 <1>         0.0353
      2 C2          5.8742   -3.5138    2.7499 C.ar      1 <1>        -0.0964
      3 C3          4.9642   -2.5972    3.2765 C.ar      1 <1>        -0.0922
      4 C4          6.3010   -3.3916    1.4275 C.ar      1 <1>        -0.0909
      5 C5          4.4807   -1.5585    2.4809 C.ar      1 <1>        -0.0757
      6 C6          5.8175   -2.3528    0.6319 C.ar      1 <1>        -0.0730
      7 C7          0.2803    0.9394   -0.2052 C.ar      1 <1>        -0.0658
      8 C8          1.2581    3.1057    0.2286 C.ar      1 <1>        -0.0699
      9 C9         -0.9928    1.4747   -0.0084 C.ar      1 <1>        -0.0573
     10 C10        -0.0149    3.6409    0.4254 C.ar      1 <1>        -0.0639
     11 C11         3.1412    0.1640    0.5384 C.ar      1 <1>        -0.0248
     12 C12         3.5770    1.6727   -1.2832 C.ar      1 <1>         0.0951
     13 C13         1.4056    1.7550   -0.0865 C.ar      1 <1>        -0.0500
     14 C14         4.9075   -1.4363    1.1584 C.ar      1 <1>        -0.0501
     15 C15         2.7257    1.2001   -0.2906 C.ar      1 <1>         0.0066
     16 C16        -1.1403    2.8253    0.3068 C.ar      1 <1>        -0.0365
     17 C17         4.4072   -0.3611    0.3355 C.ar      1 <1>        -0.0143
     18 C18         4.8236    1.0802   -1.4045 C.ar      1 <1>         0.0481
     19 C19        -2.4613    4.7358    0.8178 C.3       1 <1>         0.0113
     20 C20         5.5242    0.5066   -3.9916 C.3       1 <1>         0.0053
     21 N1          2.8274    3.6068   -2.8444 N.1       1 <1>        -0.3793
     22 N2          5.2622    0.0717   -0.6180 N.ar      1 <1>        -0.3605
     23 O1         -2.3824    3.3476    0.4981 O.3       1 <1>        -0.4626
     24 S1          6.0064    1.6058   -2.6443 S.3       1 <1>        -0.1547
     25 H1          6.2517   -4.3214    3.3701 H         1 <1>         0.1189
     26 H2          4.6330   -2.6913    4.3066 H         1 <1>         0.1194
     27 H3          7.0106   -4.1040    1.0172 H         1 <1>         0.1197
     28 H4          3.7718   -0.8519    2.9061 H         1 <1>         0.1345
     29 H5          6.1597   -2.2700   -0.3970 H         1 <1>         0.1422
     30 H6          0.3789   -0.1153   -0.4504 H         1 <1>         0.1426
     31 H7          2.1254    3.7544    0.3245 H         1 <1>         0.1405
     32 H8         -1.8658    0.8345   -0.1024 H         1 <1>         0.1468
     33 H9         -0.1238    4.6939    0.6705 H         1 <1>         0.1308
     34 H10         2.4953   -0.2232    1.3217 H         1 <1>         0.1711
     35 H11        -3.5081    5.0225    0.9442 H         1 <1>         0.1095
     36 H12        -2.0063    5.3219    0.0153 H         1 <1>         0.1098
     37 H13        -1.9210    4.9172    1.7501 H         1 <1>         0.1333
     38 H14         6.1568    0.6879   -4.8639 H         1 <1>         0.0969
     39 H15         4.4815    0.6883   -4.2637 H         1 <1>         0.1035
     40 H16         5.6358   -0.5346   -3.6792 H         1 <1>         0.0969
@<TRIPOS>BOND
     1    1   12 1
     2    1   21 3
     3    2    3 ar
     4    2    4 ar
     5    3    5 ar
     6    4    6 ar
     7    5   14 ar
     8    6   14 ar
     9    7    9 ar
    10    7   13 ar
    11    8   10 ar
    12    8   13 ar
    13    9   16 ar
    14   10   16 ar
    15   11   15 ar
    16   11   17 ar
    17   12   15 ar
    18   12   18 ar
    19   13   15 1
    20   14   17 1
    21   16   23 1
    22   17   22 ar
    23   18   22 ar
    24   18   24 1
    25   19   23 1
    26   20   24 1
    27    2   25 1
    28    3   26 1
    29    4   27 1
    30    5   28 1
    31    6   29 1
    32    7   30 1
    33    8   31 1
    34    9   32 1
    35   10   33 1
    36   11   34 1
    37   19   35 1
    38   19   36 1
    39   19   37 1
    40   20   38 1
    41   20   39 1
    42   20   40 1
