@<TRIPOS>MOLECULE
AM-807/12426015
   45    48     0
SMALL
USER_CHARGE


@<TRIPOS>ATOM
      1 C1          5.6226   -2.6525    2.8863 C.2       1 <1>        -0.0733
      2 C2          0.1455    0.9681   -0.1546 C.ar      1 <1>        -0.0598
      3 C3          1.1161    3.1378    0.2784 C.ar      1 <1>        -0.0600
      4 C4         -1.1288    1.4975    0.0492 C.ar      1 <1>        -0.0299
      5 C5         -0.1583    3.6672    0.4820 C.ar      1 <1>        -0.0299
      6 C6          5.0756   -1.4043    2.4704 C.2       1 <1>        -0.0582
      7 C7          3.0550    0.2030    0.5499 C.ar      1 <1>        -0.0262
      8 C8          5.8016   -3.5172    1.8290 C.2       1 <1>        -0.0418
      9 C9          3.4238    1.7431   -1.2678 C.ar      1 <1>         0.0119
     10 C10         1.2680    1.7882   -0.0400 C.ar      1 <1>        -0.0551
     11 C11         2.5872    1.2402   -0.2508 C.ar      1 <1>        -0.0251
     12 C12         3.2475    2.7797   -2.2396 C.2       1 <1>         0.0220
     13 C13        -1.2807    2.8470    0.3675 C.ar      1 <1>         0.0476
     14 C14         4.3257   -0.2891    0.3097 C.ar      1 <1>         0.0085
     15 C15         4.8577   -1.3624    1.1106 C.2       1 <1>        -0.0082
     16 C16         4.3486    2.9358   -3.0526 C.2       1 <1>         0.0988
     17 C17         4.6773    1.1540   -1.3968 C.ar      1 <1>         0.0579
     18 C18         4.5607    3.8517   -4.1290 C.2       1 <1>         0.1494
     19 C19         7.9215    4.7562   -5.1572 C.3       1 <1>        -0.0346
     20 C20         5.9728    4.9928   -6.7377 C.3       1 <1>        -0.0310
     21 C21         6.4100    4.8669   -5.2863 C.3       1 <1>         0.0237
     22 N1          5.1735    0.1484   -0.6457 N.ar      1 <1>        -0.3428
     23 N2          2.1308    3.5391   -2.3678 N.pl3     1 <1>        -0.3436
     24 O1          3.7358    4.7056   -4.5281 O.2       1 <1>        -0.4717
     25 O2          5.8015    3.7063   -4.7097 O.3       1 <1>        -0.3936
     26 F1         -2.5044    3.3553    0.5632 F         1 <1>        -0.3380
     27 S1          5.3115   -2.8237    0.3420 S.3       1 <1>        -0.1516
     28 S2          5.6003    1.8407   -2.6555 S.3       1 <1>        -0.0447
     29 H1          5.8726   -2.9037    3.9088 H         1 <1>         0.1212
     30 H2          0.2474   -0.0860   -0.4019 H         1 <1>         0.1489
     31 H3          1.9811    3.7901    0.3711 H         1 <1>         0.1482
     32 H4         -2.0029    0.8591   -0.0398 H         1 <1>         0.1559
     33 H5         -0.2773    4.7178    0.7297 H         1 <1>         0.1566
     34 H6          4.8573   -0.5826    3.1413 H         1 <1>         0.1437
     35 H7          2.4363   -0.2086    1.3433 H         1 <1>         0.1711
     36 H8          6.1973   -4.5226    1.8585 H         1 <1>         0.1814
     37 H9          8.3054    3.8945   -5.7117 H         1 <1>         0.0529
     38 H10         8.4040    5.6620   -5.5399 H         1 <1>         0.0571
     39 H11         8.2218    4.6597   -4.1079 H         1 <1>         0.0498
     40 H12         6.3102    4.1368   -7.3300 H         1 <1>         0.0571
     41 H13         6.3809    5.9076   -7.1807 H         1 <1>         0.0643
     42 H14         4.8824    5.0650   -6.8160 H         1 <1>         0.0590
     43 H15         6.0578    5.7365   -4.7218 H         1 <1>         0.1277
     44 H16         1.2988    3.3813   -1.7863 H         1 <1>         0.2483
     45 H17         2.0350    4.2399   -3.1128 H         1 <1>         0.2556
@<TRIPOS>BOND
     1    1    6 1
     2    1    8 2
     3    2    4 ar
     4    2   10 ar
     5    3    5 ar
     6    3   10 ar
     7    4   13 ar
     8    5   13 ar
     9    6   15 2
    10    7   11 ar
    11    7   14 ar
    12    8   27 1
    13    9   11 ar
    14    9   12 1
    15    9   17 ar
    16   10   11 1
    17   12   16 2
    18   12   23 1
    19   13   26 1
    20   14   15 1
    21   14   22 ar
    22   15   27 1
    23   16   18 1
    24   16   28 1
    25   17   22 ar
    26   17   28 1
    27   18   24 2
    28   18   25 1
    29   19   21 1
    30   20   21 1
    31   21   25 1
    32    1   29 1
    33    2   30 1
    34    3   31 1
    35    4   32 1
    36    5   33 1
    37    6   34 1
    38    7   35 1
    39    8   36 1
    40   19   37 1
    41   19   38 1
    42   19   39 1
    43   20   40 1
    44   20   41 1
    45   20   42 1
    46   21   43 1
    47   23   44 1
    48   23   45 1
