@<TRIPOS>MOLECULE
AI-031/12583049
   36    39     0
SMALL
USER_CHARGE


@<TRIPOS>ATOM
      1 C1          5.7808   -3.3974    2.6865 C.ar      1 <1>        -0.0872
      2 C2          4.8882   -2.4358    3.1601 C.ar      1 <1>        -0.0800
      3 C3          6.2588   -3.3215    1.3783 C.ar      1 <1>        -0.0780
      4 C4          0.4749    1.1960    0.1170 C.ar      1 <1>        -0.0561
      5 C5          0.4565    3.5480   -0.4351 C.ar      1 <1>        -0.0512
      6 C6          4.4735   -1.3981    2.3251 C.ar      1 <1>        -0.0581
      7 C7          5.8439   -2.2838    0.5435 C.ar      1 <1>        -0.0542
      8 C8         -0.7740    1.3287    0.7240 C.ar      1 <1>        -0.0533
      9 C9         -0.7924    3.6808    0.1718 C.ar      1 <1>        -0.0503
     10 C10         3.3263    0.3430    0.2503 C.2       1 <1>         0.0195
     11 C11         3.3734    1.2731   -0.7474 C.ar      1 <1>         0.0344
     12 C12         1.0902    2.3057   -0.4625 C.ar      1 <1>        -0.0240
     13 C13         4.6602    1.1500   -1.3867 C.ar      1 <1>         0.0474
     14 C14         4.9513   -1.3223    1.0169 C.ar      1 <1>        -0.0187
     15 C15        -1.4076    2.5711    0.7513 C.ar      1 <1>        -0.0129
     16 C16         2.3707    2.1697   -1.0841 C.ar      1 <1>         0.0366
     17 C17         4.9949    1.9881   -2.4601 C.ar      1 <1>         0.0267
     18 C18         6.2711    1.9833   -3.2179 C.3       1 <1>         0.0137
     19 N1          5.3578    0.1722   -0.7834 N.2       1 <1>        -0.3225
     20 N2          2.7244    2.9675   -2.1269 N.ar      1 <1>        -0.3041
     21 N3          4.0184    2.8753   -2.8028 N.ar      1 <1>        -0.3053
     22 N4          4.5365   -0.2851    0.1834 N.pl3     1 <1>        -0.3022
     23 Cl1        -2.9480    2.7344    1.5016 Cl        1 <1>        -0.1818
     24 H1          6.1054   -4.2045    3.3368 H         1 <1>         0.1267
     25 H2          4.5171   -2.4940    4.1791 H         1 <1>         0.1343
     26 H3          6.9549   -4.0700    1.0109 H         1 <1>         0.1352
     27 H4          0.9562    0.2211    0.1039 H         1 <1>         0.1452
     28 H5          0.9237    4.4226   -0.8816 H         1 <1>         0.1588
     29 H6          3.7780   -0.6546    2.7068 H         1 <1>         0.1455
     30 H7          6.2249   -2.2362   -0.4739 H         1 <1>         0.1572
     31 H8         -1.2414    0.4560    1.1734 H         1 <1>         0.1465
     32 H9         -1.2741    4.6552    0.1869 H         1 <1>         0.1499
     33 H10         2.5725    0.0745    0.9795 H         1 <1>         0.2526
     34 H11         6.2125    1.2967   -4.0743 H         1 <1>         0.1043
     35 H12         6.5201    2.9850   -3.5991 H         1 <1>         0.1009
     36 H13         7.1165    1.6713   -2.5864 H         1 <1>         0.1045
@<TRIPOS>BOND
     1    1    2 ar
     2    1    3 ar
     3    2    6 ar
     4    3    7 ar
     5    4    8 ar
     6    4   12 ar
     7    5    9 ar
     8    5   12 ar
     9    6   14 ar
    10    7   14 ar
    11    8   15 ar
    12    9   15 ar
    13   10   11 2
    14   10   22 1
    15   11   13 ar
    16   11   16 ar
    17   12   16 1
    18   13   17 ar
    19   13   19 2
    20   14   22 1
    21   15   23 1
    22   16   20 ar
    23   17   18 1
    24   17   21 ar
    25   19   22 1
    26   20   21 ar
    27    1   24 1
    28    2   25 1
    29    3   26 1
    30    4   27 1
    31    5   28 1
    32    6   29 1
    33    7   30 1
    34    8   31 1
    35    9   32 1
    36   10   33 1
    37   18   34 1
    38   18   35 1
    39   18   36 1
