@<TRIPOS>MOLECULE
AG-205/36992102
   42    45     0
SMALL
USER_CHARGE


@<TRIPOS>ATOM
      1 C1          5.3277   -2.8174    2.8612 C.2       1 <1>        -0.0733
      2 C2          0.1455    0.9681   -0.1546 C.ar      1 <1>        -0.0598
      3 C3          1.1161    3.1379    0.2783 C.ar      1 <1>        -0.0601
      4 C4         -1.1288    1.4975    0.0492 C.ar      1 <1>        -0.0299
      5 C5         -0.1583    3.6673    0.4821 C.ar      1 <1>        -0.0299
      6 C6          4.5947   -1.6756    2.4263 C.2       1 <1>        -0.0582
      7 C7          3.0549    0.2031    0.5499 C.ar      1 <1>        -0.0261
      8 C8          6.1228   -3.3335    1.8617 C.2       1 <1>        -0.0417
      9 C9          3.4239    1.7431   -1.2678 C.ar      1 <1>         0.0120
     10 C10         1.2679    1.7882   -0.0400 C.ar      1 <1>        -0.0551
     11 C11         2.5871    1.2401   -0.2508 C.ar      1 <1>        -0.0250
     12 C12         3.2475    2.7797   -2.2397 C.2       1 <1>         0.0220
     13 C13        -1.2807    2.8470    0.3675 C.ar      1 <1>         0.0476
     14 C14         4.3256   -0.2891    0.3098 C.ar      1 <1>         0.0086
     15 C15         4.8577   -1.3624    1.1107 C.2       1 <1>        -0.0081
     16 C16         4.3485    2.9357   -3.0527 C.2       1 <1>         0.0985
     17 C17         4.6773    1.1539   -1.3968 C.ar      1 <1>         0.0579
     18 C18         4.5607    3.8516   -4.1291 C.2       1 <1>         0.1490
     19 C19         2.3463    4.1534   -6.3949 C.3       1 <1>        -0.0295
     20 C20         3.2446    5.1391   -5.6783 C.3       1 <1>         0.0293
     21 N1          5.1735    0.1484   -0.6457 N.ar      1 <1>        -0.3428
     22 N2          2.1308    3.5391   -2.3678 N.pl3     1 <1>        -0.3436
     23 O1          5.6009    3.9274   -4.8228 O.2       1 <1>        -0.4722
     24 O2          3.4766    4.6740   -4.3443 O.3       1 <1>        -0.3922
     25 F1         -2.5044    3.3554    0.5631 F         1 <1>        -0.3379
     26 S1          5.9839   -2.4426    0.4059 S.3       1 <1>        -0.1516
     27 S2          5.6003    1.8407   -2.6556 S.3       1 <1>        -0.0447
     28 H1          5.2753   -3.2388    3.8567 H         1 <1>         0.1213
     29 H2          0.2474   -0.0860   -0.4019 H         1 <1>         0.1489
     30 H3          1.9812    3.7901    0.3711 H         1 <1>         0.1481
     31 H4         -2.0029    0.8591   -0.0397 H         1 <1>         0.1560
     32 H5         -0.2773    4.7179    0.7296 H         1 <1>         0.1566
     33 H6          3.9115   -1.1166    3.0539 H         1 <1>         0.1438
     34 H7          2.4362   -0.2085    1.3433 H         1 <1>         0.1713
     35 H8          6.7789   -4.1907    1.9171 H         1 <1>         0.1814
     36 H9          2.8132    3.1657   -6.4459 H         1 <1>         0.0585
     37 H10         1.3840    4.0635   -5.8804 H         1 <1>         0.0585
     38 H11         2.1323    4.4960   -7.4127 H         1 <1>         0.0653
     39 H12         2.7718    6.1246   -5.6308 H         1 <1>         0.1216
     40 H13         4.2059    5.2270   -6.1931 H         1 <1>         0.1216
     41 H14         1.2987    3.3813   -1.7863 H         1 <1>         0.2555
     42 H15         2.0349    4.2398   -3.1128 H         1 <1>         0.2484
@<TRIPOS>BOND
     1    1    6 1
     2    1    8 2
     3    2    4 ar
     4    2   10 ar
     5    3    5 ar
     6    3   10 ar
     7    4   13 ar
     8    5   13 ar
     9    6   15 2
    10    7   11 ar
    11    7   14 ar
    12    8   26 1
    13    9   11 ar
    14    9   12 1
    15    9   17 ar
    16   10   11 1
    17   12   16 2
    18   12   22 1
    19   13   25 1
    20   14   15 1
    21   14   21 ar
    22   15   26 1
    23   16   18 1
    24   16   27 1
    25   17   21 ar
    26   17   27 1
    27   18   23 2
    28   18   24 1
    29   19   20 1
    30   20   24 1
    31    1   28 1
    32    2   29 1
    33    3   30 1
    34    4   31 1
    35    5   32 1
    36    6   33 1
    37    7   34 1
    38    8   35 1
    39   19   36 1
    40   19   37 1
    41   19   38 1
    42   20   39 1
    43   20   40 1
    44   22   41 1
    45   22   42 1
