@<TRIPOS>MOLECULE
AG-690/40639050
   36    38     0
SMALL
USER_CHARGE


@<TRIPOS>ATOM
      1 C1          3.1194    2.8082   -2.2862 C.1       1 <1>         0.0470
      2 C2          5.6562   -2.5258    2.9062 C.2       1 <1>        -0.0743
      3 C3          1.1912    2.9525    0.6780 C.ar      1 <1>        -0.0805
      4 C4          0.2660    1.3059   -0.8284 C.ar      1 <1>        -0.0818
      5 C5         -0.0818    3.4873    0.8754 C.ar      1 <1>        -0.0961
      6 C6         -1.0070    1.8405   -0.6310 C.ar      1 <1>        -0.0966
      7 C7          5.1197   -1.2863    2.4527 C.2       1 <1>        -0.0598
      8 C8          3.1170    0.2915    0.4667 C.ar      1 <1>        -0.0148
      9 C9          5.8311   -3.4223    1.8750 C.2       1 <1>        -0.0422
     10 C10         3.5224    1.7637   -1.3915 C.ar      1 <1>         0.1222
     11 C11         1.3652    1.8619   -0.1741 C.ar      1 <1>        -0.0520
     12 C12         2.6857    1.3075   -0.3790 C.ar      1 <1>         0.0192
     13 C13        -1.1810    2.9313    0.2211 C.ar      1 <1>        -0.1092
     14 C14         4.3837   -0.2305    0.2596 C.ar      1 <1>         0.0123
     15 C15         4.9051   -1.2825    1.0917 C.2       1 <1>        -0.0094
     16 C16         4.7709    1.1758   -1.5153 C.ar      1 <1>         0.0970
     17 C17        -2.5421    3.5030    0.4320 C.3       1 <1>        -0.0422
     18 C18         6.8950    0.9359   -2.5574 C.3       1 <1>         0.0347
     19 N1          2.7932    3.6542   -3.0107 N.1       1 <1>        -0.3791
     20 N2          5.2247    0.1869   -0.7129 N.ar      1 <1>        -0.3282
     21 O1          5.6336    1.5897   -2.4978 O.3       1 <1>        -0.4073
     22 S1          5.3494   -2.7691    0.3672 S.3       1 <1>        -0.1521
     23 H1          5.9022   -2.7489    3.9362 H         1 <1>         0.1196
     24 H2          2.0383    3.3976    1.1948 H         1 <1>         0.1337
     25 H3          0.3852    0.4551   -1.4952 H         1 <1>         0.1288
     26 H4         -0.2078    4.3378    1.5402 H         1 <1>         0.1216
     27 H5         -1.8581    1.4007   -1.1444 H         1 <1>         0.1210
     28 H6          4.9061   -0.4437    3.0987 H         1 <1>         0.1411
     29 H7          2.4825   -0.0825    1.2657 H         1 <1>         0.1717
     30 H8          6.2191   -4.4293    1.9350 H         1 <1>         0.1806
     31 H9         -2.7441    4.2903   -0.3046 H         1 <1>         0.0616
     32 H10        -3.3174    2.7316    0.3382 H         1 <1>         0.0593
     33 H11        -2.6421    3.9332    1.4371 H         1 <1>         0.0589
     34 H12         7.4846    1.3540   -3.3769 H         1 <1>         0.1254
     35 H13         6.7442   -0.1354   -2.7124 H         1 <1>         0.1448
     36 H14         7.4227    1.0948   -1.6140 H         1 <1>         0.1254
@<TRIPOS>BOND
     1    1   10 1
     2    1   19 3
     3    2    7 1
     4    2    9 2
     5    3    5 ar
     6    3   11 ar
     7    4    6 ar
     8    4   11 ar
     9    5   13 ar
    10    6   13 ar
    11    7   15 2
    12    8   12 ar
    13    8   14 ar
    14    9   22 1
    15   10   12 ar
    16   10   16 ar
    17   11   12 1
    18   13   17 1
    19   14   15 1
    20   14   20 ar
    21   15   22 1
    22   16   20 ar
    23   16   21 1
    24   18   21 1
    25    2   23 1
    26    3   24 1
    27    4   25 1
    28    5   26 1
    29    6   27 1
    30    7   28 1
    31    8   29 1
    32    9   30 1
    33   17   31 1
    34   17   32 1
    35   17   33 1
    36   18   34 1
    37   18   35 1
    38   18   36 1
