@<TRIPOS>MOLECULE
AG-690/11481222
   39    41     0
SMALL
USER_CHARGE


@<TRIPOS>ATOM
      1 C1          3.1074    2.9060   -2.2942 C.1       1 <1>         0.0464
      2 C2          6.0718   -3.3405    2.4589 C.ar      1 <1>        -0.0957
      3 C3          5.1537   -2.4541    3.0219 C.ar      1 <1>        -0.0914
      4 C4          6.4610   -3.1898    1.1280 C.ar      1 <1>        -0.0902
      5 C5          4.6249   -1.4167    2.2539 C.ar      1 <1>        -0.0745
      6 C6          5.9321   -2.1524    0.3599 C.ar      1 <1>        -0.0718
      7 C7          0.2948    1.0155   -0.2904 C.ar      1 <1>        -0.0678
      8 C8          1.2326    3.1992    0.1444 C.ar      1 <1>        -0.0663
      9 C9         -0.9850    1.5186   -0.0564 C.ar      1 <1>        -0.0641
     10 C10        -0.0472    3.7023    0.3785 C.ar      1 <1>        -0.0635
     11 C11         3.1939    0.2987    0.3716 C.ar      1 <1>        -0.0200
     12 C12         3.5432    1.8399   -1.4414 C.ar      1 <1>         0.1213
     13 C13         1.4036    1.8558   -0.1899 C.ar      1 <1>        -0.0437
     14 C14         5.0141   -1.2659    0.9229 C.ar      1 <1>        -0.0474
     15 C15         2.7309    1.3340   -0.4328 C.ar      1 <1>         0.0197
     16 C16        -1.1560    2.8618    0.2781 C.ar      1 <1>        -0.0354
     17 C17         4.4667   -0.1919    0.1284 C.ar      1 <1>        -0.0047
     18 C18         4.8005    1.2804   -1.6033 C.ar      1 <1>         0.0941
     19 C19         7.8423    0.8431   -2.3453 C.3       1 <1>        -0.0295
     20 C20         6.5534    0.8052   -3.1386 C.3       1 <1>         0.0259
     21 N1          2.7545    3.7694   -2.9847 N.1       1 <1>        -0.3792
     22 N2          5.2848    0.2739   -0.8417 N.ar      1 <1>        -0.3355
     23 O1          5.6403    1.7436   -2.5836 O.3       1 <1>        -0.4109
     24 Br1        -2.8897    3.5443    0.5944 Br        1 <1>        -0.1381
     25 H1          6.4847   -4.1472    3.0577 H         1 <1>         0.1198
     26 H2          4.8518   -2.5704    4.0587 H         1 <1>         0.1202
     27 H3          7.1768   -3.8787    0.6894 H         1 <1>         0.1203
     28 H4          3.9103   -0.7337    2.7073 H         1 <1>         0.1359
     29 H5          6.2455   -2.0468   -0.6760 H         1 <1>         0.1435
     30 H6          0.4119   -0.0339   -0.5502 H         1 <1>         0.1409
     31 H7          2.0869    3.8670    0.2259 H         1 <1>         0.1462
     32 H8         -1.8386    0.8506   -0.1395 H         1 <1>         0.1449
     33 H9         -0.1632    4.7510    0.6381 H         1 <1>         0.1455
     34 H10         2.5784   -0.1141    1.1665 H         1 <1>         0.1696
     35 H11         8.2960    1.8372   -2.3854 H         1 <1>         0.0671
     36 H12         7.6591    0.5799   -1.2984 H         1 <1>         0.0582
     37 H13         8.5577    0.1121   -2.7366 H         1 <1>         0.0582
     38 H14         6.1049   -0.1918   -3.0944 H         1 <1>         0.1260
     39 H15         6.7382    1.0690   -4.1842 H         1 <1>         0.1260
@<TRIPOS>BOND
     1    1   12 1
     2    1   21 3
     3    2    3 ar
     4    2    4 ar
     5    3    5 ar
     6    4    6 ar
     7    5   14 ar
     8    6   14 ar
     9    7    9 ar
    10    7   13 ar
    11    8   10 ar
    12    8   13 ar
    13    9   16 ar
    14   10   16 ar
    15   11   15 ar
    16   11   17 ar
    17   12   15 ar
    18   12   18 ar
    19   13   15 1
    20   14   17 1
    21   16   24 1
    22   17   22 ar
    23   18   22 ar
    24   18   23 1
    25   19   20 1
    26   20   23 1
    27    2   25 1
    28    3   26 1
    29    4   27 1
    30    5   28 1
    31    6   29 1
    32    7   30 1
    33    8   31 1
    34    9   32 1
    35   10   33 1
    36   11   34 1
    37   19   35 1
    38   19   36 1
    39   19   37 1
    40   20   38 1
    41   20   39 1
