@<TRIPOS>MOLECULE
AG-205/36992071
   42    45     0
SMALL
USER_CHARGE


@<TRIPOS>ATOM
      1 C1          5.3272   -2.8175    2.8613 C.2       1 <1>        -0.0732
      2 C2          0.1454    0.9682   -0.1549 C.ar      1 <1>        -0.0682
      3 C3          1.1160    3.1378    0.2784 C.ar      1 <1>        -0.0685
      4 C4         -1.1288    1.4974    0.0491 C.ar      1 <1>        -0.0564
      5 C5         -0.1582    3.6671    0.4824 C.ar      1 <1>        -0.0564
      6 C6          4.5943   -1.6757    2.4263 C.2       1 <1>        -0.0582
      7 C7          3.0548    0.2030    0.5498 C.ar      1 <1>        -0.0258
      8 C8          6.1225   -3.3335    1.8619 C.2       1 <1>        -0.0417
      9 C9          3.4239    1.7432   -1.2679 C.ar      1 <1>         0.0123
     10 C10         1.2679    1.7882   -0.0403 C.ar      1 <1>        -0.0578
     11 C11         2.5871    1.2402   -0.2509 C.ar      1 <1>        -0.0248
     12 C12         3.2477    2.7798   -2.2397 C.2       1 <1>         0.0222
     13 C13        -1.2807    2.8470    0.3678 C.ar      1 <1>        -0.0143
     14 C14         4.3255   -0.2891    0.3098 C.ar      1 <1>         0.0088
     15 C15         4.8576   -1.3624    1.1107 C.2       1 <1>        -0.0081
     16 C16         4.3489    2.9357   -3.0525 C.2       1 <1>         0.0986
     17 C17         4.6774    1.1539   -1.3968 C.ar      1 <1>         0.0582
     18 C18         4.5612    3.8517   -4.1290 C.2       1 <1>         0.1491
     19 C19         2.3470    4.1535   -6.3950 C.3       1 <1>        -0.0295
     20 C20         3.2452    5.1391   -5.6783 C.3       1 <1>         0.0293
     21 N1          5.1734    0.1484   -0.6457 N.ar      1 <1>        -0.3426
     22 N2          2.1310    3.5392   -2.3680 N.pl3     1 <1>        -0.3435
     23 O1          5.6014    3.9274   -4.8226 O.2       1 <1>        -0.4721
     24 O2          3.4772    4.6742   -4.3444 O.3       1 <1>        -0.3922
     25 S1          5.9838   -2.4427    0.4060 S.3       1 <1>        -0.1515
     26 S2          5.6004    1.8406   -2.6553 S.3       1 <1>        -0.0446
     27 Cl1        -2.8532    3.4990    0.6210 Cl        1 <1>        -0.1804
     28 H1          5.2747   -3.2388    3.8567 H         1 <1>         0.1213
     29 H2          0.2475   -0.0857   -0.4025 H         1 <1>         0.1450
     30 H3          1.9814    3.7897    0.3723 H         1 <1>         0.1442
     31 H4         -1.9950    0.8466   -0.0415 H         1 <1>         0.1466
     32 H5         -0.2615    4.7202    0.7315 H         1 <1>         0.1473
     33 H6          3.9111   -1.1167    3.0538 H         1 <1>         0.1439
     34 H7          2.4360   -0.2085    1.3431 H         1 <1>         0.1715
     35 H8          6.7786   -4.1907    1.9172 H         1 <1>         0.1815
     36 H9          2.8138    3.1659   -6.4460 H         1 <1>         0.0585
     37 H10         1.3847    4.0637   -5.8806 H         1 <1>         0.0585
     38 H11         2.1331    4.4961   -7.4128 H         1 <1>         0.0653
     39 H12         2.7725    6.1248   -5.6308 H         1 <1>         0.1216
     40 H13         4.2066    5.2272   -6.1930 H         1 <1>         0.1216
     41 H14         1.2989    3.3814   -1.7866 H         1 <1>         0.2557
     42 H15         2.0353    4.2399   -3.1130 H         1 <1>         0.2486
@<TRIPOS>BOND
     1    1    6 1
     2    1    8 2
     3    2    4 ar
     4    2   10 ar
     5    3    5 ar
     6    3   10 ar
     7    4   13 ar
     8    5   13 ar
     9    6   15 2
    10    7   11 ar
    11    7   14 ar
    12    8   25 1
    13    9   11 ar
    14    9   12 1
    15    9   17 ar
    16   10   11 1
    17   12   16 2
    18   12   22 1
    19   13   27 1
    20   14   15 1
    21   14   21 ar
    22   15   25 1
    23   16   18 1
    24   16   26 1
    25   17   21 ar
    26   17   26 1
    27   18   23 2
    28   18   24 1
    29   19   20 1
    30   20   24 1
    31    1   28 1
    32    2   29 1
    33    3   30 1
    34    4   31 1
    35    5   32 1
    36    6   33 1
    37    7   34 1
    38    8   35 1
    39   19   36 1
    40   19   37 1
    41   19   38 1
    42   20   39 1
    43   20   40 1
    44   22   41 1
    45   22   42 1
