@<TRIPOS>MOLECULE
AO-081/15246973
   43    46     0
SMALL
USER_CHARGE


@<TRIPOS>ATOM
      1 C1          5.9441   -3.0837    2.2603 C.ar      1 <1>        -0.0915
      2 C2          6.1332   -2.7965    0.9084 C.ar      1 <1>        -0.0819
      3 C3          5.0102   -2.3614    3.0029 C.ar      1 <1>        -0.0826
      4 C4         -0.3240    1.2795   -0.4523 C.ar      1 <1>        -0.0703
      5 C5          0.5930    2.8907    1.0970 C.ar      1 <1>        -0.0706
      6 C6         -1.5897    1.8426   -0.2888 C.ar      1 <1>        -0.0927
      7 C7         -0.6727    3.4538    1.2605 C.ar      1 <1>        -0.0930
      8 C8          5.3881   -1.7869    0.2993 C.ar      1 <1>        -0.0556
      9 C9          4.2652   -1.3517    2.3936 C.ar      1 <1>        -0.0565
     10 C10         4.4073    2.4847   -2.6223 C.ar      1 <1>        -0.0643
     11 C11         3.0524    1.5792   -0.8791 C.ar      1 <1>         0.0072
     12 C12         0.7672    1.8036    0.2406 C.ar      1 <1>        -0.0345
     13 C13        -1.7640    2.9297    0.5676 C.ar      1 <1>        -0.1081
     14 C14         3.1999    2.4999   -1.9239 C.ar      1 <1>        -0.0581
     15 C15         4.4541   -1.0644    1.0418 C.ar      1 <1>        -0.0122
     16 C16         2.0749    1.2220    0.0708 C.2       1 <1>         0.0255
     17 C17         5.3877    1.5705   -2.2516 C.ar      1 <1>        -0.0481
     18 C18         4.1096    0.7228   -0.6139 C.ar      1 <1>         0.0348
     19 C19        -3.1174    3.5318    0.7407 C.3       1 <1>        -0.0425
     20 C20         2.1450    3.4800   -2.3186 C.3       1 <1>        -0.0243
     21 C21         6.6765    1.5658   -3.0102 C.3       1 <1>        -0.0102
     22 N1          2.4699    0.2270    0.8719 N.2       1 <1>        -0.3180
     23 N2          5.2923    0.6622   -1.2505 N.ar      1 <1>        -0.3741
     24 N3          3.7096   -0.0553    0.4320 N.pl3     1 <1>        -0.2878
     25 H1          6.5228   -3.8709    2.7347 H         1 <1>         0.1190
     26 H2          6.8593   -3.3597    0.3298 H         1 <1>         0.1289
     27 H3          4.8626   -2.5865    4.0553 H         1 <1>         0.1277
     28 H4         -0.2051    0.4319   -1.1231 H         1 <1>         0.1389
     29 H5          1.4337    3.3107    1.6442 H         1 <1>         0.1389
     30 H6         -2.4344    1.4288   -0.8329 H         1 <1>         0.1218
     31 H7         -0.8002    4.3008    1.9295 H         1 <1>         0.1217
     32 H8          5.5445   -1.5737   -0.7554 H         1 <1>         0.1497
     33 H9          3.5399   -0.7968    2.9840 H         1 <1>         0.1475
     34 H10         4.5786    3.1771   -3.4419 H         1 <1>         0.1393
     35 H11        -3.6509    3.0421    1.5645 H         1 <1>         0.0611
     36 H12        -3.0510    4.6056    0.9590 H         1 <1>         0.0586
     37 H13        -3.7185    3.4300   -0.1724 H         1 <1>         0.0585
     38 H14         1.4862    3.0442   -3.0787 H         1 <1>         0.0758
     39 H15         1.5353    3.7757   -1.4558 H         1 <1>         0.0716
     40 H16         2.5883    4.3978   -2.7252 H         1 <1>         0.0742
     41 H17         7.3924    2.2506   -2.5428 H         1 <1>         0.0934
     42 H18         7.1157    0.5617   -3.0354 H         1 <1>         0.0912
     43 H19         6.5226    1.8750   -4.0507 H         1 <1>         0.0919
@<TRIPOS>BOND
     1    1    2 ar
     2    1    3 ar
     3    2    8 ar
     4    3    9 ar
     5    4    6 ar
     6    4   12 ar
     7    5    7 ar
     8    5   12 ar
     9    6   13 ar
    10    7   13 ar
    11    8   15 ar
    12    9   15 ar
    13   10   14 ar
    14   10   17 ar
    15   11   14 ar
    16   11   16 1
    17   11   18 ar
    18   12   16 1
    19   13   19 1
    20   14   20 1
    21   15   24 1
    22   16   22 2
    23   17   21 1
    24   17   23 ar
    25   18   23 ar
    26   18   24 1
    27   22   24 1
    28    1   25 1
    29    2   26 1
    30    3   27 1
    31    4   28 1
    32    5   29 1
    33    6   30 1
    34    7   31 1
    35    8   32 1
    36    9   33 1
    37   10   34 1
    38   19   35 1
    39   19   36 1
    40   19   37 1
    41   20   38 1
    42   20   39 1
    43   20   40 1
    44   21   41 1
    45   21   42 1
    46   21   43 1
