@<TRIPOS>MOLECULE
AG-690/40750128
   39    41     0
SMALL
USER_CHARGE


@<TRIPOS>ATOM
      1 C1          3.1629    2.7419   -2.1470 C.1       1 <1>         0.0362
      2 C2          4.4810   -1.5584    2.4811 C.ar      1 <1>        -0.0724
      3 C3          5.8174   -2.3527    0.6318 C.ar      1 <1>        -0.0751
      4 C4          0.2801    0.9396   -0.2055 C.ar      1 <1>        -0.0653
      5 C5          1.2578    3.1059    0.2287 C.ar      1 <1>        -0.0667
      6 C6          4.9642   -2.5974    3.2766 C.ar      1 <1>        -0.0934
      7 C7          6.3007   -3.3917    1.4273 C.ar      1 <1>        -0.0946
      8 C8         -0.9929    1.4746   -0.0084 C.ar      1 <1>        -0.0556
      9 C9         -0.0152    3.6409    0.4258 C.ar      1 <1>        -0.0561
     10 C10         3.1413    0.1641    0.5382 C.ar      1 <1>        -0.0230
     11 C11         3.5774    1.6726   -1.2834 C.ar      1 <1>         0.0965
     12 C12         1.4055    1.7552   -0.0869 C.ar      1 <1>        -0.0468
     13 C13         4.9076   -1.4362    1.1588 C.ar      1 <1>        -0.0490
     14 C14         2.7260    1.2001   -0.2909 C.ar      1 <1>         0.0092
     15 C15         5.8740   -3.5140    2.7498 C.ar      1 <1>        -0.1086
     16 C16        -1.1405    2.8252    0.3073 C.ar      1 <1>        -0.0143
     17 C17         4.4073   -0.3611    0.3355 C.ar      1 <1>        -0.0130
     18 C18         4.8240    1.0800   -1.4045 C.ar      1 <1>         0.0492
     19 C19         6.3904   -4.6250    3.6001 C.3       1 <1>        -0.0424
     20 C20         5.0372    1.2759   -4.1302 C.3       1 <1>         0.0057
     21 N1          2.8279    3.6064   -2.8450 N.1       1 <1>        -0.3784
     22 N2          5.2625    0.0717   -0.6180 N.ar      1 <1>        -0.3595
     23 S1          6.0069    1.6053   -2.6444 S.3       1 <1>        -0.1538
     24 Cl1        -2.7116    3.4844    0.5519 Cl        1 <1>        -0.1813
     25 H1          3.7717   -0.8523    2.9062 H         1 <1>         0.1438
     26 H2          6.1600   -2.2705   -0.3969 H         1 <1>         0.1361
     27 H3          0.3790   -0.1151   -0.4508 H         1 <1>         0.1460
     28 H4          2.1254    3.7544    0.3255 H         1 <1>         0.1407
     29 H5          4.6255   -2.6855    4.3055 H         1 <1>         0.1204
     30 H6          7.0098   -4.1011    1.0088 H         1 <1>         0.1203
     31 H7         -1.8612    0.8272   -0.1020 H         1 <1>         0.1475
     32 H8         -0.1153    4.6949    0.6725 H         1 <1>         0.1470
     33 H9          2.4954   -0.2230    1.3217 H         1 <1>         0.1729
     34 H10         5.7437   -5.5064    3.5112 H         1 <1>         0.0616
     35 H11         7.4094   -4.9101    3.3077 H         1 <1>         0.0588
     36 H12         6.4341   -4.3305    4.6569 H         1 <1>         0.0587
     37 H13         5.6151    1.5440   -5.0182 H         1 <1>         0.1040
     38 H14         4.1178    1.8663   -4.1117 H         1 <1>         0.0973
     39 H15         4.7801    0.2151   -4.1780 H         1 <1>         0.0974
@<TRIPOS>BOND
     1    1   11 1
     2    1   21 3
     3    2    6 ar
     4    2   13 ar
     5    3    7 ar
     6    3   13 ar
     7    4    8 ar
     8    4   12 ar
     9    5    9 ar
    10    5   12 ar
    11    6   15 ar
    12    7   15 ar
    13    8   16 ar
    14    9   16 ar
    15   10   14 ar
    16   10   17 ar
    17   11   14 ar
    18   11   18 ar
    19   12   14 1
    20   13   17 1
    21   15   19 1
    22   16   24 1
    23   17   22 ar
    24   18   22 ar
    25   18   23 1
    26   20   23 1
    27    2   25 1
    28    3   26 1
    29    4   27 1
    30    5   28 1
    31    6   29 1
    32    7   30 1
    33    8   31 1
    34    9   32 1
    35   10   33 1
    36   19   34 1
    37   19   35 1
    38   19   36 1
    39   20   37 1
    40   20   38 1
    41   20   39 1
