@<TRIPOS>MOLECULE
AO-476/42129205
   37    39     0
SMALL
USER_CHARGE


@<TRIPOS>ATOM
      1 C1          3.1317    2.9031   -2.3006 C.1       1 <1>         0.0240
      2 C2          1.2107    2.9606    0.6587 C.ar      1 <1>        -0.0839
      3 C3          0.2945    1.3511   -0.8927 C.ar      1 <1>        -0.0823
      4 C4          4.5192   -1.4071    2.3006 C.ar      1 <1>        -0.0496
      5 C5          5.8459   -2.1784    0.4347 C.ar      1 <1>        -0.0468
      6 C6         -0.0647    3.4846    0.8685 C.ar      1 <1>        -0.0980
      7 C7         -0.9812    1.8749   -0.6828 C.ar      1 <1>        -0.0973
      8 C8          5.0191   -2.4461    3.0856 C.ar      1 <1>        -0.0278
      9 C9          6.3459   -3.2174    1.2197 C.ar      1 <1>        -0.0265
     10 C10         3.1462    0.3143    0.3801 C.ar      1 <1>        -0.0290
     11 C11         3.5511    1.8362   -1.4378 C.ar      1 <1>         0.0864
     12 C12         1.3905    1.8939   -0.2220 C.ar      1 <1>        -0.0573
     13 C13         4.9326   -1.2733    0.9751 C.ar      1 <1>        -0.0364
     14 C14         2.7135    1.3507   -0.4397 C.ar      1 <1>         0.0026
     15 C15        -1.1607    2.9419    0.1978 C.ar      1 <1>        -0.1104
     16 C16         5.9325   -3.3511    2.5451 C.ar      1 <1>         0.0472
     17 C17         4.4151   -0.1981    0.1626 C.ar      1 <1>        -0.0120
     18 C18         4.8020    1.2558   -1.5736 C.ar      1 <1>         0.0390
     19 C19        -2.5245    3.5021    0.4220 C.3       1 <1>        -0.0428
     20 N1          2.7924    3.7662   -2.9983 N.1       1 <1>        -0.3938
     21 N2          5.2571    0.2476   -0.7965 N.ar      1 <1>        -0.3629
     22 N3          5.6712    1.7366   -2.5858 N.pl3     1 <1>        -0.3209
     23 F1          6.4125   -4.3489    3.2990 F         1 <1>        -0.3400
     24 H1          2.0552    3.3952    1.1884 H         1 <1>         0.1266
     25 H2          0.4183    0.5191   -1.5817 H         1 <1>         0.1324
     26 H3          3.8076   -0.7098    2.7363 H         1 <1>         0.1540
     27 H4          6.1781   -2.0874   -0.5967 H         1 <1>         0.1624
     28 H5         -0.1952    4.3166    1.5555 H         1 <1>         0.1190
     29 H6         -1.8295    1.4455   -1.2091 H         1 <1>         0.1200
     30 H7          4.6972   -2.5506    4.1175 H         1 <1>         0.1542
     31 H8          7.0572   -3.9224    0.7997 H         1 <1>         0.1544
     32 H9          2.5111   -0.0824    1.1676 H         1 <1>         0.1569
     33 H10        -2.7288    4.3079   -0.2936 H         1 <1>         0.0572
     34 H11        -3.2964    2.7302    0.3065 H         1 <1>         0.0606
     35 H12        -2.6278    3.9048    1.4382 H         1 <1>         0.0603
     36 H13         5.3431    2.4463   -3.2031 H         1 <1>         0.2795
     37 H14         6.5516    1.2889   -2.7147 H         1 <1>         0.2811
@<TRIPOS>BOND
     1    1   11 1
     2    1   20 3
     3    2    6 ar
     4    2   12 ar
     5    3    7 ar
     6    3   12 ar
     7    4    8 ar
     8    4   13 ar
     9    5    9 ar
    10    5   13 ar
    11    6   15 ar
    12    7   15 ar
    13    8   16 ar
    14    9   16 ar
    15   10   14 ar
    16   10   17 ar
    17   11   14 ar
    18   11   18 ar
    19   12   14 1
    20   13   17 1
    21   15   19 1
    22   16   23 1
    23   17   21 ar
    24   18   21 ar
    25   18   22 1
    26    2   24 1
    27    3   25 1
    28    4   26 1
    29    5   27 1
    30    6   28 1
    31    7   29 1
    32    8   30 1
    33    9   31 1
    34   10   32 1
    35   19   33 1
    36   19   34 1
    37   19   35 1
    38   22   36 1
    39   22   37 1
