@<TRIPOS>MOLECULE
AM-807/14956052
   34    37     0
SMALL
USER_CHARGE


@<TRIPOS>ATOM
      1 C1          4.4779    3.8082   -4.2287 C.1       1 <1>         0.0456
      2 C2          5.6527   -2.5466    2.9303 C.2       1 <1>        -0.0736
      3 C3          1.1137    2.9131    0.7648 C.ar      1 <1>        -0.0685
      4 C4          0.1878    1.2642   -0.7390 C.ar      1 <1>        -0.0684
      5 C5         -0.1592    3.4483    0.9619 C.ar      1 <1>        -0.0568
      6 C6         -1.0852    1.7995   -0.5419 C.ar      1 <1>        -0.0564
      7 C7          5.1051   -1.3089    2.4851 C.2       1 <1>        -0.0586
      8 C8          3.0767    0.2508    0.5346 C.ar      1 <1>        -0.0253
      9 C9          5.8257   -3.4381    1.8946 C.2       1 <1>        -0.0421
     10 C10         4.3526    2.8890   -3.1438 C.2       1 <1>         0.1241
     11 C11         3.4368    1.7434   -1.3241 C.ar      1 <1>         0.0166
     12 C12         1.2872    1.8210   -0.0857 C.ar      1 <1>        -0.0576
     13 C13         2.6053    1.2674   -0.2901 C.ar      1 <1>        -0.0237
     14 C14         3.2559    2.7548   -2.3212 C.2       1 <1>         0.0299
     15 C15        -1.2587    2.8914    0.3085 C.ar      1 <1>        -0.0146
     16 C16         4.3457   -0.2482    0.3003 C.ar      1 <1>         0.0091
     17 C17         4.8806   -1.3015    1.1259 C.2       1 <1>        -0.0084
     18 C18         4.6891    1.1501   -1.4446 C.ar      1 <1>         0.0649
     19 N1          4.5797    4.5553   -5.1109 N.1       1 <1>        -0.3792
     20 N2          5.1887    0.1639   -0.6707 N.ar      1 <1>        -0.3406
     21 N3          2.1336    3.5075   -2.4551 N.pl3     1 <1>        -0.3453
     22 S1          5.3290   -2.7825    0.3926 S.3       1 <1>        -0.1521
     23 S2          5.6058    1.8037   -2.7255 S.3       1 <1>        -0.0292
     24 Cl1        -2.8289    3.5532    0.5509 Cl        1 <1>        -0.1807
     25 H1          5.9075   -2.7718    3.9576 H         1 <1>         0.1210
     26 H2          1.9609    3.3581    1.2810 H         1 <1>         0.1447
     27 H3          0.3070    0.4135   -1.4059 H         1 <1>         0.1445
     28 H4         -0.2800    4.3006    1.6259 H         1 <1>         0.1461
     29 H5         -1.9328    1.3562   -1.0585 H         1 <1>         0.1473
     30 H6          4.8909   -0.4700    3.1358 H         1 <1>         0.1433
     31 H7          2.4625   -0.1402    1.3416 H         1 <1>         0.1723
     32 H8          6.2205   -4.4431    1.9479 H         1 <1>         0.1811
     33 H9          2.0645    4.2551   -3.1554 H         1 <1>         0.2451
     34 H10         1.3461    3.4239   -1.8018 H         1 <1>         0.2453
@<TRIPOS>BOND
     1    1   10 1
     2    1   19 3
     3    2    7 1
     4    2    9 2
     5    3    5 ar
     6    3   12 ar
     7    4    6 ar
     8    4   12 ar
     9    5   15 ar
    10    6   15 ar
    11    7   17 2
    12    8   13 ar
    13    8   16 ar
    14    9   22 1
    15   10   14 2
    16   10   23 1
    17   11   13 ar
    18   11   14 1
    19   11   18 ar
    20   12   13 1
    21   14   21 1
    22   15   24 1
    23   16   17 1
    24   16   20 ar
    25   17   22 1
    26   18   20 ar
    27   18   23 1
    28    2   25 1
    29    3   26 1
    30    4   27 1
    31    5   28 1
    32    6   29 1
    33    7   30 1
    34    8   31 1
    35    9   32 1
    36   21   33 1
    37   21   34 1
