@<TRIPOS>MOLECULE
AG-690/40749447
   37    39     0
SMALL
USER_CHARGE


@<TRIPOS>ATOM
      1 C1          3.1631    2.7421   -2.1468 C.1       1 <1>         0.0397
      2 C2          8.0180    2.3290   -0.9678 C.1       1 <1>        -0.0055
      3 C3          5.8743   -3.5138    2.7499 C.ar      1 <1>        -0.0956
      4 C4          5.5112   -2.2997    3.3327 C.ar      1 <1>        -0.0902
      5 C5          5.7540   -3.6892    1.3714 C.ar      1 <1>        -0.0915
      6 C6          5.0277   -1.2610    2.5371 C.ar      1 <1>        -0.0723
      7 C7          5.2705   -2.6505    0.5757 C.ar      1 <1>        -0.0750
      8 C8          0.2801    0.9396   -0.2057 C.ar      1 <1>        -0.0648
      9 C9          1.2577    3.1058    0.2288 C.ar      1 <1>        -0.0663
     10 C10        -0.9929    1.4747   -0.0086 C.ar      1 <1>        -0.0552
     11 C11        -0.0152    3.6409    0.4259 C.ar      1 <1>        -0.0558
     12 C12         3.1412    0.1641    0.5382 C.ar      1 <1>        -0.0207
     13 C13         3.5774    1.6728   -1.2834 C.ar      1 <1>         0.1042
     14 C14         1.4055    1.7552   -0.0869 C.ar      1 <1>        -0.0458
     15 C15         4.9074   -1.4364    1.1586 C.ar      1 <1>        -0.0488
     16 C16         2.7260    1.2001   -0.2909 C.ar      1 <1>         0.0120
     17 C17        -1.1406    2.8253    0.3073 C.ar      1 <1>        -0.0138
     18 C18         4.4072   -0.3612    0.3354 C.ar      1 <1>        -0.0107
     19 C19         4.8240    1.0800   -1.4044 C.ar      1 <1>         0.0740
     20 C20         6.8738    2.8757   -1.7000 C.3       1 <1>         0.1319
     21 N1          2.8281    3.6067   -2.8447 N.1       1 <1>        -0.3759
     22 N2          8.9258    1.9010   -0.3851 N.1       1 <1>        -0.4029
     23 N3          5.2624    0.0717   -0.6179 N.ar      1 <1>        -0.3528
     24 S1          6.0070    1.6056   -2.6442 S.3       1 <1>        -0.0768
     25 Cl1        -2.7116    3.4844    0.5520 Cl        1 <1>        -0.1806
     26 H1          6.2522   -4.3217    3.3694 H         1 <1>         0.1200
     27 H2          5.6063   -2.1622    4.4059 H         1 <1>         0.1207
     28 H3          6.0378   -4.6337    0.9166 H         1 <1>         0.1204
     29 H4          4.7490   -0.3204    3.0065 H         1 <1>         0.1431
     30 H5          5.1828   -2.8017   -0.4976 H         1 <1>         0.1351
     31 H6          0.3790   -0.1150   -0.4511 H         1 <1>         0.1466
     32 H7          2.1255    3.7544    0.3258 H         1 <1>         0.1411
     33 H8         -1.8613    0.8274   -0.1023 H         1 <1>         0.1479
     34 H9         -0.1153    4.6950    0.6727 H         1 <1>         0.1473
     35 H10         2.4954   -0.2232    1.3215 H         1 <1>         0.1765
     36 H11         7.2037    3.6555   -2.3930 H         1 <1>         0.2205
     37 H12         6.1626    3.3301   -1.0035 H         1 <1>         0.2205
@<TRIPOS>BOND
     1    1   13 1
     2    1   21 3
     3    2   20 1
     4    2   22 3
     5    3    4 ar
     6    3    5 ar
     7    4    6 ar
     8    5    7 ar
     9    6   15 ar
    10    7   15 ar
    11    8   10 ar
    12    8   14 ar
    13    9   11 ar
    14    9   14 ar
    15   10   17 ar
    16   11   17 ar
    17   12   16 ar
    18   12   18 ar
    19   13   16 ar
    20   13   19 ar
    21   14   16 1
    22   15   18 1
    23   17   25 1
    24   18   23 ar
    25   19   23 ar
    26   19   24 1
    27   20   24 1
    28    3   26 1
    29    4   27 1
    30    5   28 1
    31    6   29 1
    32    7   30 1
    33    8   31 1
    34    9   32 1
    35   10   33 1
    36   11   34 1
    37   12   35 1
    38   20   36 1
    39   20   37 1
