@<TRIPOS>MOLECULE
AG-205/12125110
   37    39     0
SMALL
USER_CHARGE


@<TRIPOS>ATOM
      1 C1          3.1315    2.9031   -2.3006 C.1       1 <1>         0.0259
      2 C2          4.5193   -1.4071    2.3006 C.ar      1 <1>        -0.0713
      3 C3          5.8460   -2.1784    0.4347 C.ar      1 <1>        -0.0742
      4 C4          1.2106    2.9606    0.6588 C.ar      1 <1>        -0.0654
      5 C5          0.2943    1.3512   -0.8927 C.ar      1 <1>        -0.0671
      6 C6          5.0192   -2.4460    3.0856 C.ar      1 <1>        -0.0934
      7 C7          6.3460   -3.2174    1.2196 C.ar      1 <1>        -0.0948
      8 C8         -0.0648    3.4848    0.8684 C.ar      1 <1>        -0.0561
      9 C9         -0.9812    1.8752   -0.6831 C.ar      1 <1>        -0.0569
     10 C10         3.1462    0.3143    0.3802 C.ar      1 <1>        -0.0269
     11 C11         3.5510    1.8361   -1.4377 C.ar      1 <1>         0.0885
     12 C12         1.3903    1.8938   -0.2217 C.ar      1 <1>        -0.0475
     13 C13         4.9327   -1.2733    0.9751 C.ar      1 <1>        -0.0476
     14 C14         2.7136    1.3505   -0.4396 C.ar      1 <1>         0.0065
     15 C15         5.9326   -3.3512    2.5451 C.ar      1 <1>        -0.1090
     16 C16        -1.1608    2.9421    0.1975 C.ar      1 <1>        -0.0153
     17 C17         4.4151   -0.1981    0.1627 C.ar      1 <1>        -0.0126
     18 C18         4.8019    1.2557   -1.5736 C.ar      1 <1>         0.0403
     19 C19         6.4670   -4.4623    3.3843 C.3       1 <1>        -0.0428
     20 N1          2.7923    3.7661   -2.9983 N.1       1 <1>        -0.3916
     21 N2          5.2571    0.2476   -0.7964 N.ar      1 <1>        -0.3612
     22 N3          5.6710    1.7366   -2.5858 N.pl3     1 <1>        -0.3238
     23 Cl1        -2.7341    3.5904    0.4555 Cl        1 <1>        -0.1828
     24 H1          3.8074   -0.7100    2.7363 H         1 <1>         0.1457
     25 H2          6.1784   -2.0870   -0.5967 H         1 <1>         0.1371
     26 H3          2.0550    3.3946    1.1889 H         1 <1>         0.1463
     27 H4          0.4184    0.5201   -1.5831 H         1 <1>         0.1401
     28 H5          4.6908   -2.5433    4.1168 H         1 <1>         0.1195
     29 H6          7.0578   -3.9178    0.7905 H         1 <1>         0.1193
     30 H7         -0.1905    4.3175    1.5559 H         1 <1>         0.1466
     31 H8         -1.8260    1.4432   -1.2136 H         1 <1>         0.1455
     32 H9          2.5112   -0.0824    1.1678 H         1 <1>         0.1604
     33 H10         5.8276   -5.3491    3.2960 H         1 <1>         0.0611
     34 H11         7.4858   -4.7364    3.0809 H         1 <1>         0.0584
     35 H12         6.5176   -4.1737    4.4422 H         1 <1>         0.0582
     36 H13         5.3429    2.4462   -3.2032 H         1 <1>         0.2696
     37 H14         6.5515    1.2889   -2.7148 H         1 <1>         0.2707
@<TRIPOS>BOND
     1    1   11 1
     2    1   20 3
     3    2    6 ar
     4    2   13 ar
     5    3    7 ar
     6    3   13 ar
     7    4    8 ar
     8    4   12 ar
     9    5    9 ar
    10    5   12 ar
    11    6   15 ar
    12    7   15 ar
    13    8   16 ar
    14    9   16 ar
    15   10   14 ar
    16   10   17 ar
    17   11   14 ar
    18   11   18 ar
    19   12   14 1
    20   13   17 1
    21   15   19 1
    22   16   23 1
    23   17   21 ar
    24   18   21 ar
    25   18   22 1
    26    2   24 1
    27    3   25 1
    28    4   26 1
    29    5   27 1
    30    6   28 1
    31    7   29 1
    32    8   30 1
    33    9   31 1
    34   10   32 1
    35   19   33 1
    36   19   34 1
    37   19   35 1
    38   22   36 1
    39   22   37 1
