@<TRIPOS>MOLECULE
AI-031/12583052
   36    39     0
SMALL
USER_CHARGE


@<TRIPOS>ATOM
      1 C1         -1.4118    2.5642    0.7444 C.ar      1 <1>        -0.0951
      2 C2         -0.7764    1.3227    0.7172 C.ar      1 <1>        -0.0913
      3 C3         -0.7970    3.6750    0.1667 C.ar      1 <1>        -0.0883
      4 C4          0.4738    1.1921    0.1124 C.ar      1 <1>        -0.0729
      5 C5          0.4532    3.5445   -0.4380 C.ar      1 <1>        -0.0680
      6 C6          4.4716   -1.4006    2.3239 C.ar      1 <1>        -0.0374
      7 C7          5.8450   -2.2832    0.5429 C.ar      1 <1>        -0.0414
      8 C8          4.8862   -2.4388    3.1581 C.ar      1 <1>        -0.0400
      9 C9          6.2597   -3.3213    1.3771 C.ar      1 <1>        -0.0420
     10 C10         3.3255    0.3417    0.2489 C.2       1 <1>         0.0207
     11 C11         3.3731    1.2725   -0.7479 C.ar      1 <1>         0.0344
     12 C12         1.0886    2.3030   -0.4652 C.ar      1 <1>        -0.0337
     13 C13         4.6609    1.1510   -1.3857 C.ar      1 <1>         0.0476
     14 C14         4.9509   -1.3229    1.0163 C.ar      1 <1>        -0.0089
     15 C15         5.7803   -3.3991    2.6846 C.ar      1 <1>        -0.0045
     16 C16         2.3701    2.1686   -1.0853 C.ar      1 <1>         0.0341
     17 C17         4.9962    1.9904   -2.4578 C.ar      1 <1>         0.0265
     18 C18         6.2734    1.9873   -3.2140 C.3       1 <1>         0.0135
     19 N1          5.3584    0.1734   -0.7822 N.2       1 <1>        -0.3219
     20 N2          2.7244    2.9675   -2.1269 N.ar      1 <1>        -0.3050
     21 N3          4.0194    2.8770   -2.8012 N.ar      1 <1>        -0.3057
     22 N4          4.5364   -0.2854    0.1831 N.pl3     1 <1>        -0.2994
     23 Cl1         6.2936   -4.6784    3.7150 Cl        1 <1>        -0.1756
     24 H1         -2.3859    2.6652    1.2139 H         1 <1>         0.1202
     25 H2         -1.2557    0.4573    1.1654 H         1 <1>         0.1201
     26 H3         -1.2917    4.6416    0.1862 H         1 <1>         0.1234
     27 H4          0.9560    0.2174    0.0992 H         1 <1>         0.1305
     28 H5          0.9199    4.4191   -0.8848 H         1 <1>         0.1442
     29 H6          3.7744   -0.6588    2.7061 H         1 <1>         0.1717
     30 H7          6.2265   -2.2341   -0.4742 H         1 <1>         0.1600
     31 H8          4.5045   -2.4876    4.1747 H         1 <1>         0.1613
     32 H9          6.9564   -4.0629    0.9946 H         1 <1>         0.1603
     33 H10         2.5710    0.0718    0.9769 H         1 <1>         0.2540
     34 H11         6.2166    1.3013   -4.0711 H         1 <1>         0.1038
     35 H12         6.5221    2.9896   -3.5941 H         1 <1>         0.1041
     36 H13         7.1184    1.6755   -2.5816 H         1 <1>         0.1005
@<TRIPOS>BOND
     1    1    2 ar
     2    1    3 ar
     3    2    4 ar
     4    3    5 ar
     5    4   12 ar
     6    5   12 ar
     7    6    8 ar
     8    6   14 ar
     9    7    9 ar
    10    7   14 ar
    11    8   15 ar
    12    9   15 ar
    13   10   11 2
    14   10   22 1
    15   11   13 ar
    16   11   16 ar
    17   12   16 1
    18   13   17 ar
    19   13   19 2
    20   14   22 1
    21   15   23 1
    22   16   20 ar
    23   17   18 1
    24   17   21 ar
    25   19   22 1
    26   20   21 ar
    27    1   24 1
    28    2   25 1
    29    3   26 1
    30    4   27 1
    31    5   28 1
    32    6   29 1
    33    7   30 1
    34    8   31 1
    35    9   32 1
    36   10   33 1
    37   18   34 1
    38   18   35 1
    39   18   36 1
