@<TRIPOS>MOLECULE
AM-807/12740324
   46    49     0
SMALL
USER_CHARGE


@<TRIPOS>ATOM
      1 C1          5.6230   -2.6526    2.8861 C.2       1 <1>        -0.0738
      2 C2          1.0892    2.8578    0.8373 C.ar      1 <1>        -0.0685
      3 C3          0.1724    1.2477   -0.7132 C.ar      1 <1>        -0.0687
      4 C4         -0.1850    3.3876    1.0407 C.ar      1 <1>        -0.0566
      5 C5         -1.1020    1.7774   -0.5098 C.ar      1 <1>        -0.0565
      6 C6          5.0760   -1.4044    2.4703 C.2       1 <1>        -0.0589
      7 C7          3.0551    0.2029    0.5500 C.ar      1 <1>        -0.0265
      8 C8          5.8021   -3.5172    1.8288 C.2       1 <1>        -0.0422
      9 C9          3.4238    1.7431   -1.2677 C.ar      1 <1>         0.0075
     10 C10         1.2679    1.7879   -0.0398 C.ar      1 <1>        -0.0581
     11 C11         2.5871    1.2399   -0.2507 C.ar      1 <1>        -0.0260
     12 C12         3.2473    2.7797   -2.2394 C.2       1 <1>         0.0114
     13 C13        -1.2806    2.8474    0.3671 C.ar      1 <1>        -0.0144
     14 C14         4.3258   -0.2892    0.3097 C.ar      1 <1>         0.0073
     15 C15         4.8580   -1.3625    1.1106 C.2       1 <1>        -0.0090
     16 C16         4.3483    2.9358   -3.0524 C.2       1 <1>         0.0672
     17 C17         4.6772    1.1540   -1.3968 C.ar      1 <1>         0.0496
     18 C18         4.5603    3.8518   -4.1289 C.2       1 <1>         0.0873
     19 C19         7.1061    3.9248   -6.8353 C.3       1 <1>        -0.0471
     20 C20         6.8229    5.9226   -5.3272 C.3       1 <1>        -0.0493
     21 C21         6.1695    4.6720   -5.8972 C.3       1 <1>        -0.0115
     22 N1          5.1735    0.1484   -0.6457 N.ar      1 <1>        -0.3458
     23 N2          2.1305    3.5391   -2.3675 N.pl3     1 <1>        -0.3455
     24 N3          5.7973    3.8001   -4.8064 N.am      1 <1>        -0.3367
     25 O1          3.6867    4.6942   -4.4557 O.2       1 <1>        -0.5144
     26 S1          5.3118   -2.8237    0.3418 S.3       1 <1>        -0.1523
     27 S2          5.6001    1.8409   -2.6555 S.3       1 <1>        -0.0644
     28 Cl1        -2.8523    3.5025    0.6175 Cl        1 <1>        -0.1807
     29 H1          5.8732   -2.9038    3.9085 H         1 <1>         0.1208
     30 H2          1.9333    3.2900    1.3693 H         1 <1>         0.1443
     31 H3          0.2956    0.4142   -1.4007 H         1 <1>         0.1438
     32 H4         -0.3098    4.2227    1.7255 H         1 <1>         0.1467
     33 H5         -1.9464    1.3474   -1.0423 H         1 <1>         0.1472
     34 H6          4.8576   -0.5828    3.1413 H         1 <1>         0.1427
     35 H7          2.4364   -0.2088    1.3434 H         1 <1>         0.1710
     36 H8          6.1978   -4.5225    1.8583 H         1 <1>         0.1808
     37 H9          8.0272    3.6362   -6.3185 H         1 <1>         0.0476
     38 H10         6.6367    3.0162   -7.2290 H         1 <1>         0.0542
     39 H11         7.3797    4.5511   -7.6915 H         1 <1>         0.0481
     40 H12         7.7398    5.6685   -4.7842 H         1 <1>         0.0485
     41 H13         6.1479    6.4332   -4.6325 H         1 <1>         0.0435
     42 H14         7.0949    6.6288   -6.1196 H         1 <1>         0.0456
     43 H15         5.2564    4.9502   -6.4347 H         1 <1>         0.1038
     44 H16         1.2984    3.3811   -1.7860 H         1 <1>         0.2565
     45 H17         2.0346    4.2398   -3.1125 H         1 <1>         0.2466
     46 H18         6.5021    3.1500   -4.4740 H         1 <1>         0.2846
@<TRIPOS>BOND
     1    1    6 1
     2    1    8 2
     3    2    4 ar
     4    2   10 ar
     5    3    5 ar
     6    3   10 ar
     7    4   13 ar
     8    5   13 ar
     9    6   15 2
    10    7   11 ar
    11    7   14 ar
    12    8   26 1
    13    9   11 ar
    14    9   12 1
    15    9   17 ar
    16   10   11 1
    17   12   16 2
    18   12   23 1
    19   13   28 1
    20   14   15 1
    21   14   22 ar
    22   15   26 1
    23   16   18 1
    24   16   27 1
    25   17   22 ar
    26   17   27 1
    27   18   24 am
    28   18   25 2
    29   19   21 1
    30   20   21 1
    31   21   24 1
    32    1   29 1
    33    2   30 1
    34    3   31 1
    35    4   32 1
    36    5   33 1
    37    6   34 1
    38    7   35 1
    39    8   36 1
    40   19   37 1
    41   19   38 1
    42   19   39 1
    43   20   40 1
    44   20   41 1
    45   20   42 1
    46   21   43 1
    47   23   44 1
    48   23   45 1
    49   24   46 1
