@<TRIPOS>MOLECULE
AO-081/14337023
   42    45     0
SMALL
USER_CHARGE


@<TRIPOS>ATOM
      1 C1          1.4187    3.0652    0.3927 C.ar      1 <1>        -0.0651
      2 C2          0.5347    1.0034   -0.5045 C.ar      1 <1>        -0.0652
      3 C3          5.8383   -2.4033    0.7820 C.ar      1 <1>        -0.0433
      4 C4          4.3165   -1.8371    2.5709 C.ar      1 <1>        -0.0433
      5 C5          0.1227    3.5644    0.5227 C.ar      1 <1>        -0.0569
      6 C6         -0.7613    1.5026   -0.3745 C.ar      1 <1>        -0.0578
      7 C7          6.4461   -3.3553    1.6003 C.ar      1 <1>        -0.0522
      8 C8          4.9243   -2.7891    3.3895 C.ar      1 <1>        -0.0523
      9 C9          1.6247    1.7848   -0.1208 C.ar      1 <1>        -0.0352
     10 C10         4.7734   -1.6442    1.2673 C.ar      1 <1>         0.0069
     11 C11        -0.9673    2.7831    0.1391 C.ar      1 <1>        -0.0164
     12 C12         5.9892   -3.5482    2.9040 C.ar      1 <1>        -0.0274
     13 C13         4.0671   -0.7686   -0.9622 C.2       1 <1>         0.1361
     14 C14         3.5657    0.5080    0.9005 C.2       1 <1>         0.1409
     15 C15         3.4490    2.8684   -2.2345 C.2       1 <1>         0.1269
     16 C16         3.3491    0.4269   -1.4782 C.3       1 <1>         0.1346
     17 C17         3.9139    1.8095   -1.3206 C.3       1 <1>         0.1342
     18 C18         3.0090    1.2516   -0.2594 C.3       1 <1>         0.1369
     19 C19         3.3579    2.6105   -5.0679 C.3       1 <1>        -0.0290
     20 C20         4.0917    3.7188   -4.3435 C.3       1 <1>         0.0286
     21 N1          4.1483   -0.6659    0.4258 N.am      1 <1>        -0.2365
     22 O1          4.4301   -1.6466   -1.7273 O.2       1 <1>        -0.4663
     23 O2          3.5018    0.9788    2.0241 O.2       1 <1>        -0.4605
     24 O3          2.3099    3.3149   -2.2428 O.2       1 <1>        -0.4723
     25 O4          4.4751    3.2534   -3.0457 O.3       1 <1>        -0.3992
     26 Cl1        -2.5661    3.3992    0.2992 Cl        1 <1>        -0.1852
     27 Br1         6.8128   -4.8381    4.0128 Br        1 <1>        -0.1323
     28 H1          2.2615    3.6821    0.6934 H         1 <1>         0.1416
     29 H2          0.6848    0.0041   -0.9046 H         1 <1>         0.1447
     30 H3          6.2024   -2.2610   -0.2321 H         1 <1>         0.1590
     31 H4          3.4875   -1.2510    2.9593 H         1 <1>         0.1588
     32 H5         -0.0227    4.5644    0.9230 H         1 <1>         0.1446
     33 H6         -1.6013    0.8822   -0.6763 H         1 <1>         0.1434
     34 H7          7.2745   -3.9388    1.2075 H         1 <1>         0.1545
     35 H8          4.5567   -2.9274    4.4028 H         1 <1>         0.1545
     36 H9          2.5828    0.2527   -2.2242 H         1 <1>         0.2064
     37 H10         4.9693    1.8870   -1.0764 H         1 <1>         0.2072
     38 H11         3.9978    1.7318   -5.1873 H         1 <1>         0.0672
     39 H12         2.4572    2.3196   -4.5172 H         1 <1>         0.0592
     40 H13         3.0311    2.9466   -6.0575 H         1 <1>         0.0594
     41 H14         3.4460    4.5944   -4.2274 H         1 <1>         0.1251
     42 H15         4.9916    4.0076   -4.8945 H         1 <1>         0.1251
@<TRIPOS>BOND
     1    1    5 ar
     2    1    9 ar
     3    2    6 ar
     4    2    9 ar
     5    3    7 ar
     6    3   10 ar
     7    4    8 ar
     8    4   10 ar
     9    5   11 ar
    10    6   11 ar
    11    7   12 ar
    12    8   12 ar
    13    9   18 1
    14   10   21 1
    15   11   26 1
    16   12   27 1
    17   13   16 1
    18   13   21 am
    19   13   22 2
    20   14   18 1
    21   14   21 am
    22   14   23 2
    23   15   17 1
    24   15   24 2
    25   15   25 1
    26   16   17 1
    27   16   18 1
    28   17   18 1
    29   19   20 1
    30   20   25 1
    31    1   28 1
    32    2   29 1
    33    3   30 1
    34    4   31 1
    35    5   32 1
    36    6   33 1
    37    7   34 1
    38    8   35 1
    39   16   36 1
    40   17   37 1
    41   19   38 1
    42   19   39 1
    43   19   40 1
    44   20   41 1
    45   20   42 1
