@<TRIPOS>MOLECULE
AG-205/33125019
   40    42     0
SMALL
USER_CHARGE


@<TRIPOS>ATOM
      1 C1          3.1627    2.7422   -2.1467 C.1       1 <1>         0.0371
      2 C2          5.8744   -3.5138    2.7499 C.ar      1 <1>        -0.0959
      3 C3          5.5113   -2.2996    3.3328 C.ar      1 <1>        -0.0917
      4 C4          5.7539   -3.6892    1.3713 C.ar      1 <1>        -0.0905
      5 C5          5.0279   -1.2610    2.5371 C.ar      1 <1>        -0.0754
      6 C6          5.2705   -2.6505    0.5756 C.ar      1 <1>        -0.0727
      7 C7          0.2803    0.9395   -0.2052 C.ar      1 <1>        -0.0687
      8 C8          1.2578    3.1060    0.2287 C.ar      1 <1>        -0.0672
      9 C9         -0.9928    1.4745   -0.0085 C.ar      1 <1>        -0.0643
     10 C10        -0.0153    3.6410    0.4253 C.ar      1 <1>        -0.0637
     11 C11         3.1412    0.1641    0.5384 C.ar      1 <1>        -0.0223
     12 C12         3.5772    1.6727   -1.2832 C.ar      1 <1>         0.0983
     13 C13         1.4056    1.7553   -0.0865 C.ar      1 <1>        -0.0466
     14 C14         4.9074   -1.4365    1.1585 C.ar      1 <1>        -0.0494
     15 C15         2.7258    1.2001   -0.2906 C.ar      1 <1>         0.0102
     16 C16        -1.1405    2.8253    0.3067 C.ar      1 <1>        -0.0355
     17 C17         4.4072   -0.3612    0.3355 C.ar      1 <1>        -0.0125
     18 C18         4.8238    1.0801   -1.4045 C.ar      1 <1>         0.0531
     19 C19         8.9903   -0.2171   -4.0248 C.2       1 <1>        -0.1177
     20 C20         8.5060    0.7048   -3.1850 C.2       1 <1>        -0.1053
     21 C21         7.3543    0.4681   -2.2618 C.3       1 <1>         0.0138
     22 N1          2.8277    3.6068   -2.8444 N.1       1 <1>        -0.3777
     23 N2          5.2622    0.0717   -0.6180 N.ar      1 <1>        -0.3580
     24 S1          6.0066    1.6056   -2.6442 S.3       1 <1>        -0.1459
     25 Br1        -2.8652    3.5510    0.5724 Br        1 <1>        -0.1379
     26 H1          6.2524   -4.3217    3.3694 H         1 <1>         0.1197
     27 H2          5.6066   -2.1623    4.4059 H         1 <1>         0.1201
     28 H3          6.0377   -4.6338    0.9166 H         1 <1>         0.1203
     29 H4          4.7494   -0.3203    3.0064 H         1 <1>         0.1347
     30 H5          5.1826   -2.8017   -0.4976 H         1 <1>         0.1423
     31 H6          0.3793   -0.1153   -0.4503 H         1 <1>         0.1400
     32 H7          2.1251    3.7548    0.3238 H         1 <1>         0.1453
     33 H8         -1.8594    0.8256   -0.1053 H         1 <1>         0.1449
     34 H9         -0.1131    4.6952    0.6705 H         1 <1>         0.1455
     35 H10         2.4953   -0.2231    1.3218 H         1 <1>         0.1737
     36 H11         9.8287   -0.0048   -4.6789 H         1 <1>         0.0885
     37 H12         8.5479   -1.2064   -4.0688 H         1 <1>         0.0852
     38 H13         8.9598    1.6932   -3.1854 H         1 <1>         0.0973
     39 H14         7.6371    0.6033   -1.2129 H         1 <1>         0.1131
     40 H15         6.9942   -0.5584   -2.3812 H         1 <1>         0.1158
@<TRIPOS>BOND
     1    1   12 1
     2    1   22 3
     3    2    3 ar
     4    2    4 ar
     5    3    5 ar
     6    4    6 ar
     7    5   14 ar
     8    6   14 ar
     9    7    9 ar
    10    7   13 ar
    11    8   10 ar
    12    8   13 ar
    13    9   16 ar
    14   10   16 ar
    15   11   15 ar
    16   11   17 ar
    17   12   15 ar
    18   12   18 ar
    19   13   15 1
    20   14   17 1
    21   16   25 1
    22   17   23 ar
    23   18   23 ar
    24   18   24 1
    25   19   20 2
    26   20   21 1
    27   21   24 1
    28    2   26 1
    29    3   27 1
    30    4   28 1
    31    5   29 1
    32    6   30 1
    33    7   31 1
    34    8   32 1
    35    9   33 1
    36   10   34 1
    37   11   35 1
    38   19   36 1
    39   19   37 1
    40   20   38 1
    41   21   39 1
    42   21   40 1
