@<TRIPOS>MOLECULE
AF-826/30392059
   38    40     0
SMALL
USER_CHARGE


@<TRIPOS>ATOM
      1 C1          1.0231    3.1663    0.5823 C.ar      1 <1>        -0.0527
      2 C2          0.0952    1.5539   -0.9593 C.ar      1 <1>        -0.0509
      3 C3         -0.2250    3.3040    1.1895 C.ar      1 <1>        -0.0504
      4 C4         -1.1529    1.6916   -0.3519 C.ar      1 <1>        -0.0489
      5 C5          3.4181    1.2087   -0.7051 C.ar      1 <1>         0.0395
      6 C6          1.1832    2.2913   -0.4923 C.ar      1 <1>        -0.0256
      7 C7          3.4227    0.2192    0.3278 C.2       1 <1>         0.0350
      8 C8         -1.3130    2.5666    0.7226 C.ar      1 <1>        -0.0098
      9 C9          2.4699    2.1498   -1.1188 C.ar      1 <1>         0.0262
     10 C10         4.5998   -0.4961    0.3680 C.2       1 <1>         0.1060
     11 C11         4.6150    1.1937   -1.4095 C.ar      1 <1>         0.0760
     12 C12         3.9440    2.8532   -2.7410 C.ar      1 <1>         0.0658
     13 C13         4.9894   -1.5561    1.2436 C.2       1 <1>         0.1524
     14 C14         3.0850   -3.0923    4.0058 C.3       1 <1>        -0.0293
     15 C15         5.9284    3.4328   -4.5409 C.3       1 <1>         0.0229
     16 C16         4.2840   -2.9174    3.0984 C.3       1 <1>         0.0297
     17 N1          2.7402    2.9796   -2.1490 N.ar      1 <1>        -0.3290
     18 N2          4.9370    1.9963   -2.4427 N.ar      1 <1>        -0.3154
     19 N3          2.3953   -0.0073    1.1837 N.pl3     1 <1>        -0.3394
     20 O1          6.0879   -2.1572    1.2115 O.2       1 <1>        -0.4703
     21 O2          4.0115   -1.8690    2.1623 O.3       1 <1>        -0.3914
     22 S1          5.7040    0.0160   -0.8339 S.3       1 <1>        -0.0340
     23 S2          4.2618    3.9685   -4.0984 S.3       1 <1>        -0.1154
     24 Cl1        -2.8530    2.7382    1.4714 Cl        1 <1>        -0.1770
     25 H1          1.8616    3.7480    0.9575 H         1 <1>         0.1539
     26 H2          0.2038    0.8683   -1.7966 H         1 <1>         0.1579
     27 H3         -0.3362    3.9909    2.0249 H         1 <1>         0.1494
     28 H4         -1.9923    1.1116   -0.7271 H         1 <1>         0.1515
     29 H5          2.8788   -2.1734    4.5615 H         1 <1>         0.0586
     30 H6          2.1967   -3.3608    3.4244 H         1 <1>         0.0585
     31 H7          3.2562   -3.9055    4.7190 H         1 <1>         0.0656
     32 H8          6.2980    4.0245   -5.3819 H         1 <1>         0.1074
     33 H9          5.9156    2.3779   -4.8257 H         1 <1>         0.1075
     34 H10         6.5992    3.5650   -3.6886 H         1 <1>         0.1195
     35 H11         4.4848   -3.8401    2.5456 H         1 <1>         0.1221
     36 H12         5.1703   -2.6484    3.6807 H         1 <1>         0.1221
     37 H13         1.5430    0.5666    1.1714 H         1 <1>         0.2596
     38 H14         2.4631   -0.6985    1.9410 H         1 <1>         0.2523
@<TRIPOS>BOND
     1    1    3 ar
     2    1    6 ar
     3    2    4 ar
     4    2    6 ar
     5    3    8 ar
     6    4    8 ar
     7    5    7 1
     8    5    9 ar
     9    5   11 ar
    10    6    9 1
    11    7   10 2
    12    7   19 1
    13    8   24 1
    14    9   17 ar
    15   10   13 1
    16   10   22 1
    17   11   18 ar
    18   11   22 1
    19   12   17 ar
    20   12   18 ar
    21   12   23 1
    22   13   20 2
    23   13   21 1
    24   14   16 1
    25   15   23 1
    26   16   21 1
    27    1   25 1
    28    2   26 1
    29    3   27 1
    30    4   28 1
    31   14   29 1
    32   14   30 1
    33   14   31 1
    34   15   32 1
    35   15   33 1
    36   15   34 1
    37   16   35 1
    38   16   36 1
    39   19   37 1
    40   19   38 1
