@<TRIPOS>MOLECULE
AO-476/14976017
   28    30     0
SMALL
USER_CHARGE


@<TRIPOS>ATOM
      1 C1          5.5843   -3.2512    2.6474 C.ar      1 <1>        -0.0823
      2 C2          4.7114   -2.2436    3.0579 C.ar      1 <1>        -0.0744
      3 C3          6.1224   -3.2263    1.3607 C.ar      1 <1>        -0.0752
      4 C4          4.3767   -1.2112    2.1819 C.ar      1 <1>        -0.0492
      5 C5          5.7875   -2.1939    0.4846 C.ar      1 <1>        -0.0508
      6 C6          4.8061    1.2277   -1.5507 C.2       1 <1>         0.0688
      7 C7          1.3724    1.2170    0.4940 C.ar      1 <1>         0.0967
      8 C8          3.5159    1.4608   -1.0285 C.ar      1 <1>         0.0849
      9 C9          4.9147   -1.1863    0.8951 C.ar      1 <1>        -0.0017
     10 C10         3.4045    0.5363   -0.0020 C.ar      1 <1>         0.0995
     11 C11         2.4526    2.3175   -1.2892 C.ar      1 <1>         0.0722
     12 N1          5.4573    0.2473   -0.9164 N.2       1 <1>        -0.2964
     13 N2          2.3532    0.3524    0.8114 N.ar      1 <1>        -0.2800
     14 N3          4.5797   -0.1539    0.0201 N.pl3     1 <1>        -0.2632
     15 N4          1.4041    2.1358   -0.4788 N.ar      1 <1>        -0.3110
     16 N5          2.4603    3.2839   -2.3053 N.pl3     1 <1>        -0.2957
     17 N6          0.2075    2.9804   -0.6500 N.pl3     1 <1>        -0.2948
     18 H1          5.8467   -4.0544    3.3298 H         1 <1>         0.1351
     19 H2          4.2934   -2.2621    4.0601 H         1 <1>         0.1396
     20 H3          6.8032   -4.0106    1.0422 H         1 <1>         0.1390
     21 H4          3.6957   -0.4316    2.5148 H         1 <1>         0.1573
     22 H5          6.2147   -2.1863   -0.5153 H         1 <1>         0.1527
     23 H6          5.3008    1.7323   -2.3685 H         1 <1>         0.2955
     24 H7          0.4681    1.1605    1.0908 H         1 <1>         0.3932
     25 H8          3.2866    3.4133   -2.8603 H         1 <1>         0.3155
     26 H9          1.6755    3.9016   -2.4077 H         1 <1>         0.3032
     27 H10        -0.5980    2.4252   -0.3847 H         1 <1>         0.3058
     28 H11         0.1366    3.2120   -1.6344 H         1 <1>         0.3157
@<TRIPOS>BOND
     1    1    2 ar
     2    1    3 ar
     3    2    4 ar
     4    3    5 ar
     5    4    9 ar
     6    5    9 ar
     7    6    8 1
     8    6   12 2
     9    7   13 ar
    10    7   15 ar
    11    8   10 ar
    12    8   11 ar
    13    9   14 1
    14   10   13 ar
    15   10   14 1
    16   11   15 ar
    17   11   16 1
    18   12   14 1
    19   15   17 1
    20    1   18 1
    21    2   19 1
    22    3   20 1
    23    4   21 1
    24    5   22 1
    25    6   23 1
    26    7   24 1
    27   16   25 1
    28   16   26 1
    29   17   27 1
    30   17   28 1
