@<TRIPOS>MOLECULE
AN-989/42063253
   36    39     0
SMALL
USER_CHARGE


@<TRIPOS>ATOM
      1 C1          4.4645   -1.4340    2.3623 C.ar      1 <1>        -0.0653
      2 C2          5.8180   -2.2529    0.5362 C.ar      1 <1>        -0.0693
      3 C3          0.1496    1.0287   -0.2253 C.ar      1 <1>        -0.0419
      4 C4          1.1023    3.1980    0.2476 C.ar      1 <1>        -0.0455
      5 C5          4.9209   -2.4769    3.1682 C.ar      1 <1>        -0.0896
      6 C6          6.2743   -3.2959    1.3422 C.ar      1 <1>        -0.0917
      7 C7         -1.1298    1.5471   -0.0255 C.ar      1 <1>        -0.0232
      8 C8         -0.1771    3.7164    0.4473 C.ar      1 <1>        -0.0240
      9 C9          4.3794    2.8148   -2.8863 C.2       1 <1>         0.0662
     10 C10         1.2657    1.8542   -0.0886 C.ar      1 <1>        -0.0228
     11 C11         4.9130   -1.3220    1.0463 C.ar      1 <1>        -0.0340
     12 C12         5.8258   -3.4078    2.6582 C.ar      1 <1>        -0.1060
     13 C13        -1.2932    2.8909    0.3108 C.ar      1 <1>         0.0520
     14 C14         4.7331    1.2600   -1.5214 C.2       1 <1>         0.0944
     15 C15         3.0477    0.2965    0.4759 C.2       1 <1>         0.0052
     16 C16         2.6181    1.3067   -0.2997 C.2       1 <1>         0.0289
     17 C17         4.4276   -0.2103    0.1863 C.2       1 <1>         0.0229
     18 C18         6.3144   -4.5223    3.5209 C.3       1 <1>        -0.0411
     19 N1          5.3100    1.8976   -2.5201 N.2       1 <1>        -0.3036
     20 N2          3.2480    2.8041   -2.1883 N.2       1 <1>        -0.3042
     21 N3          5.2059    0.2370   -0.7568 N.2       1 <1>        -0.3118
     22 N4          3.4618    1.7965   -1.3028 N.pl3     1 <1>        -0.2567
     23 F1         -2.5218    3.3893    0.5010 F         1 <1>        -0.3349
     24 H1          3.7596   -0.7138    2.7694 H         1 <1>         0.1516
     25 H2          6.1742   -2.1755   -0.4877 H         1 <1>         0.1399
     26 H3          0.2611   -0.0208   -0.4873 H         1 <1>         0.1715
     27 H4          1.9625    3.8542    0.3577 H         1 <1>         0.1575
     28 H5          4.5664   -2.5563    4.1924 H         1 <1>         0.1243
     29 H6          6.9798   -4.0165    0.9368 H         1 <1>         0.1230
     30 H7         -1.9990    0.9049   -0.1319 H         1 <1>         0.1591
     31 H8         -0.3045    4.7628    0.7089 H         1 <1>         0.1600
     32 H9          4.5288    3.5191   -3.6911 H         1 <1>         0.3274
     33 H10         2.4642   -0.1452    1.2750 H         1 <1>         0.1986
     34 H11         5.6569   -5.3950    3.4257 H         1 <1>         0.0631
     35 H12         7.3334   -4.8224    3.2447 H         1 <1>         0.0601
     36 H13         6.3463   -4.2239    4.5769 H         1 <1>         0.0602
@<TRIPOS>BOND
     1    1    5 ar
     2    1   11 ar
     3    2    6 ar
     4    2   11 ar
     5    3    7 ar
     6    3   10 ar
     7    4    8 ar
     8    4   10 ar
     9    5   12 ar
    10    6   12 ar
    11    7   13 ar
    12    8   13 ar
    13    9   19 1
    14    9   20 2
    15   10   16 1
    16   11   17 1
    17   12   18 1
    18   13   23 1
    19   14   19 2
    20   14   21 1
    21   14   22 1
    22   15   16 2
    23   15   17 1
    24   16   22 1
    25   17   21 2
    26   20   22 1
    27    1   24 1
    28    2   25 1
    29    3   26 1
    30    4   27 1
    31    5   28 1
    32    6   29 1
    33    7   30 1
    34    8   31 1
    35    9   32 1
    36   15   33 1
    37   18   34 1
    38   18   35 1
    39   18   36 1
