@<TRIPOS>MOLECULE
AG-690/40749964
   45    47     0
SMALL
USER_CHARGE


@<TRIPOS>ATOM
      1 C1          3.0716    2.9063   -2.2631 C.1       1 <1>         0.0363
      2 C2          5.0341   -1.1063    2.3728 C.ar      1 <1>        -0.0724
      3 C3          5.2693   -2.4800    0.3993 C.ar      1 <1>        -0.0752
      4 C4          0.2312    1.0593   -0.3011 C.ar      1 <1>        -0.0667
      5 C5          1.1897    3.2334    0.1366 C.ar      1 <1>        -0.0653
      6 C6          5.5378   -2.1450    3.1558 C.ar      1 <1>        -0.0935
      7 C7          5.7729   -3.5187    1.1823 C.ar      1 <1>        -0.0947
      8 C8         -1.0453    1.5789   -0.0859 C.ar      1 <1>        -0.0562
      9 C9         -0.0866    3.7529    0.3517 C.ar      1 <1>        -0.0556
     10 C10         3.1090    0.3108    0.4049 C.ar      1 <1>        -0.0230
     11 C11         3.5076    1.8360   -1.4115 C.ar      1 <1>         0.0971
     12 C12         1.3488    1.8866   -0.1897 C.ar      1 <1>        -0.0468
     13 C13         4.8999   -1.2738    0.9946 C.ar      1 <1>        -0.0489
     14 C14         2.6729    1.3476   -0.4125 C.ar      1 <1>         0.0093
     15 C15         5.9072   -3.3511    2.5606 C.ar      1 <1>        -0.1087
     16 C16        -1.2043    2.9257    0.2405 C.ar      1 <1>        -0.0144
     17 C17         4.3783   -0.1990    0.1843 C.ar      1 <1>        -0.0124
     18 C18         4.7592    1.2581   -1.5506 C.ar      1 <1>         0.0499
     19 C19         6.4455   -4.4618    3.3977 C.3       1 <1>        -0.0425
     20 C20         6.7332    3.0491   -0.5139 C.3       1 <1>        -0.0445
     21 C21         8.0975    1.0919   -1.3195 C.3       1 <1>        -0.0429
     22 C22         7.2828    2.3128   -1.7298 C.3       1 <1>        -0.0051
     23 N1          2.7191    3.7716   -2.9513 N.1       1 <1>        -0.3786
     24 N2          5.2177    0.2495   -0.7759 N.ar      1 <1>        -0.3581
     25 S1          5.9219    1.8047   -2.8003 S.3       1 <1>        -0.1575
     26 Cl1        -2.7796    3.5656    0.5074 Cl        1 <1>        -0.1814
     27 H1          4.7499   -0.1723    2.8517 H         1 <1>         0.1440
     28 H2          5.1712   -2.6257   -0.6739 H         1 <1>         0.1359
     29 H3          0.3389    0.0074   -0.5546 H         1 <1>         0.1407
     30 H4          2.0513    3.8909    0.2279 H         1 <1>         0.1459
     31 H5          5.6379   -2.0060    4.2290 H         1 <1>         0.1201
     32 H6          6.0589   -4.4549    0.7101 H         1 <1>         0.1201
     33 H7         -1.9076    0.9225   -0.1741 H         1 <1>         0.1468
     34 H8         -0.1956    4.8042    0.6066 H         1 <1>         0.1474
     35 H9          2.4765   -0.0887    1.1930 H         1 <1>         0.1724
     36 H10         5.6297   -5.1056    3.7485 H         1 <1>         0.0615
     37 H11         7.1568   -5.0781    2.8327 H         1 <1>         0.0588
     38 H12         6.9850   -4.0758    4.2727 H         1 <1>         0.0586
     39 H13         6.0922    2.3843    0.0760 H         1 <1>         0.0470
     40 H14         7.5402    3.3912    0.1435 H         1 <1>         0.0538
     41 H15         6.1304    3.9184   -0.8003 H         1 <1>         0.0442
     42 H16         7.4775    0.3971   -0.7420 H         1 <1>         0.0492
     43 H17         8.9468    1.3733   -0.6871 H         1 <1>         0.0558
     44 H18         8.4815    0.5458   -2.1886 H         1 <1>         0.0492
     45 H19         7.9196    2.9935   -2.3048 H         1 <1>         0.1002
@<TRIPOS>BOND
     1    1   11 1
     2    1   23 3
     3    2    6 ar
     4    2   13 ar
     5    3    7 ar
     6    3   13 ar
     7    4    8 ar
     8    4   12 ar
     9    5    9 ar
    10    5   12 ar
    11    6   15 ar
    12    7   15 ar
    13    8   16 ar
    14    9   16 ar
    15   10   14 ar
    16   10   17 ar
    17   11   14 ar
    18   11   18 ar
    19   12   14 1
    20   13   17 1
    21   15   19 1
    22   16   26 1
    23   17   24 ar
    24   18   24 ar
    25   18   25 1
    26   20   22 1
    27   21   22 1
    28   22   25 1
    29    2   27 1
    30    3   28 1
    31    4   29 1
    32    5   30 1
    33    6   31 1
    34    7   32 1
    35    8   33 1
    36    9   34 1
    37   10   35 1
    38   19   36 1
    39   19   37 1
    40   19   38 1
    41   20   39 1
    42   20   40 1
    43   20   41 1
    44   21   42 1
    45   21   43 1
    46   21   44 1
    47   22   45 1
