@<TRIPOS>MOLECULE
AG-690/40750127
   42    44     0
SMALL
USER_CHARGE


@<TRIPOS>ATOM
      1 C1          3.0716    2.9063   -2.2631 C.1       1 <1>         0.0363
      2 C2          4.4897   -1.4095    2.3209 C.ar      1 <1>        -0.0751
      3 C3          5.8136   -2.1768    0.4513 C.ar      1 <1>        -0.0725
      4 C4          0.2311    1.0593   -0.3010 C.ar      1 <1>        -0.0667
      5 C5          1.1897    3.2334    0.1365 C.ar      1 <1>        -0.0652
      6 C6          4.9934   -2.4482    3.1038 C.ar      1 <1>        -0.0946
      7 C7          6.3174   -3.2155    1.2342 C.ar      1 <1>        -0.0934
      8 C8         -1.0453    1.5789   -0.0859 C.ar      1 <1>        -0.0561
      9 C9         -0.0866    3.7530    0.3516 C.ar      1 <1>        -0.0556
     10 C10         3.1090    0.3108    0.4050 C.ar      1 <1>        -0.0231
     11 C11         3.5076    1.8360   -1.4115 C.ar      1 <1>         0.0967
     12 C12         1.3488    1.8866   -0.1898 C.ar      1 <1>        -0.0468
     13 C13         4.8999   -1.2738    0.9946 C.ar      1 <1>        -0.0490
     14 C14         2.6729    1.3475   -0.4125 C.ar      1 <1>         0.0092
     15 C15         5.9073   -3.3512    2.5606 C.ar      1 <1>        -0.1086
     16 C16        -1.2043    2.9257    0.2404 C.ar      1 <1>        -0.0143
     17 C17         4.3783   -0.1990    0.1843 C.ar      1 <1>        -0.0130
     18 C18         4.7592    1.2579   -1.5507 C.ar      1 <1>         0.0491
     19 C19         6.4455   -4.4619    3.3976 C.3       1 <1>        -0.0424
     20 C20         5.6871    1.3713   -5.4906 C.3       1 <1>        -0.0417
     21 C21         5.4365    0.7086   -4.1493 C.3       1 <1>         0.0003
     22 N1          2.7191    3.7715   -2.9515 N.1       1 <1>        -0.3784
     23 N2          5.2177    0.2495   -0.7759 N.ar      1 <1>        -0.3593
     24 S1          5.9219    1.8045   -2.8003 S.3       1 <1>        -0.1561
     25 Cl1        -2.7795    3.5657    0.5073 Cl        1 <1>        -0.1813
     26 H1          3.7776   -0.7140    2.7587 H         1 <1>         0.1361
     27 H2          6.1435   -2.0839   -0.5807 H         1 <1>         0.1437
     28 H3          0.3389    0.0074   -0.5546 H         1 <1>         0.1408
     29 H4          2.0513    3.8909    0.2277 H         1 <1>         0.1460
     30 H5          4.6675   -2.5469    4.1359 H         1 <1>         0.1203
     31 H6          7.0294   -3.9142    0.8030 H         1 <1>         0.1204
     32 H7         -1.9076    0.9225   -0.1740 H         1 <1>         0.1470
     33 H8         -0.1956    4.8042    0.6065 H         1 <1>         0.1475
     34 H9          2.4765   -0.0886    1.1931 H         1 <1>         0.1726
     35 H10         5.8077   -5.3499    3.3102 H         1 <1>         0.0616
     36 H11         7.4642   -4.7338    3.0917 H         1 <1>         0.0588
     37 H12         6.4981   -4.1740    4.4558 H         1 <1>         0.0587
     38 H13         5.1225    2.3046   -5.5896 H         1 <1>         0.0485
     39 H14         6.7500    1.5896   -5.6393 H         1 <1>         0.0553
     40 H15         5.3695    0.7056   -6.3001 H         1 <1>         0.0485
     41 H16         6.0094   -0.2203   -4.0724 H         1 <1>         0.0980
     42 H17         4.3757    0.4638   -4.0399 H         1 <1>         0.0980
@<TRIPOS>BOND
     1    1   11 1
     2    1   22 3
     3    2    6 ar
     4    2   13 ar
     5    3    7 ar
     6    3   13 ar
     7    4    8 ar
     8    4   12 ar
     9    5    9 ar
    10    5   12 ar
    11    6   15 ar
    12    7   15 ar
    13    8   16 ar
    14    9   16 ar
    15   10   14 ar
    16   10   17 ar
    17   11   14 ar
    18   11   18 ar
    19   12   14 1
    20   13   17 1
    21   15   19 1
    22   16   25 1
    23   17   23 ar
    24   18   23 ar
    25   18   24 1
    26   20   21 1
    27   21   24 1
    28    2   26 1
    29    3   27 1
    30    4   28 1
    31    5   29 1
    32    6   30 1
    33    7   31 1
    34    8   32 1
    35    9   33 1
    36   10   34 1
    37   19   35 1
    38   19   36 1
    39   19   37 1
    40   20   38 1
    41   20   39 1
    42   20   40 1
    43   21   41 1
    44   21   42 1
