@<TRIPOS>MOLECULE
AG-690/40749461
   40    42     0
SMALL
USER_CHARGE


@<TRIPOS>ATOM
      1 C1          3.0868    2.7707   -2.1326 C.1       1 <1>         0.0355
      2 C2          5.0242   -1.2389    2.5168 C.ar      1 <1>        -0.0549
      3 C3          5.2610   -2.6167    0.5464 C.ar      1 <1>        -0.0628
      4 C4          1.1754    2.8269    0.8185 C.ar      1 <1>        -0.0654
      5 C5          0.2590    1.2179   -0.7333 C.ar      1 <1>        -0.0667
      6 C6          5.5228   -2.2775    3.3030 C.ar      1 <1>        -0.0534
      7 C7          5.7596   -3.6554    1.3327 C.ar      1 <1>        -0.0617
      8 C8         -0.1001    3.3513    1.0281 C.ar      1 <1>        -0.0557
      9 C9         -1.0165    1.7421   -0.5237 C.ar      1 <1>        -0.0561
     10 C10         3.1089    0.1804    0.5406 C.ar      1 <1>        -0.0239
     11 C11         3.5172    1.7008   -1.2776 C.ar      1 <1>         0.0960
     12 C12         1.3551    1.7602   -0.0622 C.ar      1 <1>        -0.0469
     13 C13         4.8932   -1.4085    1.1385 C.ar      1 <1>        -0.0427
     14 C14         2.6782    1.2168   -0.2801 C.ar      1 <1>         0.0086
     15 C15         5.8905   -3.4857    2.7110 C.ar      1 <1>        -0.0353
     16 C16        -1.1959    2.8089    0.3570 C.ar      1 <1>        -0.0145
     17 C17         4.3773   -0.3337    0.3246 C.ar      1 <1>        -0.0128
     18 C18         4.7674    1.1188   -1.4122 C.ar      1 <1>         0.0487
     19 C19         6.4856   -4.2573    4.8804 C.3       1 <1>         0.0114
     20 C20         7.2955    0.5314   -2.2938 C.3       1 <1>         0.0057
     21 N1          2.7388    3.6357   -2.8236 N.1       1 <1>        -0.3790
     22 N2          5.2207    0.1105   -0.6341 N.ar      1 <1>        -0.3602
     23 O1          6.3775   -4.4987    3.4783 O.3       1 <1>        -0.4624
     24 S1          5.9353    1.6595   -2.6595 S.3       1 <1>        -0.1540
     25 Cl1        -2.7691    3.4573    0.6151 Cl        1 <1>        -0.1816
     26 H1          4.7419   -0.3028    2.9928 H         1 <1>         0.1592
     27 H2          5.1649   -2.7644   -0.5266 H         1 <1>         0.1445
     28 H3          2.0199    3.2608    1.3489 H         1 <1>         0.1459
     29 H4          0.3829    0.3868   -1.4238 H         1 <1>         0.1409
     30 H5          5.6227   -2.1393    4.3761 H         1 <1>         0.1466
     31 H6          6.0446   -4.5943    0.8659 H         1 <1>         0.1300
     32 H7         -0.2254    4.1838    1.7159 H         1 <1>         0.1473
     33 H8         -1.8613    1.3103   -1.0544 H         1 <1>         0.1469
     34 H9          2.4729   -0.2156    1.3276 H         1 <1>         0.1714
     35 H10         6.8872   -5.1456    5.3739 H         1 <1>         0.1098
     36 H11         5.5000   -4.0160    5.2866 H         1 <1>         0.1332
     37 H12         7.1615   -3.4148    5.0450 H         1 <1>         0.1098
     38 H13         8.1274    0.7182   -2.9772 H         1 <1>         0.0974
     39 H14         6.9622   -0.5025   -2.4125 H         1 <1>         0.0974
     40 H15         7.6360    0.6816   -1.2665 H         1 <1>         0.1038
@<TRIPOS>BOND
     1    1   11 1
     2    1   21 3
     3    2    6 ar
     4    2   13 ar
     5    3    7 ar
     6    3   13 ar
     7    4    8 ar
     8    4   12 ar
     9    5    9 ar
    10    5   12 ar
    11    6   15 ar
    12    7   15 ar
    13    8   16 ar
    14    9   16 ar
    15   10   14 ar
    16   10   17 ar
    17   11   14 ar
    18   11   18 ar
    19   12   14 1
    20   13   17 1
    21   15   23 1
    22   16   25 1
    23   17   22 ar
    24   18   22 ar
    25   18   24 1
    26   19   23 1
    27   20   24 1
    28    2   26 1
    29    3   27 1
    30    4   28 1
    31    5   29 1
    32    6   30 1
    33    7   31 1
    34    8   32 1
    35    9   33 1
    36   10   34 1
    37   19   35 1
    38   19   36 1
    39   19   37 1
    40   20   38 1
    41   20   39 1
    42   20   40 1
