@<TRIPOS>MOLECULE
AH-487/40652383
   40    43     0
SMALL
USER_CHARGE


@<TRIPOS>ATOM
      1 C1          5.9449   -3.0824    2.2615 C.ar      1 <1>        -0.0897
      2 C2          6.1340   -2.7956    0.9096 C.ar      1 <1>        -0.0809
      3 C3          5.0105   -2.3601    3.0037 C.ar      1 <1>        -0.0804
      4 C4         -0.6708    3.4534    1.2613 C.ar      1 <1>        -0.0740
      5 C5          0.5940    2.8891    1.0965 C.ar      1 <1>        -0.0581
      6 C6          5.3887   -1.7864    0.3001 C.ar      1 <1>        -0.0547
      7 C7          4.2652   -1.3509    2.3940 C.ar      1 <1>        -0.0541
      8 C8         -1.7633    2.9310    0.5689 C.ar      1 <1>        -0.0645
      9 C9         -0.3260    1.2798   -0.4530 C.ar      1 <1>        -0.0408
     10 C10         4.4069    2.4840   -2.6232 C.ar      1 <1>        -0.0027
     11 C11         3.0519    1.5785   -0.8799 C.ar      1 <1>         0.0650
     12 C12         0.7665    1.8023    0.2393 C.ar      1 <1>        -0.0181
     13 C13         3.1994    2.4989   -1.9249 C.ar      1 <1>         0.1061
     14 C14         4.4543   -1.0641    1.0421 C.ar      1 <1>        -0.0085
     15 C15        -1.5908    1.8443   -0.2882 C.ar      1 <1>        -0.0282
     16 C16         2.0743    1.2211    0.0699 C.2       1 <1>         0.0469
     17 C17         5.3876    1.5702   -2.2519 C.ar      1 <1>        -0.0247
     18 C18         4.1095    0.7225   -0.6142 C.ar      1 <1>         0.0571
     19 C19         6.6765    1.5658   -3.0102 C.3       1 <1>        -0.0023
     20 C20         2.1442    3.4785   -2.3202 C.3       1 <1>         0.3536
     21 N1          2.4697    0.2265    0.8715 N.2       1 <1>        -0.3068
     22 N2          5.2923    0.6622   -1.2505 N.ar      1 <1>        -0.3577
     23 N3          3.7095   -0.0555    0.4318 N.pl3     1 <1>        -0.2783
     24 F1          2.5059    4.2784   -3.3658 F         1 <1>        -0.2089
     25 F2          0.9735    2.8922   -2.7069 F         1 <1>        -0.2075
     26 F3          1.8122    4.3280   -1.3056 F         1 <1>        -0.2070
     27 Br1        -3.0712    1.1356   -1.2255 Br        1 <1>        -0.1363
     28 H1          6.5236   -3.8692    2.7363 H         1 <1>         0.1219
     29 H2          6.8605   -3.3586    0.3313 H         1 <1>         0.1300
     30 H3          4.8628   -2.5851    4.0561 H         1 <1>         0.1309
     31 H4         -0.8049    4.2993    1.9293 H         1 <1>         0.1368
     32 H5          1.4359    3.3078    1.6430 H         1 <1>         0.1547
     33 H6          5.5453   -1.5735   -0.7547 H         1 <1>         0.1496
     34 H7          3.5396   -0.7962    2.9840 H         1 <1>         0.1509
     35 H8         -2.7422    3.3824    0.7087 H         1 <1>         0.1453
     36 H9         -0.1907    0.4316   -1.1214 H         1 <1>         0.1616
     37 H10         4.5780    3.1762   -3.4429 H         1 <1>         0.1782
     38 H11         7.3921    2.2510   -2.5429 H         1 <1>         0.1000
     39 H12         7.1161    0.5619   -3.0349 H         1 <1>         0.0981
     40 H13         6.5226    1.8745   -4.0509 H         1 <1>         0.0978
@<TRIPOS>BOND
     1    1    2 ar
     2    1    3 ar
     3    2    6 ar
     4    3    7 ar
     5    4    5 ar
     6    4    8 ar
     7    5   12 ar
     8    6   14 ar
     9    7   14 ar
    10    8   15 ar
    11    9   12 ar
    12    9   15 ar
    13   10   13 ar
    14   10   17 ar
    15   11   13 ar
    16   11   16 1
    17   11   18 ar
    18   12   16 1
    19   13   20 1
    20   14   23 1
    21   15   27 1
    22   16   21 2
    23   17   19 1
    24   17   22 ar
    25   18   22 ar
    26   18   23 1
    27   20   24 1
    28   20   25 1
    29   20   26 1
    30   21   23 1
    31    1   28 1
    32    2   29 1
    33    3   30 1
    34    4   31 1
    35    5   32 1
    36    6   33 1
    37    7   34 1
    38    8   35 1
    39    9   36 1
    40   10   37 1
    41   19   38 1
    42   19   39 1
    43   19   40 1
