@<TRIPOS>MOLECULE
AJ-916/12583063
   36    39     0
SMALL
USER_CHARGE


@<TRIPOS>ATOM
      1 C1         -1.0470    1.8833    0.3393 C.2       1 <1>        -0.0734
      2 C2          5.4394   -2.1628    3.2294 C.ar      1 <1>        -0.0812
      3 C3          5.7067   -3.5981    1.3044 C.ar      1 <1>        -0.0831
      4 C4          5.0248   -1.1233    2.3968 C.ar      1 <1>        -0.0538
      5 C5          5.2921   -2.5586    0.4717 C.ar      1 <1>        -0.0577
      6 C6          0.0881    1.3637   -0.3477 C.2       1 <1>        -0.0566
      7 C7          3.3257    0.3428    0.2500 C.2       1 <1>         0.0217
      8 C8         -0.8666    3.1952    0.7184 C.2       1 <1>        -0.0432
      9 C9          3.3735    1.2735   -0.7470 C.ar      1 <1>         0.0400
     10 C10         5.7804   -3.4002    2.6831 C.ar      1 <1>        -0.1007
     11 C11         4.6619    1.1533   -1.3834 C.ar      1 <1>         0.0502
     12 C12         4.9512   -1.3213    1.0180 C.ar      1 <1>        -0.0178
     13 C13         2.3698    2.1686   -1.0855 C.ar      1 <1>         0.0508
     14 C14         1.0928    2.2986   -0.4676 C.2       1 <1>         0.0027
     15 C15         4.9974    1.9928   -2.4554 C.ar      1 <1>         0.0291
     16 C16         6.2237   -4.5115    3.5733 C.3       1 <1>        -0.0397
     17 C17         6.2745    1.9888   -3.2123 C.3       1 <1>         0.0144
     18 N1          5.3599    0.1766   -0.7791 N.2       1 <1>        -0.3211
     19 N2          2.7243    2.9676   -2.1269 N.ar      1 <1>        -0.2963
     20 N3          4.0200    2.8784   -2.7998 N.ar      1 <1>        -0.3012
     21 N4          4.5373   -0.2830    0.1854 N.pl3     1 <1>        -0.3010
     22 S1          0.6663    3.7954    0.2465 S.3       1 <1>        -0.1518
     23 H1         -1.9503    1.3239    0.5446 H         1 <1>         0.1223
     24 H2          5.4939   -2.0004    4.3025 H         1 <1>         0.1352
     25 H3          5.9709   -4.5586    0.8701 H         1 <1>         0.1345
     26 H4          4.7625   -0.1635    2.8352 H         1 <1>         0.1589
     27 H5          5.2398   -2.7272   -0.6011 H         1 <1>         0.1473
     28 H6          0.1555    0.3536   -0.7329 H         1 <1>         0.1429
     29 H7          2.5712    0.0724    0.9774 H         1 <1>         0.2534
     30 H8         -1.5617    3.8302    1.2495 H         1 <1>         0.1792
     31 H9          5.3622   -5.1077    3.8981 H         1 <1>         0.0635
     32 H10         6.9320   -5.1749    3.0602 H         1 <1>         0.0609
     33 H11         6.7368   -4.1276    4.4647 H         1 <1>         0.0609
     34 H12         6.2162    1.3030   -4.0696 H         1 <1>         0.1048
     35 H13         6.5238    2.9908   -3.5920 H         1 <1>         0.1049
     36 H14         7.1191    1.6757   -2.5804 H         1 <1>         0.1014
@<TRIPOS>BOND
     1    1    6 1
     2    1    8 2
     3    2    4 ar
     4    2   10 ar
     5    3    5 ar
     6    3   10 ar
     7    4   12 ar
     8    5   12 ar
     9    6   14 2
    10    7    9 2
    11    7   21 1
    12    8   22 1
    13    9   11 ar
    14    9   13 ar
    15   10   16 1
    16   11   15 ar
    17   11   18 2
    18   12   21 1
    19   13   14 1
    20   13   19 ar
    21   14   22 1
    22   15   17 1
    23   15   20 ar
    24   18   21 1
    25   19   20 ar
    26    1   23 1
    27    2   24 1
    28    3   25 1
    29    4   26 1
    30    5   27 1
    31    6   28 1
    32    7   29 1
    33    8   30 1
    34   16   31 1
    35   16   32 1
    36   16   33 1
    37   17   34 1
    38   17   35 1
    39   17   36 1
