@<TRIPOS>MOLECULE
AG-927/42926101
   29    31     0
SMALL
USER_CHARGE


@<TRIPOS>ATOM
      1 C1         -1.2744    3.0781    0.1228 C.ar      1 <1>        -0.0951
      2 C2          6.0007   -3.2291    2.3770 C.ar      1 <1>        -0.0880
      3 C3         -0.1075    3.8241    0.2880 C.ar      1 <1>        -0.0898
      4 C4         -1.1966    1.7085   -0.1298 C.ar      1 <1>        -0.0895
      5 C5          5.7611   -3.3441    1.0077 C.ar      1 <1>        -0.0790
      6 C6          5.5891   -2.0868    3.0636 C.ar      1 <1>        -0.0805
      7 C7          1.1373    3.2005    0.2005 C.ar      1 <1>        -0.0698
      8 C8          0.0479    1.0849   -0.2174 C.ar      1 <1>        -0.0695
      9 C9          5.1101   -2.3166    0.3250 C.ar      1 <1>        -0.0545
     10 C10         4.9381   -1.0594    2.3809 C.ar      1 <1>        -0.0572
     11 C11         1.2149    1.8309   -0.0521 C.ar      1 <1>        -0.0299
     12 C12         4.6986   -1.1742    1.0116 C.ar      1 <1>        -0.0112
     13 C13         3.5348    1.4704   -1.0501 C.2       1 <1>         0.0929
     14 C14         2.4963    1.1888   -0.1424 C.2       1 <1>         0.0494
     15 C15         4.5305    0.5846   -0.7182 C.2       1 <1>         0.1156
     16 N1          2.8036    0.2009    0.7025 N.2       1 <1>        -0.3125
     17 N2          4.0466   -0.1457    0.3271 N.pl3     1 <1>        -0.2718
     18 Cl1         3.5377    2.6452   -2.2722 Cl        1 <1>        -0.1226
     19 Cl2         6.0808    0.3193   -1.3618 Cl        1 <1>        -0.0685
     20 H1         -2.2436    3.5633    0.1920 H         1 <1>         0.1196
     21 H2          6.5060   -4.0296    2.9094 H         1 <1>         0.1256
     22 H3         -0.1678    4.8902    0.4859 H         1 <1>         0.1211
     23 H4         -2.1055    1.1277   -0.2572 H         1 <1>         0.1221
     24 H5          6.0803   -4.2339    0.4731 H         1 <1>         0.1334
     25 H6          5.7747   -1.9986    4.1302 H         1 <1>         0.1326
     26 H7          2.0379    3.7959    0.3318 H         1 <1>         0.1382
     27 H8          0.0916    0.0163   -0.4148 H         1 <1>         0.1390
     28 H9          4.9289   -2.4192   -0.7423 H         1 <1>         0.1536
     29 H10         4.6220   -0.1747    2.9284 H         1 <1>         0.1464
@<TRIPOS>BOND
     1    1    3 ar
     2    1    4 ar
     3    2    5 ar
     4    2    6 ar
     5    3    7 ar
     6    4    8 ar
     7    5    9 ar
     8    6   10 ar
     9    7   11 ar
    10    8   11 ar
    11    9   12 ar
    12   10   12 ar
    13   11   14 1
    14   12   17 1
    15   13   14 1
    16   13   15 2
    17   13   18 1
    18   14   16 2
    19   15   17 1
    20   15   19 1
    21   16   17 1
    22    1   20 1
    23    2   21 1
    24    3   22 1
    25    4   23 1
    26    5   24 1
    27    6   25 1
    28    7   26 1
    29    8   27 1
    30    9   28 1
    31   10   29 1
