@<TRIPOS>MOLECULE
AG-690/40749470
   46    48     0
SMALL
USER_CHARGE


@<TRIPOS>ATOM
      1 C1          3.0872    2.7708   -2.1330 C.1       1 <1>         0.0356
      2 C2          5.0239   -1.2387    2.5167 C.ar      1 <1>        -0.0629
      3 C3          5.2608   -2.6166    0.5463 C.ar      1 <1>        -0.0549
      4 C4          0.2354    0.9365   -0.1758 C.ar      1 <1>        -0.0668
      5 C5          1.1993    3.1085    0.2603 C.ar      1 <1>        -0.0654
      6 C6          5.5224   -2.2773    3.3030 C.ar      1 <1>        -0.0618
      7 C7          5.7594   -3.6553    1.3327 C.ar      1 <1>        -0.0536
      8 C8         -1.0401    1.4603    0.0346 C.ar      1 <1>        -0.0562
      9 C9         -0.0761    3.6323    0.4707 C.ar      1 <1>        -0.0557
     10 C10         3.1089    0.1806    0.5402 C.ar      1 <1>        -0.0239
     11 C11         3.5175    1.7010   -1.2779 C.ar      1 <1>         0.0966
     12 C12         1.3552    1.7606   -0.0628 C.ar      1 <1>        -0.0470
     13 C13         4.8931   -1.4084    1.1384 C.ar      1 <1>        -0.0426
     14 C14         2.6784    1.2170   -0.2805 C.ar      1 <1>         0.0088
     15 C15         5.8901   -3.4855    2.7110 C.ar      1 <1>        -0.0354
     16 C16        -1.1959    2.8082    0.3578 C.ar      1 <1>        -0.0145
     17 C17         4.3773   -0.3336    0.3244 C.ar      1 <1>        -0.0123
     18 C18         4.7677    1.1189   -1.4123 C.ar      1 <1>         0.0494
     19 C19         8.2029    0.4074   -3.5120 C.3       1 <1>        -0.0445
     20 C20         8.0646    1.0308   -1.0762 C.3       1 <1>        -0.0429
     21 C21         6.7338   -5.7070    2.8087 C.3       1 <1>         0.0114
     22 C22         7.2958    0.5313   -2.2936 C.3       1 <1>        -0.0050
     23 N1          2.7394    3.6359   -2.8240 N.1       1 <1>        -0.3793
     24 N2          5.2208    0.1105   -0.6342 N.ar      1 <1>        -0.3588
     25 O1          6.3769   -4.4985    3.4784 O.3       1 <1>        -0.4625
     26 S1          5.9359    1.6595   -2.6596 S.3       1 <1>        -0.1576
     27 Cl1        -2.7700    3.4535    0.6188 Cl        1 <1>        -0.1816
     28 H1          4.7416   -0.3027    2.9926 H         1 <1>         0.1443
     29 H2          5.1650   -2.7643   -0.5267 H         1 <1>         0.1593
     30 H3          0.3407   -0.1164   -0.4269 H         1 <1>         0.1407
     31 H4          2.0626    3.7635    0.3529 H         1 <1>         0.1458
     32 H5          5.6222   -2.1392    4.3762 H         1 <1>         0.1299
     33 H6          6.0444   -4.5942    0.8661 H         1 <1>         0.1463
     34 H7         -1.9041    0.8064   -0.0548 H         1 <1>         0.1468
     35 H8         -0.1827    4.6844    0.7231 H         1 <1>         0.1472
     36 H9          2.4728   -0.2154    1.3272 H         1 <1>         0.1709
     37 H10         8.6484    1.3786   -3.7551 H         1 <1>         0.0441
     38 H11         9.0263   -0.2914   -3.3266 H         1 <1>         0.0472
     39 H12         7.6544    0.0663   -4.3973 H         1 <1>         0.0538
     40 H13         8.5080    2.0115   -1.2819 H         1 <1>         0.0492
     41 H14         8.8836    0.3512   -0.8153 H         1 <1>         0.0559
     42 H15         7.4157    1.1403   -0.1997 H         1 <1>         0.0491
     43 H16         7.1072   -6.4313    3.5367 H         1 <1>         0.1097
     44 H17         7.5024   -5.4968    2.0607 H         1 <1>         0.1097
     45 H18         5.8485   -6.1140    2.3143 H         1 <1>         0.1332
     46 H19         6.8613   -0.4483   -2.0677 H         1 <1>         0.1004
@<TRIPOS>BOND
     1    1   11 1
     2    1   23 3
     3    2    6 ar
     4    2   13 ar
     5    3    7 ar
     6    3   13 ar
     7    4    8 ar
     8    4   12 ar
     9    5    9 ar
    10    5   12 ar
    11    6   15 ar
    12    7   15 ar
    13    8   16 ar
    14    9   16 ar
    15   10   14 ar
    16   10   17 ar
    17   11   14 ar
    18   11   18 ar
    19   12   14 1
    20   13   17 1
    21   15   25 1
    22   16   27 1
    23   17   24 ar
    24   18   24 ar
    25   18   26 1
    26   19   22 1
    27   20   22 1
    28   21   25 1
    29   22   26 1
    30    2   28 1
    31    3   29 1
    32    4   30 1
    33    5   31 1
    34    6   32 1
    35    7   33 1
    36    8   34 1
    37    9   35 1
    38   10   36 1
    39   19   37 1
    40   19   38 1
    41   19   39 1
    42   20   40 1
    43   20   41 1
    44   20   42 1
    45   21   43 1
    46   21   44 1
    47   21   45 1
    48   22   46 1
