@<TRIPOS>MOLECULE
AI-060/41884474
   39    42     0
SMALL
USER_CHARGE


@<TRIPOS>ATOM
      1 C1          5.0696   -1.1964    2.4465 C.ar      1 <1>        -0.0711
      2 C2          5.3256   -2.6156    0.5082 C.ar      1 <1>        -0.0762
      3 C3          1.3899    2.9200    0.5978 C.ar      1 <1>        -0.0614
      4 C4          0.4709    1.3071   -0.9487 C.ar      1 <1>        -0.0690
      5 C5          5.5097   -2.2359    3.2657 C.ar      1 <1>        -0.0949
      6 C6          5.7659   -3.6552    1.3274 C.ar      1 <1>        -0.0979
      7 C7          0.1194    3.4644    0.7849 C.ar      1 <1>        -0.0568
      8 C8         -0.7996    1.8516   -0.7616 C.ar      1 <1>        -0.0625
      9 C9          3.2634    0.2448    0.3875 C.ar      1 <1>        -0.0358
     10 C10         1.5655    1.8413   -0.2690 C.ar      1 <1>        -0.0498
     11 C11         4.9774   -1.3862    1.0676 C.ar      1 <1>        -0.0480
     12 C12         2.8867    1.2756   -0.4641 C.ar      1 <1>        -0.0085
     13 C13         3.7803    1.7049   -1.4417 C.ar      1 <1>         0.0580
     14 C14         5.8579   -3.4653    2.7063 C.ar      1 <1>        -0.1117
     15 C15        -0.9753    2.9302    0.1053 C.ar      1 <1>        -0.0216
     16 C16         4.5215   -0.3102    0.2196 C.ar      1 <1>        -0.0124
     17 C17         5.0278    1.0923   -1.5428 C.ar      1 <1>         0.0512
     18 C18         3.4400    2.7946   -2.3755 C.2       1 <1>         0.1070
     19 C19         5.6631    2.4356   -3.3186 C.2       1 <1>        -0.0322
     20 C20         6.3283   -4.5767    3.5823 C.3       1 <1>        -0.0450
     21 N1          5.4093    0.0869   -0.7212 N.ar      1 <1>        -0.3519
     22 N2          5.9793    1.4759   -2.5062 N.2       1 <1>        -0.3569
     23 N3          4.4448    3.0927   -3.2815 N.am      1 <1>        -0.2831
     24 O1          2.3685    3.3882   -2.3610 O.2       1 <1>        -0.5053
     25 S1          6.9256    2.8796   -4.5275 S.3       1 <1>        -0.3382
     26 Cl1        -2.5425    3.6036    0.3357 Cl        1 <1>        -0.1943
     27 H1          4.8011   -0.2441    2.8978 H         1 <1>         0.1484
     28 H2          5.2599   -2.7788   -0.5650 H         1 <1>         0.1340
     29 H3          2.2333    3.3474    1.1346 H         1 <1>         0.1550
     30 H4          0.5919    0.4670   -1.6285 H         1 <1>         0.1386
     31 H5          5.5772   -2.0794    4.3391 H         1 <1>         0.1171
     32 H6          6.0356   -4.6097    0.8829 H         1 <1>         0.1139
     33 H7         -0.0032    4.3061    1.4621 H         1 <1>         0.1410
     34 H8         -1.6435    1.4260   -1.2986 H         1 <1>         0.1347
     35 H9          2.5940   -0.1193    1.1625 H         1 <1>         0.1472
     36 H10         5.4792   -5.1859    3.9158 H         1 <1>         0.0552
     37 H11         7.0371   -5.2277    3.0541 H         1 <1>         0.0571
     38 H12         6.8501   -4.1923    4.4684 H         1 <1>         0.0571
     39 H13         4.2783    3.8327   -3.9570 H         1 <1>         0.3688
@<TRIPOS>BOND
     1    1    5 ar
     2    1   11 ar
     3    2    6 ar
     4    2   11 ar
     5    3    7 ar
     6    3   10 ar
     7    4    8 ar
     8    4   10 ar
     9    5   14 ar
    10    6   14 ar
    11    7   15 ar
    12    8   15 ar
    13    9   12 ar
    14    9   16 ar
    15   10   12 1
    16   11   16 1
    17   12   13 ar
    18   13   17 ar
    19   13   18 1
    20   14   20 1
    21   15   26 1
    22   16   21 ar
    23   17   21 ar
    24   17   22 1
    25   18   23 am
    26   18   24 2
    27   19   22 2
    28   19   23 1
    29   19   25 1
    30    1   27 1
    31    2   28 1
    32    3   29 1
    33    4   30 1
    34    5   31 1
    35    6   32 1
    36    7   33 1
    37    8   34 1
    38    9   35 1
    39   20   36 1
    40   20   37 1
    41   20   38 1
    42   23   39 1
