@<TRIPOS>MOLECULE
AF-399/15336046
   26    29     0
SMALL
USER_CHARGE


@<TRIPOS>ATOM
      1 C1         -1.3780    2.6197    0.6608 C.ar      1 <1>        -0.0994
      2 C2         -0.4639    3.6732    0.6554 C.ar      1 <1>        -0.0982
      3 C3         -1.0287    1.3903    0.1020 C.ar      1 <1>        -0.0949
      4 C4          0.7997    3.4974    0.0912 C.ar      1 <1>        -0.0889
      5 C5          0.2348    1.2144   -0.4622 C.ar      1 <1>        -0.0856
      6 C6          2.8601    2.8711   -2.1084 C.2       1 <1>         0.0049
      7 C7          4.3814   -1.4155    1.4514 C.2       1 <1>         0.0720
      8 C8          1.1490    2.2679   -0.4676 C.ar      1 <1>        -0.0675
      9 C9          2.4524    2.0862   -1.0499 C.2       1 <1>        -0.0138
     10 C10         3.4633    1.1688   -0.6942 C.2       1 <1>         0.0384
     11 C11         4.6139    1.2551   -1.4641 C.2       1 <1>         0.0580
     12 C12         3.4943    0.1996    0.2956 C.2       1 <1>         0.0783
     13 C13         5.7388   -0.4035   -0.4040 C.2       1 <1>         0.0640
     14 N1          3.1736   -1.1868    1.9284 N.2       1 <1>        -0.2857
     15 N2          2.6065   -0.1556    1.1911 N.2       1 <1>        -0.2819
     16 N3          5.7551    0.4972   -1.3506 N.2       1 <1>        -0.3212
     17 N4          4.6256   -0.5633    0.4205 N.pl3     1 <1>        -0.2605
     18 S1          4.4465    2.4843   -2.6432 S.3       1 <1>        -0.0915
     19 H1         -2.3615    2.7562    1.1009 H         1 <1>         0.1147
     20 H2         -0.7353    4.6301    1.0915 H         1 <1>         0.1143
     21 H3         -1.7401    0.5698    0.1074 H         1 <1>         0.1189
     22 H4          1.5012    4.3283    0.0948 H         1 <1>         0.1232
     23 H5          0.4919    0.2498   -0.8937 H         1 <1>         0.1282
     24 H6          2.3118    3.6612   -2.6041 H         1 <1>         0.2159
     25 H7          5.0868   -2.1545    1.8032 H         1 <1>         0.3148
     26 H8          6.6105   -1.0568   -0.2397 H         1 <1>         0.3438
@<TRIPOS>BOND
     1    1    2 ar
     2    1    3 ar
     3    2    4 ar
     4    3    5 ar
     5    4    8 ar
     6    5    8 ar
     7    6    9 2
     8    6   18 1
     9    7   14 2
    10    7   17 1
    11    8    9 1
    12    9   10 1
    13   10   11 2
    14   10   12 1
    15   11   16 1
    16   11   18 1
    17   12   15 2
    18   12   17 1
    19   13   16 2
    20   13   17 1
    21   14   15 1
    22    1   19 1
    23    2   20 1
    24    3   21 1
    25    4   22 1
    26    5   23 1
    27    6   24 1
    28    7   25 1
    29   13   26 1
