@<TRIPOS>MOLECULE
AG-690/12404942
   38    41     0
SMALL
USER_CHARGE


@<TRIPOS>ATOM
      1 C1          4.5996   -1.4975    2.4213 C.ar      1 <1>        -0.0674
      2 C2          5.8270   -2.2984    0.5006 C.ar      1 <1>        -0.0715
      3 C3         -0.1716    1.0565   -0.1394 C.ar      1 <1>        -0.0773
      4 C4          1.2168    3.0321   -0.0625 C.ar      1 <1>        -0.0742
      5 C5          5.1229   -2.5377    3.1895 C.ar      1 <1>        -0.0900
      6 C6          6.3504   -3.3385    1.2687 C.ar      1 <1>        -0.0923
      7 C7         -1.2863    1.8270    0.1909 C.ar      1 <1>        -0.0683
      8 C8          0.1020    3.8027    0.2679 C.ar      1 <1>        -0.0666
      9 C9          4.1466    2.7780   -2.8233 C.2       1 <1>         0.0555
     10 C10         4.9516   -1.3779    1.0770 C.ar      1 <1>        -0.0413
     11 C11         1.0800    1.6591   -0.2661 C.ar      1 <1>        -0.0632
     12 C12         5.9983   -3.4581    2.6131 C.ar      1 <1>        -0.1059
     13 C13        -1.1496    3.2000    0.3945 C.ar      1 <1>        -0.0374
     14 C14         4.6022    1.2395   -1.4519 C.2       1 <1>         0.0749
     15 C15         4.3933   -0.2661    0.2550 C.2       1 <1>         0.0005
     16 C16         3.0070    0.2706    0.6131 C.3       1 <1>         0.0394
     17 C17         2.2900    0.8228   -0.6245 C.3       1 <1>         0.0592
     18 C18         6.5584   -4.5695    3.4352 C.3       1 <1>        -0.0407
     19 N1          5.1839    2.0405   -2.3263 N.2       1 <1>        -0.3131
     20 N2          2.9434    2.4935   -2.3244 N.2       1 <1>        -0.3214
     21 N3          5.1214    0.2331   -0.7028 N.2       1 <1>        -0.3242
     22 N4          3.2640    1.5469   -1.4309 N.pl3     1 <1>        -0.2910
     23 Br1        -2.6604    4.2431    0.8427 Br        1 <1>        -0.1384
     24 H1          3.9184   -0.7856    2.8800 H         1 <1>         0.1513
     25 H2          6.1083   -2.2151   -0.5460 H         1 <1>         0.1396
     26 H3         -0.2875   -0.0127   -0.2965 H         1 <1>         0.1308
     27 H4          2.1883    3.5101   -0.1581 H         1 <1>         0.1402
     28 H5          4.8435   -2.6230    4.2361 H         1 <1>         0.1242
     29 H6          7.0321   -4.0509    0.8117 H         1 <1>         0.1226
     30 H7         -2.2543    1.3416    0.2867 H         1 <1>         0.1417
     31 H8          0.2255    4.8712    0.4230 H         1 <1>         0.1437
     32 H9          4.2736    3.5451   -3.5726 H         1 <1>         0.3095
     33 H10         2.4459   -0.5873    0.9930 H         1 <1>         0.1377
     34 H11         3.0759    1.0102    1.4101 H         1 <1>         0.1426
     35 H12         1.9328   -0.0445   -1.2466 H         1 <1>         0.1861
     36 H13         5.9047   -5.4488    3.3846 H         1 <1>         0.0637
     37 H14         7.5581   -4.8586    3.0858 H         1 <1>         0.0606
     38 H15         6.6629   -4.2732    4.4871 H         1 <1>         0.0604
@<TRIPOS>BOND
     1    1    5 ar
     2    1   10 ar
     3    2    6 ar
     4    2   10 ar
     5    3    7 ar
     6    3   11 ar
     7    4    8 ar
     8    4   11 ar
     9    5   12 ar
    10    6   12 ar
    11    7   13 ar
    12    8   13 ar
    13    9   19 1
    14    9   20 2
    15   10   15 1
    16   11   17 1
    17   12   18 1
    18   13   23 1
    19   14   19 2
    20   14   21 1
    21   14   22 1
    22   15   16 1
    23   15   21 2
    24   16   17 1
    25   17   22 1
    26   20   22 1
    27    1   24 1
    28    2   25 1
    29    3   26 1
    30    4   27 1
    31    5   28 1
    32    6   29 1
    33    7   30 1
    34    8   31 1
    35    9   32 1
    36   16   33 1
    37   16   34 1
    38   17   35 1
    39   18   36 1
    40   18   37 1
    41   18   38 1
