@<TRIPOS>MOLECULE
AE-641/00376063
   31    33     0
SMALL
USER_CHARGE


@<TRIPOS>ATOM
      1 C1         -1.1946    3.0918    0.0607 C.ar      1 <1>        -0.0985
      2 C2          6.0344   -3.2868    2.4153 C.ar      1 <1>        -0.0921
      3 C3         -0.0688    3.7842   -0.3848 C.ar      1 <1>        -0.0929
      4 C4         -1.0845    1.7556    0.4457 C.ar      1 <1>        -0.0929
      5 C5          5.7943   -3.4024    1.0461 C.ar      1 <1>        -0.0820
      6 C6          5.6260   -2.1427    3.1008 C.ar      1 <1>        -0.0848
      7 C7          1.1672    3.1404   -0.4456 C.ar      1 <1>        -0.0750
      8 C8          0.1514    1.1118    0.3850 C.ar      1 <1>        -0.0752
      9 C9          5.1459   -2.3740    0.3624 C.ar      1 <1>        -0.0587
     10 C10         4.9777   -1.1142    2.4172 C.ar      1 <1>        -0.0632
     11 C11         3.5956    1.4119   -1.0255 C.2       1 <1>        -0.0337
     12 C12         1.2773    1.8042   -0.0606 C.ar      1 <1>        -0.0480
     13 C13         4.7376   -1.2298    1.0480 C.ar      1 <1>        -0.0259
     14 C14         2.5495    1.1411   -0.1232 C.2       1 <1>        -0.0070
     15 C15         4.5837    0.5215   -0.6829 C.2       1 <1>        -0.0129
     16 N1          2.8454    0.1556    0.7285 N.2       1 <1>        -0.3508
     17 N2          4.0885   -0.2006    0.3628 N.pl3     1 <1>        -0.3206
     18 N3          5.8156    0.3072   -1.1921 N.pl3     1 <1>        -0.3419
     19 H1         -2.1568    3.5932    0.1091 H         1 <1>         0.1146
     20 H2          6.5375   -4.0881    2.9483 H         1 <1>         0.1191
     21 H3         -0.1539    4.8249   -0.6834 H         1 <1>         0.1173
     22 H4         -1.9611    1.2171    0.7937 H         1 <1>         0.1178
     23 H5          6.1110   -4.2938    0.5124 H         1 <1>         0.1304
     24 H6          5.8122   -2.0541    4.1673 H         1 <1>         0.1280
     25 H7          2.0357    3.6939   -0.7952 H         1 <1>         0.1363
     26 H8          0.2205    0.0698    0.6887 H         1 <1>         0.1354
     27 H9          4.9642   -2.4771   -0.7046 H         1 <1>         0.1496
     28 H10         4.6641   -0.2282    2.9639 H         1 <1>         0.1383
     29 H11         3.6317    2.1490   -1.8151 H         1 <1>         0.1437
     30 H12         6.1664    0.8218   -2.0133 H         1 <1>         0.2567
     31 H13         6.4287   -0.4452   -0.8450 H         1 <1>         0.2689
@<TRIPOS>BOND
     1    1    3 ar
     2    1    4 ar
     3    2    5 ar
     4    2    6 ar
     5    3    7 ar
     6    4    8 ar
     7    5    9 ar
     8    6   10 ar
     9    7   12 ar
    10    8   12 ar
    11    9   13 ar
    12   10   13 ar
    13   11   14 1
    14   11   15 2
    15   12   14 1
    16   13   17 1
    17   14   16 2
    18   15   17 1
    19   15   18 1
    20   16   17 1
    21    1   19 1
    22    2   20 1
    23    3   21 1
    24    4   22 1
    25    5   23 1
    26    6   24 1
    27    7   25 1
    28    8   26 1
    29    9   27 1
    30   10   28 1
    31   11   29 1
    32   18   30 1
    33   18   31 1
