@<TRIPOS>MOLECULE
AE-842/32998057
   41    44     0
SMALL
USER_CHARGE


@<TRIPOS>ATOM
      1 C1         -1.3095    3.0611    0.1079 C.ar      1 <1>        -0.0967
      2 C2         -0.2077    3.7804   -0.3550 C.ar      1 <1>        -0.0914
      3 C3         -1.1565    1.7351    0.5130 C.ar      1 <1>        -0.0919
      4 C4          1.0471    3.1738   -0.4128 C.ar      1 <1>        -0.0743
      5 C5          0.0982    1.1286    0.4553 C.ar      1 <1>        -0.0751
      6 C6          5.0946   -2.3106    0.3801 C.ar      1 <1>        -0.0550
      7 C7          5.0041   -1.0748    2.4542 C.ar      1 <1>        -0.0545
      8 C8          5.6681   -3.3918    1.0493 C.ar      1 <1>        -0.0515
      9 C9          5.5775   -2.1560    3.1234 C.ar      1 <1>        -0.0512
     10 C10         1.2001    1.8479   -0.0076 C.ar      1 <1>        -0.0504
     11 C11         4.7627   -1.1521    1.0826 C.ar      1 <1>        -0.0388
     12 C12         5.9094   -3.3144    2.4210 C.ar      1 <1>        -0.0166
     13 C13         2.5233    1.2081   -0.0686 C.2       1 <1>        -0.0257
     14 C14         4.6570    2.1041   -3.2388 C.3       1 <1>        -0.0548
     15 C15         5.7276    1.0381   -2.9382 C.3       1 <1>        -0.0544
     16 C16         3.3060    1.8474   -2.5457 C.3       1 <1>        -0.0382
     17 C17         5.8137    0.6394   -1.4520 C.3       1 <1>        -0.0378
     18 C18         3.5753    1.5775   -1.0809 C.3       1 <1>         0.0044
     19 C19         4.4118    0.2943   -0.9785 C.3       1 <1>         0.0041
     20 N1          2.9282    0.3282    0.8020 N.2       1 <1>        -0.3693
     21 N2          4.1918   -0.0715    0.4127 N.pl3     1 <1>        -0.3559
     22 Cl1         6.6168   -4.6486    3.2463 Cl        1 <1>        -0.1916
     23 H1         -2.2864    3.5335    0.1527 H         1 <1>         0.1178
     24 H2         -0.3270    4.8127   -0.6707 H         1 <1>         0.1199
     25 H3         -2.0144    1.1752    0.8737 H         1 <1>         0.1197
     26 H4          1.8988    3.7437   -0.7752 H         1 <1>         0.1378
     27 H5          0.2056    0.0948    0.7735 H         1 <1>         0.1358
     28 H6          4.9117   -2.3807   -0.6890 H         1 <1>         0.1480
     29 H7          4.7507   -0.1760    3.0107 H         1 <1>         0.1493
     30 H8          5.9232   -4.2873    0.4886 H         1 <1>         0.1488
     31 H9          5.7614   -2.0803    4.1922 H         1 <1>         0.1486
     32 H10         5.0389    3.0780   -2.9061 H         1 <1>         0.0426
     33 H11         4.5072    2.1809   -4.3217 H         1 <1>         0.0453
     34 H12         5.4963    0.1410   -3.5269 H         1 <1>         0.0474
     35 H13         6.7062    1.3931   -3.2810 H         1 <1>         0.0438
     36 H14         2.6544    2.7199   -2.6645 H         1 <1>         0.0584
     37 H15         2.7905    1.0013   -3.0157 H         1 <1>         0.0601
     38 H16         6.4835   -0.2202   -1.3384 H         1 <1>         0.0621
     39 H17         6.2440    1.4578   -0.8624 H         1 <1>         0.0631
     40 H18         4.1073    2.4355   -0.6415 H         1 <1>         0.1061
     41 H19         3.9883   -0.4981   -1.6152 H         1 <1>         0.1120
@<TRIPOS>BOND
     1    1    2 ar
     2    1    3 ar
     3    2    4 ar
     4    3    5 ar
     5    4   10 ar
     6    5   10 ar
     7    6    8 ar
     8    6   11 ar
     9    7    9 ar
    10    7   11 ar
    11    8   12 ar
    12    9   12 ar
    13   10   13 1
    14   11   21 1
    15   12   22 1
    16   13   18 1
    17   13   20 2
    18   14   15 1
    19   14   16 1
    20   15   17 1
    21   16   18 1
    22   17   19 1
    23   18   19 1
    24   19   21 1
    25   20   21 1
    26    1   23 1
    27    2   24 1
    28    3   25 1
    29    4   26 1
    30    5   27 1
    31    6   28 1
    32    7   29 1
    33    8   30 1
    34    9   31 1
    35   14   32 1
    36   14   33 1
    37   15   34 1
    38   15   35 1
    39   16   36 1
    40   16   37 1
    41   17   38 1
    42   17   39 1
    43   18   40 1
    44   19   41 1
