@<TRIPOS>MOLECULE
AE-842/31985041
   42    46     0
SMALL
USER_CHARGE


@<TRIPOS>ATOM
      1 C1         -1.2985    2.9507    0.1287 C.ar      1 <1>        -0.0954
      2 C2          5.8442   -3.4925    2.4543 C.ar      1 <1>        -0.1023
      3 C3         -0.2028    3.6157   -0.4215 C.ar      1 <1>        -0.0902
      4 C4         -1.1344    1.6875    0.6970 C.ar      1 <1>        -0.0906
      5 C5          5.7540   -3.4046    1.0652 C.ar      1 <1>        -0.0930
      6 C6          5.4094   -2.4327    3.2500 C.ar      1 <1>        -0.0922
      7 C7          1.0571    3.0174   -0.4035 C.ar      1 <1>        -0.0725
      8 C8          0.1254    1.0892    0.7150 C.ar      1 <1>        -0.0734
      9 C9          5.2289   -2.2567    0.4717 C.ar      1 <1>        -0.0759
     10 C10         4.8845   -1.2846    2.6566 C.ar      1 <1>        -0.0745
     11 C11         1.2213    1.7541    0.1648 C.ar      1 <1>        -0.0488
     12 C12         4.7942   -1.1967    1.2674 C.ar      1 <1>        -0.0517
     13 C13         2.5281    1.1335    0.1833 C.2       1 <1>        -0.0259
     14 C14         5.0844    2.4208   -2.4600 C.3       1 <1>        -0.0535
     15 C15         6.0731    1.3499   -1.9186 C.3       1 <1>        -0.0532
     16 C16         4.1989    0.3496   -2.9946 C.3       1 <1>        -0.0457
     17 C17         3.5587    1.3964   -0.8763 C.3       1 <1>         0.0040
     18 C18         3.7248    1.6769   -2.3700 C.3       1 <1>        -0.0342
     19 C19         5.2259    0.0578   -1.8662 C.3       1 <1>        -0.0350
     20 C20         4.1930    0.0036   -0.7561 C.3       1 <1>         0.0065
     21 N1          3.0254    0.3927    1.1473 N.2       1 <1>        -0.3708
     22 N2          4.2743   -0.0599    0.6802 N.pl3     1 <1>        -0.3592
     23 H1         -2.2794    3.4167    0.1146 H         1 <1>         0.1196
     24 H2          6.2533   -4.3865    2.9164 H         1 <1>         0.1017
     25 H3         -0.3308    4.5992   -0.8642 H         1 <1>         0.1208
     26 H4         -1.9875    1.1699    1.1257 H         1 <1>         0.1209
     27 H5          6.0925   -4.2297    0.4458 H         1 <1>         0.1200
     28 H6          5.4798   -2.5014    4.3318 H         1 <1>         0.1203
     29 H7          1.9041    3.5445   -0.8351 H         1 <1>         0.1400
     30 H8          0.2416    0.1045    1.1604 H         1 <1>         0.1373
     31 H9          5.1631   -2.1979   -0.6116 H         1 <1>         0.1275
     32 H10         4.5485   -0.4651    3.2867 H         1 <1>         0.1308
     33 H11         5.1179    3.3467   -1.8765 H         1 <1>         0.0478
     34 H12         5.3244    2.6738   -3.4999 H         1 <1>         0.0439
     35 H13         6.9139    1.2425   -2.6124 H         1 <1>         0.0458
     36 H14         6.4707    1.6140   -0.9335 H         1 <1>         0.0495
     37 H15         3.3972   -0.3921   -3.0826 H         1 <1>         0.0588
     38 H16         4.6677    0.4670   -3.9787 H         1 <1>         0.0538
     39 H17         4.1484    2.1683   -0.3470 H         1 <1>         0.0987
     40 H18         2.8964    2.1812   -2.8672 H         1 <1>         0.0824
     41 H19         5.8009   -0.8616   -1.9892 H         1 <1>         0.0784
     42 H20         3.4763   -0.7926   -1.0340 H         1 <1>         0.1293
@<TRIPOS>BOND
     1    1    3 ar
     2    1    4 ar
     3    2    5 ar
     4    2    6 ar
     5    3    7 ar
     6    4    8 ar
     7    5    9 ar
     8    6   10 ar
     9    7   11 ar
    10    8   11 ar
    11    9   12 ar
    12   10   12 ar
    13   11   13 1
    14   12   22 1
    15   13   17 1
    16   13   21 2
    17   14   15 1
    18   14   18 1
    19   15   19 1
    20   16   18 1
    21   16   19 1
    22   17   18 1
    23   17   20 1
    24   19   20 1
    25   20   22 1
    26   21   22 1
    27    1   23 1
    28    2   24 1
    29    3   25 1
    30    4   26 1
    31    5   27 1
    32    6   28 1
    33    7   29 1
    34    8   30 1
    35    9   31 1
    36   10   32 1
    37   14   33 1
    38   14   34 1
    39   15   35 1
    40   15   36 1
    41   16   37 1
    42   16   38 1
    43   17   39 1
    44   18   40 1
    45   19   41 1
    46   20   42 1
