@<TRIPOS>MOLECULE
AG-927/42926100
   32    34     0
SMALL
USER_CHARGE


@<TRIPOS>ATOM
      1 C1         -1.2720    3.1048    0.0945 C.ar      1 <1>        -0.0980
      2 C2          6.0317   -3.2306    2.3616 C.ar      1 <1>        -0.0913
      3 C3         -0.1530    3.8071   -0.3534 C.ar      1 <1>        -0.0927
      4 C4         -1.1515    1.7669    0.4699 C.ar      1 <1>        -0.0928
      5 C5          5.7831   -3.3403    0.9935 C.ar      1 <1>        -0.0824
      6 C6          5.6137   -2.0964    3.0577 C.ar      1 <1>        -0.0838
      7 C7          1.0862    3.1713   -0.4261 C.ar      1 <1>        -0.0761
      8 C8          0.0879    1.1310    0.3973 C.ar      1 <1>        -0.0758
      9 C9          5.1166   -2.3156    0.3214 C.ar      1 <1>        -0.0607
     10 C10         4.9474   -1.0717    2.3856 C.ar      1 <1>        -0.0629
     11 C11         3.5223    1.4604   -1.0318 C.2       1 <1>        -0.0447
     12 C12         1.2068    1.8331   -0.0506 C.ar      1 <1>        -0.0502
     13 C13         4.6988   -1.1814    1.0174 C.ar      1 <1>        -0.0315
     14 C14         2.4826    1.1783   -0.1255 C.2       1 <1>        -0.0129
     15 C15         4.5174    0.5738   -0.6996 C.2       1 <1>        -0.0449
     16 C16         5.8590    0.3755   -1.2826 C.3       1 <1>        -0.0122
     17 N1          2.7889    0.1897    0.7189 N.2       1 <1>        -0.3564
     18 N2          4.0320   -0.1572    0.3447 N.pl3     1 <1>        -0.3328
     19 H1         -2.2369    3.6001    0.1522 H         1 <1>         0.1157
     20 H2          6.5490   -4.0289    2.8856 H         1 <1>         0.1205
     21 H3         -0.2465    4.8491   -0.6445 H         1 <1>         0.1188
     22 H4         -2.0226    1.2206    0.8197 H         1 <1>         0.1181
     23 H5          6.1072   -4.2239    0.4515 H         1 <1>         0.1296
     24 H6          5.8066   -2.0124    4.1234 H         1 <1>         0.1288
     25 H7          1.9493    3.7321   -0.7773 H         1 <1>         0.1348
     26 H8          0.1653    0.0875    0.6935 H         1 <1>         0.1356
     27 H9          4.9284   -2.4142   -0.7450 H         1 <1>         0.1485
     28 H10         4.6264   -0.1935    2.9405 H         1 <1>         0.1431
     29 H11         3.5502    2.2021   -1.8176 H         1 <1>         0.1450
     30 H12         6.6087    1.0064   -0.7776 H         1 <1>         0.0883
     31 H13         6.1941   -0.6726   -1.2023 H         1 <1>         0.0911
     32 H14         5.8832    0.6216   -2.3580 H         1 <1>         0.0843
@<TRIPOS>BOND
     1    1    3 ar
     2    1    4 ar
     3    2    5 ar
     4    2    6 ar
     5    3    7 ar
     6    4    8 ar
     7    5    9 ar
     8    6   10 ar
     9    7   12 ar
    10    8   12 ar
    11    9   13 ar
    12   10   13 ar
    13   11   14 1
    14   11   15 2
    15   12   14 1
    16   13   18 1
    17   14   17 2
    18   15   16 1
    19   15   18 1
    20   17   18 1
    21    1   19 1
    22    2   20 1
    23    3   21 1
    24    4   22 1
    25    5   23 1
    26    6   24 1
    27    7   25 1
    28    8   26 1
    29    9   27 1
    30   10   28 1
    31   11   29 1
    32   16   30 1
    33   16   31 1
    34   16   32 1
