@<TRIPOS>MOLECULE
AO-476/40672138
   35    37     0
SMALL
USER_CHARGE


@<TRIPOS>ATOM
      1 C1          5.6372   -3.3686    2.7380 C.ar      1 <1>        -0.0820
      2 C2          4.7754   -2.3408    3.1209 C.ar      1 <1>        -0.0750
      3 C3          6.2003   -3.3677    1.4618 C.ar      1 <1>        -0.0739
      4 C4          4.4765   -1.3122    2.2275 C.ar      1 <1>        -0.0502
      5 C5          5.9014   -2.3390    0.5684 C.ar      1 <1>        -0.0484
      6 C6          5.0222    1.0770   -1.5221 C.2       1 <1>         0.0737
      7 C7          1.5505    1.1520    0.4561 C.ar      1 <1>         0.1155
      8 C8          3.7268    1.3394   -1.0274 C.ar      1 <1>         0.0967
      9 C9          5.0395   -1.3112    0.9512 C.ar      1 <1>        -0.0004
     10 C10         3.5788    0.4287    0.0068 C.ar      1 <1>         0.1074
     11 C11         2.6846    2.2124   -1.3178 C.ar      1 <1>         0.0965
     12 C12        -0.5254    3.3014    0.1384 C.2       1 <1>        -0.0198
     13 C13        -2.0503    3.4098   -1.8932 C.3       1 <1>         0.0081
     14 N1          5.6428    0.0920   -0.8648 N.2       1 <1>        -0.2936
     15 N2          2.5090    0.2733    0.8017 N.ar      1 <1>        -0.2699
     16 N3          4.7403   -0.2826    0.0589 N.pl3     1 <1>        -0.2601
     17 N4          1.6177    2.0590   -0.5259 N.ar      1 <1>        -0.2793
     18 N5          2.7256    3.1708   -2.3397 N.pl3     1 <1>        -0.2844
     19 N6         -1.7477    3.5330   -0.4797 N.pl3     1 <1>        -0.3541
     20 N7          0.4443    2.9233   -0.7297 N.pl3     1 <1>        -0.2723
     21 S1         -0.4760    3.4660    1.8096 S.2       1 <1>        -0.2548
     22 H1          5.8717   -4.1687    3.4338 H         1 <1>         0.1354
     23 H2          4.3380   -2.3405    4.1149 H         1 <1>         0.1391
     24 H3          6.8723   -4.1676    1.1650 H         1 <1>         0.1401
     25 H4          3.8038   -0.5166    2.5388 H         1 <1>         0.1531
     26 H5          6.3476   -2.3502   -0.4230 H         1 <1>         0.1584
     27 H6          5.5416    1.5632   -2.3358 H         1 <1>         0.2991
     28 H7          0.6327    1.1211    1.0327 H         1 <1>         0.4062
     29 H8         -1.8546    4.3566   -2.4031 H         1 <1>         0.1178
     30 H9         -3.1023    3.1457   -2.0328 H         1 <1>         0.1184
     31 H10        -1.4305    2.6314   -2.3460 H         1 <1>         0.1219
     32 H11         3.5640    3.2842   -2.8809 H         1 <1>         0.3145
     33 H12         1.9523    3.7999   -2.4615 H         1 <1>         0.3265
     34 H13        -2.5081    3.8344    0.1221 H         1 <1>         0.3014
     35 H14         0.3712    3.1863   -1.6886 H         1 <1>         0.3886
@<TRIPOS>BOND
     1    1    2 ar
     2    1    3 ar
     3    2    4 ar
     4    3    5 ar
     5    4    9 ar
     6    5    9 ar
     7    6    8 1
     8    6   14 2
     9    7   15 ar
    10    7   17 ar
    11    8   10 ar
    12    8   11 ar
    13    9   16 1
    14   10   15 ar
    15   10   16 1
    16   11   17 ar
    17   11   18 1
    18   12   19 1
    19   12   20 1
    20   12   21 2
    21   13   19 1
    22   14   16 1
    23   17   20 1
    24    1   22 1
    25    2   23 1
    26    3   24 1
    27    4   25 1
    28    5   26 1
    29    6   27 1
    30    7   28 1
    31   13   29 1
    32   13   30 1
    33   13   31 1
    34   18   32 1
    35   18   33 1
    36   19   34 1
    37   20   35 1
