@<TRIPOS>MOLECULE
AJ-916/12583056
   33    36     0
SMALL
USER_CHARGE


@<TRIPOS>ATOM
      1 C1         -1.0533    1.8619    0.3525 C.2       1 <1>        -0.0731
      2 C2          5.0252   -1.1332    2.4045 C.ar      1 <1>        -0.0410
      3 C3          5.2951   -2.5673    0.4791 C.ar      1 <1>        -0.0371
      4 C4          5.4416   -2.1721    3.2367 C.ar      1 <1>        -0.0417
      5 C5          5.7118   -3.6063    1.3113 C.ar      1 <1>        -0.0398
      6 C6          0.0827    1.3455   -0.3354 C.2       1 <1>        -0.0563
      7 C7          3.3227    0.3307    0.2599 C.2       1 <1>         0.0234
      8 C8         -0.8754    3.1738    0.7329 C.2       1 <1>        -0.0429
      9 C9          3.3681    1.2626   -0.7359 C.ar      1 <1>         0.0413
     10 C10         4.6566    1.1458   -1.3729 C.ar      1 <1>         0.0515
     11 C11         4.9518   -1.3308    1.0257 C.ar      1 <1>        -0.0082
     12 C12         5.7850   -3.4088    2.6901 C.ar      1 <1>        -0.0042
     13 C13         2.3625    2.1558   -1.0731 C.ar      1 <1>         0.0517
     14 C14         1.0853    2.2825   -0.4547 C.2       1 <1>         0.0031
     15 C15         4.9900    1.9871   -2.4442 C.ar      1 <1>         0.0301
     16 C16         6.2667    1.9865   -3.2014 C.3       1 <1>         0.0149
     17 N1          5.3568    0.1697   -0.7700 N.2       1 <1>        -0.3195
     18 N2          2.7149    2.9568   -2.1138 N.ar      1 <1>        -0.2954
     19 N3          4.0106    2.8711   -2.7873 N.ar      1 <1>        -0.3002
     20 N4          4.5355   -0.2925    0.1943 N.pl3     1 <1>        -0.2977
     21 S1          0.6560    3.7776    0.2612 S.3       1 <1>        -0.1515
     22 Cl1         6.3014   -4.6895    3.7170 Cl        1 <1>        -0.1753
     23 H1         -1.9553    1.3004    0.5574 H         1 <1>         0.1227
     24 H2          4.7607   -0.1745    2.8441 H         1 <1>         0.1604
     25 H3          5.2428   -2.7346   -0.5941 H         1 <1>         0.1721
     26 H4          5.4937   -2.0045    4.3095 H         1 <1>         0.1607
     27 H5          5.9760   -4.5647    0.8714 H         1 <1>         0.1615
     28 H6          0.1521    0.3360   -0.7218 H         1 <1>         0.1434
     29 H7          2.5689    0.0579    0.9874 H         1 <1>         0.2551
     30 H8         -1.5717    3.8066    1.2649 H         1 <1>         0.1798
     31 H9          6.2097    1.3016   -4.0595 H         1 <1>         0.1052
     32 H10         6.5140    2.9896   -3.5802 H         1 <1>         0.1053
     33 H11         7.1123    1.6746   -2.5702 H         1 <1>         0.1018
@<TRIPOS>BOND
     1    1    6 1
     2    1    8 2
     3    2    4 ar
     4    2   11 ar
     5    3    5 ar
     6    3   11 ar
     7    4   12 ar
     8    5   12 ar
     9    6   14 2
    10    7    9 2
    11    7   20 1
    12    8   21 1
    13    9   10 ar
    14    9   13 ar
    15   10   15 ar
    16   10   17 2
    17   11   20 1
    18   12   22 1
    19   13   14 1
    20   13   18 ar
    21   14   21 1
    22   15   16 1
    23   15   19 ar
    24   17   20 1
    25   18   19 ar
    26    1   23 1
    27    2   24 1
    28    3   25 1
    29    4   26 1
    30    5   27 1
    31    6   28 1
    32    7   29 1
    33    8   30 1
    34   16   31 1
    35   16   32 1
    36   16   33 1
