@<TRIPOS>MOLECULE
AE-842/32998057
   41    44     0
SMALL
USER_CHARGE


@<TRIPOS>ATOM
      1 C1         -1.2833    3.1065    0.1532 C.ar      1 <1>        -0.0967
      2 C2         -0.0980    3.8193    0.3330 C.ar      1 <1>        -0.0919
      3 C3         -1.2401    1.7411   -0.1291 C.ar      1 <1>        -0.0913
      4 C4          1.1306    3.1669    0.2304 C.ar      1 <1>        -0.0751
      5 C5         -0.0114    1.0887   -0.2318 C.ar      1 <1>        -0.0743
      6 C6          5.6758   -2.0784    0.3980 C.ar      1 <1>        -0.0545
      7 C7          4.3498   -1.4351    2.3123 C.ar      1 <1>        -0.0550
      8 C8          6.3053   -3.0597    1.1638 C.ar      1 <1>        -0.0512
      9 C9          4.9793   -2.4163    3.0781 C.ar      1 <1>        -0.0515
     10 C10         1.1740    1.8017   -0.0521 C.ar      1 <1>        -0.0503
     11 C11         4.6981   -1.2661    0.9723 C.ar      1 <1>        -0.0388
     12 C12         5.9571   -3.2287    2.5039 C.ar      1 <1>        -0.0166
     13 C13         2.4700    1.1136   -0.1604 C.2       1 <1>        -0.0257
     14 C14         5.0794    2.8459   -2.5256 C.3       1 <1>        -0.0549
     15 C15         6.2343    1.9276   -2.0833 C.3       1 <1>        -0.0543
     16 C16         3.9104    2.9081   -1.5250 C.3       1 <1>        -0.0382
     17 C17         5.7737    0.5688   -1.5210 C.3       1 <1>        -0.0378
     18 C18         3.5251    1.4887   -1.1672 C.3       1 <1>         0.0044
     19 C19         4.7199    0.8349   -0.4592 C.3       1 <1>         0.0041
     20 N1          2.7795    0.0661    0.5489 N.2       1 <1>        -0.3692
     21 N2          4.0709   -0.2844    0.2070 N.pl3     1 <1>        -0.3558
     22 Cl1         6.7340   -4.4394    3.4483 Cl        1 <1>        -0.1916
     23 H1         -2.2399    3.6143    0.2331 H         1 <1>         0.1178
     24 H2         -0.1319    4.8824    0.5526 H         1 <1>         0.1198
     25 H3         -2.1630    1.1859   -0.2688 H         1 <1>         0.1199
     26 H4          2.0482    3.7322    0.3723 H         1 <1>         0.1357
     27 H5          0.0103    0.0245   -0.4523 H         1 <1>         0.1378
     28 H6          5.9553   -1.9543   -0.6450 H         1 <1>         0.1493
     29 H7          3.5902   -0.8064    2.7702 H         1 <1>         0.1480
     30 H8          7.0666   -3.6841    0.7033 H         1 <1>         0.1487
     31 H9          4.6987   -2.5350    4.1217 H         1 <1>         0.1489
     32 H10         5.4617    3.8564   -2.7088 H         1 <1>         0.0454
     33 H11         4.6961    2.4772   -3.4858 H         1 <1>         0.0419
     34 H12         6.9177    1.7650   -2.9245 H         1 <1>         0.0478
     35 H13         6.8115    2.4480   -1.3080 H         1 <1>         0.0440
     36 H14         4.2009    3.4759   -0.6332 H         1 <1>         0.0575
     37 H15         3.0630    3.4372   -1.9744 H         1 <1>         0.0613
     38 H16         5.3785   -0.0624   -2.3260 H         1 <1>         0.0622
     39 H17         6.6302    0.0371   -1.0919 H         1 <1>         0.0631
     40 H18         3.2557    0.9398   -2.0828 H         1 <1>         0.1055
     41 H19         5.1298    1.5051    0.3123 H         1 <1>         0.1119
@<TRIPOS>BOND
     1    1    2 ar
     2    1    3 ar
     3    2    4 ar
     4    3    5 ar
     5    4   10 ar
     6    5   10 ar
     7    6    8 ar
     8    6   11 ar
     9    7    9 ar
    10    7   11 ar
    11    8   12 ar
    12    9   12 ar
    13   10   13 1
    14   11   21 1
    15   12   22 1
    16   13   18 1
    17   13   20 2
    18   14   15 1
    19   14   16 1
    20   15   17 1
    21   16   18 1
    22   17   19 1
    23   18   19 1
    24   19   21 1
    25   20   21 1
    26    1   23 1
    27    2   24 1
    28    3   25 1
    29    4   26 1
    30    5   27 1
    31    6   28 1
    32    7   29 1
    33    8   30 1
    34    9   31 1
    35   14   32 1
    36   14   33 1
    37   15   34 1
    38   15   35 1
    39   16   36 1
    40   16   37 1
    41   17   38 1
    42   17   39 1
    43   18   40 1
    44   19   41 1
