@<TRIPOS>MOLECULE
AE-641/14883017
   38    40     0
SMALL
USER_CHARGE


@<TRIPOS>ATOM
      1 C1         -1.2768    3.1136    0.0874 C.ar      1 <1>        -0.0981
      2 C2          6.0334   -3.2053    2.3327 C.ar      1 <1>        -0.0866
      3 C3         -0.1072    3.8543    0.2567 C.ar      1 <1>        -0.0928
      4 C4         -1.2046    1.7429   -0.1610 C.ar      1 <1>        -0.0927
      5 C5          5.7826   -3.3152    0.9650 C.ar      1 <1>        -0.0785
      6 C6          5.6183   -2.0700    3.0288 C.ar      1 <1>        -0.0774
      7 C7          1.1348    3.2243    0.1773 C.ar      1 <1>        -0.0755
      8 C8          0.0373    1.1130   -0.2406 C.ar      1 <1>        -0.0753
      9 C9          5.1167   -2.2900    0.2934 C.ar      1 <1>        -0.0519
     10 C10         4.9523   -1.0447    2.3572 C.ar      1 <1>        -0.0509
     11 C11         1.2071    1.8537   -0.0713 C.ar      1 <1>        -0.0439
     12 C12         3.5247    1.4863   -1.0606 C.2       1 <1>         0.0035
     13 C13         4.7016   -1.1546    0.9895 C.ar      1 <1>        -0.0059
     14 C14         2.4857    1.2049   -0.1533 C.2       1 <1>         0.0123
     15 C15         4.5201    0.6001   -0.7281 C.2       1 <1>         0.0923
     16 C16         5.8101    0.4420   -1.3270 C.2       1 <1>         0.1626
     17 C17         3.5469    2.5023   -2.1296 C.3       1 <1>        -0.0063
     18 C18         7.5819    1.5903   -2.4783 C.3       1 <1>         0.0412
     19 N1          2.7926    0.2174    0.6920 N.2       1 <1>        -0.3242
     20 N2          4.0356   -0.1298    0.3172 N.pl3     1 <1>        -0.2730
     21 O1          6.4528   -0.6302   -1.3886 O.2       1 <1>        -0.4527
     22 O2          6.2962    1.6198   -1.8493 O.3       1 <1>        -0.3828
     23 H1         -2.2440    3.6036    0.1504 H         1 <1>         0.1154
     24 H2          6.5502   -4.0039    2.8564 H         1 <1>         0.1265
     25 H3         -0.1631    4.9213    0.4515 H         1 <1>         0.1190
     26 H4         -2.1155    1.1662   -0.2915 H         1 <1>         0.1185
     27 H5          6.1046   -4.1996    0.4231 H         1 <1>         0.1314
     28 H6          5.8127   -1.9857    4.0942 H         1 <1>         0.1329
     29 H7          2.0377    3.8156    0.3114 H         1 <1>         0.1337
     30 H8          0.0767    0.0437   -0.4349 H         1 <1>         0.1340
     31 H9          4.9268   -2.3886   -0.7727 H         1 <1>         0.1538
     32 H10         4.6337   -0.1656    2.9121 H         1 <1>         0.1547
     33 H11         3.9433    3.4621   -1.7587 H         1 <1>         0.0792
     34 H12         4.1711    2.1910   -2.9850 H         1 <1>         0.0791
     35 H13         2.5406    2.6931   -2.5415 H         1 <1>         0.0841
     36 H14         7.8335    2.5895   -2.8419 H         1 <1>         0.1247
     37 H15         7.5652    0.8816   -3.3102 H         1 <1>         0.1449
     38 H16         8.3284    1.2724   -1.7465 H         1 <1>         0.1245
@<TRIPOS>BOND
     1    1    3 ar
     2    1    4 ar
     3    2    5 ar
     4    2    6 ar
     5    3    7 ar
     6    4    8 ar
     7    5    9 ar
     8    6   10 ar
     9    7   11 ar
    10    8   11 ar
    11    9   13 ar
    12   10   13 ar
    13   11   14 1
    14   12   14 1
    15   12   15 2
    16   12   17 1
    17   13   20 1
    18   14   19 2
    19   15   16 1
    20   15   20 1
    21   16   21 2
    22   16   22 1
    23   18   22 1
    24   19   20 1
    25    1   23 1
    26    2   24 1
    27    3   25 1
    28    4   26 1
    29    5   27 1
    30    6   28 1
    31    7   29 1
    32    8   30 1
    33    9   31 1
    34   10   32 1
    35   17   33 1
    36   17   34 1
    37   17   35 1
    38   18   36 1
    39   18   37 1
    40   18   38 1
