@<TRIPOS>MOLECULE
AO-081/40738502
   52    55     0
SMALL
USER_CHARGE


@<TRIPOS>ATOM
      1 C1          5.9441   -3.0837    2.2603 C.ar      1 <1>        -0.0901
      2 C2          6.1332   -2.7965    0.9084 C.ar      1 <1>        -0.0808
      3 C3          5.0102   -2.3614    3.0029 C.ar      1 <1>        -0.0813
      4 C4         -0.3240    1.2795   -0.4523 C.ar      1 <1>        -0.0685
      5 C5          0.5930    2.8907    1.0970 C.ar      1 <1>        -0.0675
      6 C6         -1.5897    1.8426   -0.2888 C.ar      1 <1>        -0.0897
      7 C7         -0.6727    3.4538    1.2605 C.ar      1 <1>        -0.0903
      8 C8          5.3881   -1.7869    0.2993 C.ar      1 <1>        -0.0545
      9 C9          4.2652   -1.3517    2.3936 C.ar      1 <1>        -0.0550
     10 C10         4.4073    2.4847   -2.6223 C.ar      1 <1>        -0.0035
     11 C11         3.0524    1.5792   -0.8791 C.ar      1 <1>         0.0633
     12 C12         0.7672    1.8036    0.2406 C.ar      1 <1>        -0.0303
     13 C13        -1.7640    2.9297    0.5676 C.ar      1 <1>        -0.1080
     14 C14         3.1999    2.4999   -1.9239 C.ar      1 <1>         0.1055
     15 C15         4.4541   -1.0644    1.0418 C.ar      1 <1>        -0.0092
     16 C16         2.0749    1.2220    0.0708 C.2       1 <1>         0.0421
     17 C17         5.3877    1.5705   -2.2516 C.ar      1 <1>        -0.0257
     18 C18         4.1096    0.7228   -0.6139 C.ar      1 <1>         0.0558
     19 C19         6.6765    1.5658   -3.0102 C.3       1 <1>        -0.0028
     20 C20        -4.1350    2.4867    1.2945 C.3       1 <1>        -0.0604
     21 C21        -3.6787    4.0617   -0.6153 C.3       1 <1>        -0.0606
     22 C22        -3.1912    4.7464    1.7247 C.3       1 <1>        -0.0604
     23 C23        -3.1174    3.5318    0.7407 C.3       1 <1>        -0.0511
     24 C24         2.1450    3.4800   -2.3186 C.3       1 <1>         0.3535
     25 N1          2.4699    0.2270    0.8719 N.2       1 <1>        -0.3093
     26 N2          5.2923    0.6622   -1.2505 N.ar      1 <1>        -0.3587
     27 N3          3.7096   -0.0553    0.4320 N.pl3     1 <1>        -0.2796
     28 F1          2.5069    4.2801   -3.3641 F         1 <1>        -0.2094
     29 F2          0.9740    2.8944   -2.7054 F         1 <1>        -0.2071
     30 F3          1.8137    4.3295   -1.3037 F         1 <1>        -0.2068
     31 H1          6.5228   -3.8709    2.7347 H         1 <1>         0.1212
     32 H2          6.8593   -3.3597    0.3298 H         1 <1>         0.1305
     33 H3          4.8626   -2.5865    4.0553 H         1 <1>         0.1295
     34 H4         -0.2051    0.4319   -1.1231 H         1 <1>         0.1385
     35 H5          1.4337    3.3107    1.6442 H         1 <1>         0.1444
     36 H6         -2.4344    1.4288   -0.8329 H         1 <1>         0.1270
     37 H7         -0.8002    4.3008    1.9295 H         1 <1>         0.1245
     38 H8          5.5445   -1.5737   -0.7554 H         1 <1>         0.1504
     39 H9          3.5399   -0.7968    2.9840 H         1 <1>         0.1492
     40 H10         4.5786    3.1771   -3.4419 H         1 <1>         0.1766
     41 H11         7.3924    2.2506   -2.5428 H         1 <1>         0.0995
     42 H12         7.1157    0.5617   -3.0354 H         1 <1>         0.0972
     43 H13         6.5226    1.8750   -4.0507 H         1 <1>         0.0976
     44 H14        -5.1393    2.9044    1.4311 H         1 <1>         0.0389
     45 H15        -4.2344    1.6279    0.6214 H         1 <1>         0.0404
     46 H16        -3.7968    2.1061    2.2656 H         1 <1>         0.0392
     47 H17        -4.6730    4.5049   -0.4922 H         1 <1>         0.0391
     48 H18        -3.0398    4.8296   -1.0672 H         1 <1>         0.0393
     49 H19        -3.7718    3.2395   -1.3345 H         1 <1>         0.0391
     50 H20        -4.2052    5.1535    1.8181 H         1 <1>         0.0392
     51 H21        -2.8683    4.4535    2.7305 H         1 <1>         0.0405
     52 H22        -2.5462    5.5643    1.3833 H         1 <1>         0.0389
@<TRIPOS>BOND
     1    1    2 ar
     2    1    3 ar
     3    2    8 ar
     4    3    9 ar
     5    4    6 ar
     6    4   12 ar
     7    5    7 ar
     8    5   12 ar
     9    6   13 ar
    10    7   13 ar
    11    8   15 ar
    12    9   15 ar
    13   10   14 ar
    14   10   17 ar
    15   11   14 ar
    16   11   16 1
    17   11   18 ar
    18   12   16 1
    19   13   23 1
    20   14   24 1
    21   15   27 1
    22   16   25 2
    23   17   19 1
    24   17   26 ar
    25   18   26 ar
    26   18   27 1
    27   20   23 1
    28   21   23 1
    29   22   23 1
    30   24   28 1
    31   24   29 1
    32   24   30 1
    33   25   27 1
    34    1   31 1
    35    2   32 1
    36    3   33 1
    37    4   34 1
    38    5   35 1
    39    6   36 1
    40    7   37 1
    41    8   38 1
    42    9   39 1
    43   10   40 1
    44   19   41 1
    45   19   42 1
    46   19   43 1
    47   20   44 1
    48   20   45 1
    49   20   46 1
    50   21   47 1
    51   21   48 1
    52   21   49 1
    53   22   50 1
    54   22   51 1
    55   22   52 1
