@<TRIPOS>MOLECULE
AG-690/12404942
   38    41     0
SMALL
USER_CHARGE


@<TRIPOS>ATOM
      1 C1          4.5174   -1.5608    2.3880 C.ar      1 <1>        -0.0675
      2 C2          5.9071   -2.2376    0.5311 C.ar      1 <1>        -0.0718
      3 C3          0.9273    3.3650    0.4450 C.ar      1 <1>        -0.0738
      4 C4          0.3484    1.1275   -0.2584 C.ar      1 <1>        -0.0723
      5 C5          5.0422   -2.5982    3.1589 C.ar      1 <1>        -0.0902
      6 C6          6.4321   -3.2748    1.3020 C.ar      1 <1>        -0.0926
      7 C7         -0.4173    3.7313    0.3869 C.ar      1 <1>        -0.0664
      8 C8         -0.9963    1.4935   -0.3164 C.ar      1 <1>        -0.0658
      9 C9          4.1721    2.8224   -2.7806 C.2       1 <1>         0.0557
     10 C10         4.9499   -1.3807    1.0741 C.ar      1 <1>        -0.0414
     11 C11         1.3103    2.0631    0.1224 C.ar      1 <1>        -0.0602
     12 C12         5.9996   -3.4551    2.6160 C.ar      1 <1>        -0.1062
     13 C13        -1.3791    2.7955    0.0062 C.ar      1 <1>        -0.0367
     14 C14         4.6070    1.2480   -1.4438 C.2       1 <1>         0.0752
     15 C15         4.3898   -0.2718    0.2493 C.2       1 <1>         0.0005
     16 C16         2.9573    0.1834    0.5299 C.3       1 <1>         0.0389
     17 C17         2.7696    1.6656    0.1854 C.3       1 <1>         0.0584
     18 C18         6.5614   -4.5634    3.4410 C.3       1 <1>        -0.0409
     19 N1          5.0413    1.7901   -2.5671 N.2       1 <1>        -0.3130
     20 N2          3.2168    2.9734   -1.8631 N.2       1 <1>        -0.3206
     21 N3          5.1213    0.2332   -0.7029 N.2       1 <1>        -0.3239
     22 N4          3.4886    1.9415   -1.0515 N.pl3     1 <1>        -0.2906
     23 Br1        -3.2006    3.2927   -0.0729 Br        1 <1>        -0.1389
     24 H1          3.7719   -0.8986    2.8206 H         1 <1>         0.1515
     25 H2          6.2514   -2.1067   -0.4914 H         1 <1>         0.1394
     26 H3          1.6698    4.1007    0.7429 H         1 <1>         0.1342
     27 H4          0.6375    0.1110   -0.5124 H         1 <1>         0.1403
     28 H5          4.6999   -2.7310    4.1816 H         1 <1>         0.1241
     29 H6          7.1780   -3.9375    0.8711 H         1 <1>         0.1223
     30 H7         -0.6986    4.7502    0.6405 H         1 <1>         0.1425
     31 H8         -1.7333    0.7525   -0.6147 H         1 <1>         0.1436
     32 H9          4.2403    3.4844   -3.6311 H         1 <1>         0.3086
     33 H10         2.2425   -0.4521    0.0085 H         1 <1>         0.1351
     34 H11         2.8098    0.0501    1.6049 H         1 <1>         0.1424
     35 H12         3.2566    2.2837    0.9899 H         1 <1>         0.1758
     36 H13         5.9584   -5.4717    3.3215 H         1 <1>         0.0635
     37 H14         7.5952   -4.7913    3.1512 H         1 <1>         0.0605
     38 H15         6.5814   -4.2965    4.5056 H         1 <1>         0.0603
@<TRIPOS>BOND
     1    1    5 ar
     2    1   10 ar
     3    2    6 ar
     4    2   10 ar
     5    3    7 ar
     6    3   11 ar
     7    4    8 ar
     8    4   11 ar
     9    5   12 ar
    10    6   12 ar
    11    7   13 ar
    12    8   13 ar
    13    9   19 1
    14    9   20 2
    15   10   15 1
    16   11   17 1
    17   12   18 1
    18   13   23 1
    19   14   19 2
    20   14   21 1
    21   14   22 1
    22   15   16 1
    23   15   21 2
    24   16   17 1
    25   17   22 1
    26   20   22 1
    27    1   24 1
    28    2   25 1
    29    3   26 1
    30    4   27 1
    31    5   28 1
    32    6   29 1
    33    7   30 1
    34    8   31 1
    35    9   32 1
    36   16   33 1
    37   16   34 1
    38   17   35 1
    39   18   36 1
    40   18   37 1
    41   18   38 1
