@<TRIPOS>MOLECULE
AO-435/41051597
   35    38     0
SMALL
USER_CHARGE


@<TRIPOS>ATOM
      1 C1          6.2993   -3.3194    2.2952 C.ar      1 <1>        -0.0984
      2 C2         -1.5052    3.3451   -0.0172 C.ar      1 <1>        -0.0984
      3 C3          5.6622    1.4979   -2.3341 C.ar      1 <1>        -0.0965
      4 C4          4.5984    2.4069   -2.6495 C.ar      1 <1>        -0.0965
      5 C5          6.3889   -2.0079    2.7618 C.ar      1 <1>        -0.0954
      6 C6          5.4752   -3.6189    1.2104 C.ar      1 <1>        -0.0946
      7 C7         -0.3625    4.0173   -0.4506 C.ar      1 <1>        -0.0947
      8 C8         -1.4210    2.0102    0.3789 C.ar      1 <1>        -0.0954
      9 C9          5.6020    0.5369   -1.3010 C.ar      1 <1>        -0.0864
     10 C10         3.3642    2.4493   -1.9643 C.ar      1 <1>        -0.0864
     11 C11         5.6543   -0.9961    2.1436 C.ar      1 <1>        -0.0845
     12 C12         4.7407   -2.6070    0.5923 C.ar      1 <1>        -0.0833
     13 C13         0.8645    3.3548   -0.4883 C.ar      1 <1>        -0.0833
     14 C14        -0.1940    1.3477    0.3413 C.ar      1 <1>        -0.0845
     15 C15         4.3806    0.5856   -0.6301 C.ar      1 <1>        -0.0584
     16 C16         3.3133    1.4977   -0.9465 C.ar      1 <1>        -0.0584
     17 C17         4.8302   -1.2956    1.0588 C.ar      1 <1>        -0.0622
     18 C18         0.9486    2.0200   -0.0922 C.ar      1 <1>        -0.0622
     19 C19         4.0690   -0.2458    0.4172 C.2       1 <1>        -0.0254
     20 C20         2.2215    1.3331   -0.1305 C.2       1 <1>        -0.0254
     21 S1          2.4873    0.0767    1.0169 S.3       1 <1>        -0.1371
     22 H1          6.8717   -4.1071    2.7761 H         1 <1>         0.1165
     23 H2         -2.4603    3.8612    0.0127 H         1 <1>         0.1165
     24 H3          6.5721    1.5541   -2.9315 H         1 <1>         0.1164
     25 H4          4.7557    3.1064   -3.4702 H         1 <1>         0.1164
     26 H5          7.0305   -1.7750    3.6066 H         1 <1>         0.1189
     27 H6          5.4063   -4.6400    0.8463 H         1 <1>         0.1197
     28 H7         -0.4283    5.0567   -0.7592 H         1 <1>         0.1196
     29 H8         -2.3105    1.4871    0.7175 H         1 <1>         0.1189
     30 H9          6.4228   -0.1342   -1.0869 H         1 <1>         0.1251
     31 H10         2.5797    3.1458   -2.2276 H         1 <1>         0.1251
     32 H11         5.7370    0.0217    2.5175 H         1 <1>         0.1270
     33 H12         4.1019   -2.8570   -0.2516 H         1 <1>         0.1303
     34 H13         1.7464    3.8935   -0.8262 H         1 <1>         0.1304
     35 H14        -0.1451    0.3068    0.6521 H         1 <1>         0.1270
@<TRIPOS>BOND
     1    1    5 ar
     2    1    6 ar
     3    2    7 ar
     4    2    8 ar
     5    3    4 ar
     6    3    9 ar
     7    4   10 ar
     8    5   11 ar
     9    6   12 ar
    10    7   13 ar
    11    8   14 ar
    12    9   15 ar
    13   10   16 ar
    14   11   17 ar
    15   12   17 ar
    16   13   18 ar
    17   14   18 ar
    18   15   16 ar
    19   15   19 2
    20   16   20 2
    21   17   19 1
    22   18   20 1
    23   19   21 1
    24   20   21 1
    25    1   22 1
    26    2   23 1
    27    3   24 1
    28    4   25 1
    29    5   26 1
    30    6   27 1
    31    7   28 1
    32    8   29 1
    33    9   30 1
    34   10   31 1
    35   11   32 1
    36   12   33 1
    37   13   34 1
    38   14   35 1
