@<TRIPOS>MOLECULE
AF-399/14664025
   29    32     0
SMALL
USER_CHARGE


@<TRIPOS>ATOM
      1 C1          0.7998    3.4972    0.0902 C.ar      1 <1>        -0.0885
      2 C2          0.2345    1.2141   -0.4618 C.ar      1 <1>        -0.0852
      3 C3         -0.4634    3.6735    0.6550 C.ar      1 <1>        -0.1007
      4 C4         -1.0288    1.3903    0.1031 C.ar      1 <1>        -0.0974
      5 C5          2.8602    2.8710   -2.1086 C.2       1 <1>         0.0046
      6 C6          4.3810   -1.4155    1.4515 C.2       1 <1>         0.0719
      7 C7          1.1487    2.2676   -0.4683 C.ar      1 <1>        -0.0669
      8 C8          2.4522    2.0861   -1.0502 C.2       1 <1>        -0.0138
      9 C9          3.4632    1.1688   -0.6942 C.2       1 <1>         0.0383
     10 C10        -1.3776    2.6199    0.6615 C.ar      1 <1>        -0.1111
     11 C11         4.6140    1.2553   -1.4638 C.2       1 <1>         0.0578
     12 C12         3.4941    0.1996    0.2956 C.2       1 <1>         0.0782
     13 C13         5.7388   -0.4033   -0.4034 C.2       1 <1>         0.0638
     14 C14        -2.7274    2.8091    1.2668 C.3       1 <1>        -0.0439
     15 N1          3.1730   -1.1869    1.9282 N.2       1 <1>        -0.2857
     16 N2          2.6060   -0.1557    1.1908 N.2       1 <1>        -0.2819
     17 N3          5.7553    0.4976   -1.3499 N.2       1 <1>        -0.3213
     18 N4          4.6254   -0.5631    0.4207 N.pl3     1 <1>        -0.2606
     19 S1          4.4467    2.4845   -2.6430 S.3       1 <1>        -0.0919
     20 H1          1.5006    4.3288    0.0926 H         1 <1>         0.1245
     21 H2          0.4915    0.2494   -0.8932 H         1 <1>         0.1293
     22 H3         -0.7270    4.6344    1.0887 H         1 <1>         0.1147
     23 H4         -1.7352    0.5645    0.1041 H         1 <1>         0.1193
     24 H5          2.3120    3.6611   -2.6045 H         1 <1>         0.2154
     25 H6          5.0864   -2.1543    1.8035 H         1 <1>         0.3146
     26 H7          6.6106   -1.0564   -0.2389 H         1 <1>         0.3437
     27 H8         -3.4377    3.1682    0.5120 H         1 <1>         0.0591
     28 H9         -3.1111    1.8700    1.6865 H         1 <1>         0.0572
     29 H10        -2.6971    3.5353    2.0894 H         1 <1>         0.0567
@<TRIPOS>BOND
     1    1    3 ar
     2    1    7 ar
     3    2    4 ar
     4    2    7 ar
     5    3   10 ar
     6    4   10 ar
     7    5    8 2
     8    5   19 1
     9    6   15 2
    10    6   18 1
    11    7    8 1
    12    8    9 1
    13    9   11 2
    14    9   12 1
    15   10   14 1
    16   11   17 1
    17   11   19 1
    18   12   16 2
    19   12   18 1
    20   13   17 2
    21   13   18 1
    22   15   16 1
    23    1   20 1
    24    2   21 1
    25    3   22 1
    26    4   23 1
    27    5   24 1
    28    6   25 1
    29   13   26 1
    30   14   27 1
    31   14   28 1
    32   14   29 1
