@<TRIPOS>MOLECULE
AN-919/15183003
   35    37     0
SMALL
USER_CHARGE


@<TRIPOS>ATOM
      1 C1          3.1922    2.9665   -2.3997 C.1       1 <1>         0.0178
      2 C2          5.9756   -3.2916    2.4576 C.ar      1 <1>        -0.1021
      3 C3          5.0636   -2.3815    2.9918 C.ar      1 <1>        -0.0942
      4 C4          6.3958   -3.1627    1.1338 C.ar      1 <1>        -0.0972
      5 C5          4.5715   -1.3423    2.2020 C.ar      1 <1>        -0.0736
      6 C6          5.9037   -2.1235    0.3441 C.ar      1 <1>        -0.0787
      7 C7          1.2874    3.0304    0.5410 C.ar      1 <1>        -0.0635
      8 C8          0.3712    1.4203   -1.0098 C.ar      1 <1>        -0.0638
      9 C9          0.0123    3.5568    0.7477 C.ar      1 <1>        -0.0418
     10 C10        -0.9039    1.9466   -0.8032 C.ar      1 <1>        -0.0415
     11 C11         3.2146    0.3805    0.2720 C.ar      1 <1>        -0.0366
     12 C12         3.6329    1.8957   -1.5483 C.ar      1 <1>         0.0564
     13 C13         1.4669    1.9621   -0.3378 C.ar      1 <1>        -0.0477
     14 C14         4.9916   -1.2133    0.8781 C.ar      1 <1>        -0.0531
     15 C15         2.7894    1.4163   -0.5523 C.ar      1 <1>        -0.0035
     16 C16        -1.0834    3.0150    0.0756 C.ar      1 <1>         0.0490
     17 C17         4.4823   -0.1374    0.0612 C.ar      1 <1>        -0.0271
     18 C18         4.8820    1.3101   -1.6776 C.ar      1 <1>        -0.0691
     19 C19        -2.4465    3.5779    0.2964 C.3       1 <1>         0.3272
     20 N1          2.8363    3.8312   -3.0871 N.1       1 <1>        -0.3965
     21 N2          5.3300    0.3021   -0.8959 N.ar      1 <1>        -0.4002
     22 F1         -2.4725    4.6189    1.1807 F         1 <1>        -0.2246
     23 F2         -3.0289    4.0622   -0.8404 F         1 <1>        -0.2245
     24 F3         -3.3220    2.6552    0.7918 F         1 <1>        -0.2247
     25 S1          6.0768    1.8479   -2.9415 S.3       1 <1>        -0.4279
     26 H1          6.3599   -4.0997    3.0732 H         1 <1>         0.1087
     27 H2          4.7377   -2.4808    4.0230 H         1 <1>         0.1143
     28 H3          7.1069   -3.8702    0.7177 H         1 <1>         0.1112
     29 H4          3.8613   -0.6406    2.6330 H         1 <1>         0.1455
     30 H5          6.2408   -2.0353   -0.6860 H         1 <1>         0.1310
     31 H6          2.1316    3.4643    1.0717 H         1 <1>         0.1455
     32 H7          0.4948    0.5870   -1.6976 H         1 <1>         0.1432
     33 H8         -0.1180    4.3899    1.4332 H         1 <1>         0.1482
     34 H9         -1.7521    1.5179   -1.3305 H         1 <1>         0.1490
     35 H10         2.5747   -0.0119    1.0578 H         1 <1>         0.1449
@<TRIPOS>BOND
     1    1   12 1
     2    1   20 3
     3    2    3 ar
     4    2    4 ar
     5    3    5 ar
     6    4    6 ar
     7    5   14 ar
     8    6   14 ar
     9    7    9 ar
    10    7   13 ar
    11    8   10 ar
    12    8   13 ar
    13    9   16 ar
    14   10   16 ar
    15   11   15 ar
    16   11   17 ar
    17   12   15 ar
    18   12   18 ar
    19   13   15 1
    20   14   17 1
    21   16   19 1
    22   17   21 ar
    23   18   21 ar
    24   18   25 1
    25   19   22 1
    26   19   23 1
    27   19   24 1
    28    2   26 1
    29    3   27 1
    30    4   28 1
    31    5   29 1
    32    6   30 1
    33    7   31 1
    34    8   32 1
    35    9   33 1
    36   10   34 1
    37   11   35 1
