@<TRIPOS>MOLECULE
AO-476/42008147
   44    47     0
SMALL
USER_CHARGE


@<TRIPOS>ATOM
      1 C1          3.0073    2.9076   -2.2808 C.1       1 <1>         0.0481
      2 C2          6.5532   -3.0830    1.3929 C.ar      1 <1>        -0.0892
      3 C3          5.9277   -3.3806    2.5998 C.ar      1 <1>        -0.0945
      4 C4          6.0702   -2.0492    0.5869 C.ar      1 <1>        -0.0703
      5 C5          1.1702    3.2580    0.1014 C.ar      1 <1>        -0.0644
      6 C6          0.2085    1.0738   -0.2751 C.ar      1 <1>        -0.0650
      7 C7          4.8152   -2.6471    3.0044 C.ar      1 <1>        -0.0916
      8 C8         -0.1054    3.7853    0.3015 C.ar      1 <1>        -0.0555
      9 C9         -1.0672    1.6012   -0.0749 C.ar      1 <1>        -0.0557
     10 C10         3.4513    1.8477   -1.4231 C.ar      1 <1>         0.1232
     11 C11         1.3273    1.9021   -0.1871 C.ar      1 <1>        -0.0431
     12 C12         4.9477   -1.2970    0.9717 C.ar      1 <1>        -0.0468
     13 C13         2.6586    1.3521   -0.3964 C.ar      1 <1>         0.0182
     14 C14         4.3147   -1.6178    2.1948 C.ar      1 <1>        -0.0812
     15 C15         3.1381    0.3233    0.4160 C.ar      1 <1>        -0.0298
     16 C16        -1.2242    2.9569    0.2134 C.ar      1 <1>        -0.0145
     17 C17         4.4105   -0.1986    0.1493 C.ar      1 <1>        -0.0043
     18 C18         4.6994    1.2809   -1.6071 C.ar      1 <1>         0.0986
     19 C19         6.8262   -0.4047   -3.8184 C.2       1 <1>        -0.1119
     20 C20         7.3893    0.2897   -2.8235 C.2       1 <1>        -0.0900
     21 C21         3.1415   -0.7907    2.6681 C.3       1 <1>        -0.0190
     22 C22         2.2896   -0.2758    1.5041 C.3       1 <1>        -0.0078
     23 C23         6.9215    1.6350   -2.3768 C.3       1 <1>         0.0408
     24 N1          2.6481    3.7653   -2.9750 N.1       1 <1>        -0.3780
     25 N2          5.1941    0.2743   -0.8516 N.ar      1 <1>        -0.3323
     26 O1          5.5217    1.7320   -2.6076 O.3       1 <1>        -0.4025
     27 Cl1        -2.7981    3.6085    0.4591 Cl        1 <1>        -0.1820
     28 H1          7.4215   -3.6543    1.0770 H         1 <1>         0.1202
     29 H2          6.3090   -4.1805    3.2274 H         1 <1>         0.1214
     30 H3          6.5854   -1.8456   -0.3491 H         1 <1>         0.1441
     31 H4          2.0327    3.9165    0.1732 H         1 <1>         0.1457
     32 H5          0.3144    0.0152   -0.5001 H         1 <1>         0.1430
     33 H6          4.3421   -2.8795    3.9550 H         1 <1>         0.1227
     34 H7         -0.2135    4.8440    0.5237 H         1 <1>         0.1474
     35 H8         -1.9302    0.9442   -0.1478 H         1 <1>         0.1471
     36 H9          7.1985   -1.3801   -4.1110 H         1 <1>         0.0861
     37 H10         5.9766   -0.0008   -4.3579 H         1 <1>         0.0903
     38 H11         8.2451   -0.1388   -2.3084 H         1 <1>         0.1087
     39 H12         2.5044   -1.3773    3.3405 H         1 <1>         0.0828
     40 H13         3.5375    0.0559    3.2440 H         1 <1>         0.0802
     41 H14         1.5743    0.4455    1.9136 H         1 <1>         0.0849
     42 H15         1.7143   -1.1039    1.0700 H         1 <1>         0.0871
     43 H16         7.4212    2.4463   -2.9154 H         1 <1>         0.1430
     44 H17         7.1078    1.7551   -1.3050 H         1 <1>         0.1457
@<TRIPOS>BOND
     1    1   10 1
     2    1   24 3
     3    2    3 ar
     4    2    4 ar
     5    3    7 ar
     6    4   12 ar
     7    5    8 ar
     8    5   11 ar
     9    6    9 ar
    10    6   11 ar
    11    7   14 ar
    12    8   16 ar
    13    9   16 ar
    14   10   13 ar
    15   10   18 ar
    16   11   13 1
    17   12   14 ar
    18   12   17 1
    19   13   15 ar
    20   14   21 1
    21   15   17 ar
    22   15   22 1
    23   16   27 1
    24   17   25 ar
    25   18   25 ar
    26   18   26 1
    27   19   20 2
    28   20   23 1
    29   21   22 1
    30   23   26 1
    31    2   28 1
    32    3   29 1
    33    4   30 1
    34    5   31 1
    35    6   32 1
    36    7   33 1
    37    8   34 1
    38    9   35 1
    39   19   36 1
    40   19   37 1
    41   20   38 1
    42   21   39 1
    43   21   40 1
    44   22   41 1
    45   22   42 1
    46   23   43 1
    47   23   44 1
