@<TRIPOS>MOLECULE
AE-842/31985041
   42    46     0
SMALL
USER_CHARGE


@<TRIPOS>ATOM
      1 C1         -1.2993    2.9492    0.1292 C.ar      1 <1>        -0.0960
      2 C2          5.8401   -3.4924    2.4554 C.ar      1 <1>        -0.0987
      3 C3         -0.2050    3.6137   -0.4240 C.ar      1 <1>        -0.0907
      4 C4         -1.1333    1.6874    0.7004 C.ar      1 <1>        -0.0910
      5 C5          5.7488   -3.4064    1.0662 C.ar      1 <1>        -0.0901
      6 C6          5.4095   -2.4295    3.2496 C.ar      1 <1>        -0.0901
      7 C7          1.0557    3.0168   -0.4061 C.ar      1 <1>        -0.0729
      8 C8          0.1271    1.0904    0.7185 C.ar      1 <1>        -0.0738
      9 C9          5.2270   -2.2579    0.4713 C.ar      1 <1>        -0.0732
     10 C10         4.8878   -1.2809    2.6547 C.ar      1 <1>        -0.0732
     11 C11         1.2217    1.7551    0.1653 C.ar      1 <1>        -0.0489
     12 C12         4.7964   -1.1950    1.2655 C.ar      1 <1>        -0.0510
     13 C13         2.5286    1.1361    0.1840 C.2       1 <1>        -0.0261
     14 C14         3.4348    0.5625   -3.3115 C.3       1 <1>        -0.0530
     15 C15         4.5808   -0.4671   -3.1032 C.3       1 <1>        -0.0533
     16 C16         5.3345    1.5627   -2.2819 C.3       1 <1>        -0.0467
     17 C17         3.5593    1.3950   -0.8753 C.3       1 <1>         0.0031
     18 C18         3.7901    1.7098   -2.3393 C.3       1 <1>        -0.0357
     19 C19         5.2862    0.0875   -1.8360 C.3       1 <1>        -0.0353
     20 C20         4.1970    0.0036   -0.7621 C.3       1 <1>         0.0042
     21 N1          3.0344    0.4026    1.1497 N.2       1 <1>        -0.3715
     22 N2          4.2797   -0.0576    0.6768 N.pl3     1 <1>        -0.3605
     23 H1         -2.2807    3.4140    0.1150 H         1 <1>         0.1187
     24 H2          6.2466   -4.3868    2.9186 H         1 <1>         0.1083
     25 H3         -0.3344    4.5960   -0.8690 H         1 <1>         0.1202
     26 H4         -1.9854    1.1700    1.1314 H         1 <1>         0.1204
     27 H5          6.0841   -4.2338    0.4481 H         1 <1>         0.1215
     28 H6          5.4807   -2.4966    4.3316 H         1 <1>         0.1210
     29 H7          1.9017    3.5436   -0.8398 H         1 <1>         0.1393
     30 H8          0.2447    0.1070    1.1662 H         1 <1>         0.1367
     31 H9          5.1603   -2.2008   -0.6122 H         1 <1>         0.1321
     32 H10         4.5551   -0.4591    3.2837 H         1 <1>         0.1317
     33 H11         3.4377    0.9098   -4.3504 H         1 <1>         0.0501
     34 H12         2.4507    0.1352   -3.0931 H         1 <1>         0.0458
     35 H13         4.2012   -1.4870   -2.9835 H         1 <1>         0.0484
     36 H14         5.2602   -0.4632   -3.9641 H         1 <1>         0.0456
     37 H15         5.8144    1.7137   -3.2560 H         1 <1>         0.0528
     38 H16         5.8280    2.2133   -1.5518 H         1 <1>         0.0560
     39 H17         4.1491    2.1667   -0.3399 H         1 <1>         0.0985
     40 H18         3.4259    2.6905   -2.6503 H         1 <1>         0.0748
     41 H19         6.2390   -0.3902   -1.6072 H         1 <1>         0.0815
     42 H20         3.4869   -0.7944   -1.0415 H         1 <1>         0.1212
@<TRIPOS>BOND
     1    1    3 ar
     2    1    4 ar
     3    2    5 ar
     4    2    6 ar
     5    3    7 ar
     6    4    8 ar
     7    5    9 ar
     8    6   10 ar
     9    7   11 ar
    10    8   11 ar
    11    9   12 ar
    12   10   12 ar
    13   11   13 1
    14   12   22 1
    15   13   17 1
    16   13   21 2
    17   14   15 1
    18   14   18 1
    19   15   19 1
    20   16   18 1
    21   16   19 1
    22   17   18 1
    23   17   20 1
    24   19   20 1
    25   20   22 1
    26   21   22 1
    27    1   23 1
    28    2   24 1
    29    3   25 1
    30    4   26 1
    31    5   27 1
    32    6   28 1
    33    7   29 1
    34    8   30 1
    35    9   31 1
    36   10   32 1
    37   14   33 1
    38   14   34 1
    39   15   35 1
    40   15   36 1
    41   16   37 1
    42   16   38 1
    43   17   39 1
    44   18   40 1
    45   19   41 1
    46   20   42 1
