@<TRIPOS>MOLECULE
AH-262/11508001
   35    38     0
SMALL
USER_CHARGE


@<TRIPOS>ATOM
      1 C1          6.2244   -3.4101    2.4336 C.ar      1 <1>        -0.0961
      2 C2         -0.9365    2.9982    0.0071 C.ar      1 <1>        -0.0854
      3 C3          6.5191   -3.1892    1.0882 C.ar      1 <1>        -0.0915
      4 C4          5.2928   -2.6018    3.0853 C.ar      1 <1>        -0.0894
      5 C5          0.2383    3.7294    0.1829 C.ar      1 <1>        -0.0764
      6 C6         -0.8741    1.6258   -0.2346 C.ar      1 <1>        -0.0775
      7 C7          5.8824   -2.1602    0.3945 C.ar      1 <1>        -0.0717
      8 C8          4.6561   -1.5728    2.3915 C.ar      1 <1>        -0.0689
      9 C9          1.4753    3.0884    0.1167 C.ar      1 <1>        -0.0496
     10 C10         0.3630    0.9848   -0.3007 C.ar      1 <1>        -0.0510
     11 C11         4.9508   -1.3519    1.0463 C.ar      1 <1>        -0.0318
     12 C12         4.7991    0.4602   -0.7471 C.2       1 <1>         0.0878
     13 C13         1.5377    1.7160   -0.1250 C.ar      1 <1>        -0.0055
     14 C14         4.2932   -0.2889    0.3303 C.2       1 <1>         0.0467
     15 C15         3.7888    1.3381   -1.0625 C.2       1 <1>         0.1004
     16 C16         6.1357    1.4461   -2.5617 C.2       1 <1>         0.0367
     17 C17         5.1484    2.3035   -2.8693 C.2       1 <1>         0.0414
     18 C18         6.0504    0.4355   -1.4607 C.2       1 <1>         0.1131
     19 C19         3.8584    2.3105   -2.1142 C.2       1 <1>         0.1264
     20 N1          3.0553    0.0831    0.6750 N.2       1 <1>        -0.3118
     21 N2          2.7749    1.0758   -0.1908 N.pl3     1 <1>        -0.2710
     22 O1          6.9754   -0.3276   -1.2142 O.2       1 <1>        -0.4818
     23 O2          2.9748    3.1052   -2.4177 O.2       1 <1>        -0.4715
     24 H1          6.7193   -4.2119    2.9735 H         1 <1>         0.1179
     25 H2         -1.8998    3.4964    0.0602 H         1 <1>         0.1291
     26 H3          7.2435   -3.8191    0.5802 H         1 <1>         0.1184
     27 H4          5.0627   -2.7748    4.1324 H         1 <1>         0.1213
     28 H5          0.1900    4.7978    0.3725 H         1 <1>         0.1352
     29 H6         -1.7893    1.0568   -0.3700 H         1 <1>         0.1334
     30 H7          6.1229   -2.0005   -0.6540 H         1 <1>         0.1358
     31 H8          3.9323   -0.9515    2.9140 H         1 <1>         0.1430
     32 H9          2.3835    3.6700    0.2564 H         1 <1>         0.1598
     33 H10         0.3971   -0.0855   -0.4891 H         1 <1>         0.1564
     34 H11         7.0629    1.4621   -3.1262 H         1 <1>         0.2132
     35 H12         5.2596    3.0178   -3.6775 H         1 <1>         0.2152
@<TRIPOS>BOND
     1    1    3 ar
     2    1    4 ar
     3    2    5 ar
     4    2    6 ar
     5    3    7 ar
     6    4    8 ar
     7    5    9 ar
     8    6   10 ar
     9    7   11 ar
    10    8   11 ar
    11    9   13 ar
    12   10   13 ar
    13   11   14 1
    14   12   14 1
    15   12   15 2
    16   12   18 1
    17   13   21 1
    18   14   20 2
    19   15   19 1
    20   15   21 1
    21   16   17 2
    22   16   18 1
    23   17   19 1
    24   18   22 2
    25   19   23 2
    26   20   21 1
    27    1   24 1
    28    2   25 1
    29    3   26 1
    30    4   27 1
    31    5   28 1
    32    6   29 1
    33    7   30 1
    34    8   31 1
    35    9   32 1
    36   10   33 1
    37   16   34 1
    38   17   35 1
