@<TRIPOS>MOLECULE
AJ-916/40989368
   36    39     0
SMALL
USER_CHARGE


@<TRIPOS>ATOM
      1 C1          5.4178   -2.1453    3.2349 C.ar      1 <1>        -0.0699
      2 C2          5.7668   -3.3918    2.7152 C.ar      1 <1>        -0.0709
      3 C3         -0.7791    1.3035    0.7163 C.ar      1 <1>        -0.0759
      4 C4          0.4722    1.1779    0.1131 C.ar      1 <1>        -0.0618
      5 C5          5.0077   -1.1229    2.3792 C.ar      1 <1>        -0.0422
      6 C6          5.7057   -3.6160    1.3400 C.ar      1 <1>        -0.0395
      7 C7         -1.4139    2.5450    0.7535 C.ar      1 <1>        -0.0652
      8 C8          0.4541    3.5353   -0.4155 C.ar      1 <1>        -0.0390
      9 C9          3.3236    0.3251    0.2482 C.2       1 <1>         0.0235
     10 C10         3.3738    1.2652   -0.7398 C.ar      1 <1>         0.0369
     11 C11         1.0889    2.2937   -0.4527 C.ar      1 <1>        -0.0205
     12 C12         4.6629    1.1491   -1.3756 C.ar      1 <1>         0.0514
     13 C13         4.9466   -1.3471    1.0039 C.ar      1 <1>         0.0188
     14 C14         5.2956   -2.5936    0.4841 C.ar      1 <1>         0.0332
     15 C15        -0.7973    3.6609    0.1877 C.ar      1 <1>        -0.0274
     16 C16         2.3718    2.1648   -1.0711 C.ar      1 <1>         0.0387
     17 C17         5.0011    1.9983   -2.4392 C.ar      1 <1>         0.0284
     18 C18         6.2800    2.0018   -3.1924 C.3       1 <1>         0.0141
     19 N1          5.3587    0.1657   -0.7797 N.2       1 <1>        -0.3153
     20 N2          2.7288    2.9731   -2.1045 N.ar      1 <1>        -0.3031
     21 N3          4.0253    2.8884   -2.7766 N.ar      1 <1>        -0.3045
     22 N4          4.5343   -0.3018    0.1793 N.pl3     1 <1>        -0.2890
     23 Cl1         5.2387   -2.9201   -1.2128 Cl        1 <1>        -0.1380
     24 Br1        -1.6573    5.3433    0.2399 Br        1 <1>        -0.1351
     25 H1          5.4664   -1.9711    4.3059 H         1 <1>         0.1428
     26 H2          6.0867   -4.1876    3.3817 H         1 <1>         0.1399
     27 H3         -1.2594    0.4348    1.1571 H         1 <1>         0.1348
     28 H4          0.9536    0.2031    0.0908 H         1 <1>         0.1424
     29 H5          4.7388   -0.1571    2.8006 H         1 <1>         0.1581
     30 H6          5.9832   -4.5928    0.9523 H         1 <1>         0.1592
     31 H7         -2.3892    2.6256    1.2276 H         1 <1>         0.1443
     32 H8          0.9361    4.4053   -0.8573 H         1 <1>         0.1677
     33 H9          2.5673    0.0487    0.9719 H         1 <1>         0.2528
     34 H10         6.2249    1.3238   -4.0560 H         1 <1>         0.1045
     35 H11         6.5298    3.0075   -3.5626 H         1 <1>         0.1008
     36 H12         7.1234    1.6838   -2.5610 H         1 <1>         0.1048
@<TRIPOS>BOND
     1    1    2 ar
     2    1    5 ar
     3    2    6 ar
     4    3    4 ar
     5    3    7 ar
     6    4   11 ar
     7    5   13 ar
     8    6   14 ar
     9    7   15 ar
    10    8   11 ar
    11    8   15 ar
    12    9   10 2
    13    9   22 1
    14   10   12 ar
    15   10   16 ar
    16   11   16 1
    17   12   17 ar
    18   12   19 2
    19   13   14 ar
    20   13   22 1
    21   14   23 1
    22   15   24 1
    23   16   20 ar
    24   17   18 1
    25   17   21 ar
    26   19   22 1
    27   20   21 ar
    28    1   25 1
    29    2   26 1
    30    3   27 1
    31    4   28 1
    32    5   29 1
    33    6   30 1
    34    7   31 1
    35    8   32 1
    36    9   33 1
    37   18   34 1
    38   18   35 1
    39   18   36 1
