@<TRIPOS>MOLECULE
AK-087/11538930
   36    38     0
SMALL
USER_CHARGE


@<TRIPOS>ATOM
      1 C1          6.3925    1.6375   -1.8330 C.1       1 <1>        -0.0188
      2 C2          6.0318   -3.2305    2.3615 C.ar      1 <1>        -0.0893
      3 C3          5.7835   -3.3401    0.9935 C.ar      1 <1>        -0.0803
      4 C4          5.6135   -2.0965    3.0577 C.ar      1 <1>        -0.0828
      5 C5          1.0865    3.1706   -0.4264 C.ar      1 <1>        -0.0746
      6 C6          0.0873    1.1309    0.3972 C.ar      1 <1>        -0.0749
      7 C7         -0.1525    3.8071   -0.3535 C.ar      1 <1>        -0.0950
      8 C8         -1.1516    1.7675    0.4704 C.ar      1 <1>        -0.0950
      9 C9          5.1170   -2.3155    0.3213 C.ar      1 <1>        -0.0583
     10 C10         4.9469   -1.0719    2.3857 C.ar      1 <1>        -0.0626
     11 C11         3.5223    1.4604   -1.0317 C.2       1 <1>        -0.0244
     12 C12         1.2064    1.8325   -0.0511 C.ar      1 <1>        -0.0470
     13 C13        -1.2715    3.1056    0.0950 C.ar      1 <1>        -0.1097
     14 C14         4.6987   -1.1815    1.0174 C.ar      1 <1>        -0.0262
     15 C15         2.4825    1.1779   -0.1258 C.2       1 <1>        -0.0040
     16 C16         4.5174    0.5740   -0.6994 C.2       1 <1>         0.0076
     17 C17        -2.5955    3.7875    0.1738 C.3       1 <1>        -0.0434
     18 C18         5.8594    0.3761   -1.2820 C.3       1 <1>         0.1099
     19 N1          6.8025    2.6338   -2.2643 N.1       1 <1>        -0.4112
     20 N2          2.7886    0.1892    0.7186 N.2       1 <1>        -0.3475
     21 N3          4.0320   -0.1573    0.3446 N.pl3     1 <1>        -0.3148
     22 H1          6.5491   -4.0287    2.8856 H         1 <1>         0.1238
     23 H2          6.1081   -4.2236    0.4514 H         1 <1>         0.1321
     24 H3          5.8058   -2.0127    4.1235 H         1 <1>         0.1298
     25 H4          1.9492    3.7314   -0.7788 H         1 <1>         0.1376
     26 H5          0.1646    0.0874    0.6935 H         1 <1>         0.1366
     27 H6         -0.2369    4.8501   -0.6471 H         1 <1>         0.1189
     28 H7         -2.0188    1.2140    0.8209 H         1 <1>         0.1197
     29 H8          4.9291   -2.4139   -0.7452 H         1 <1>         0.1516
     30 H9          4.6256   -0.1938    2.9406 H         1 <1>         0.1391
     31 H10         3.5502    2.2023   -1.8173 H         1 <1>         0.1588
     32 H11        -3.1407    3.6737   -0.7711 H         1 <1>         0.0600
     33 H12        -3.2106    3.3714    0.9824 H         1 <1>         0.0576
     34 H13        -2.4800    4.8592    0.3821 H         1 <1>         0.0574
     35 H14         5.8403   -0.3835   -2.0829 H         1 <1>         0.2048
     36 H15         6.5688   -0.0140   -0.5315 H         1 <1>         0.2142
@<TRIPOS>BOND
     1    1   18 1
     2    1   19 3
     3    2    3 ar
     4    2    4 ar
     5    3    9 ar
     6    4   10 ar
     7    5    7 ar
     8    5   12 ar
     9    6    8 ar
    10    6   12 ar
    11    7   13 ar
    12    8   13 ar
    13    9   14 ar
    14   10   14 ar
    15   11   15 1
    16   11   16 2
    17   12   15 1
    18   13   17 1
    19   14   21 1
    20   15   20 2
    21   16   18 1
    22   16   21 1
    23   20   21 1
    24    2   22 1
    25    3   23 1
    26    4   24 1
    27    5   25 1
    28    6   26 1
    29    7   27 1
    30    8   28 1
    31    9   29 1
    32   10   30 1
    33   11   31 1
    34   17   32 1
    35   17   33 1
    36   17   34 1
    37   18   35 1
    38   18   36 1
