@<TRIPOS>MOLECULE
AB-321/43115455
   42    45     0
SMALL
USER_CHARGE


@<TRIPOS>ATOM
      1 C1         -1.2185    3.2514   -0.0900 C.ar      1 <1>        -0.0999
      2 C2          6.1986   -3.2383    2.2696 C.ar      1 <1>        -0.0907
      3 C3          5.0826    2.3053   -2.8315 C.ar      1 <1>        -0.0881
      4 C4         -0.0369    3.9687    0.0972 C.ar      1 <1>        -0.0965
      5 C5         -1.1706    1.8766   -0.3208 C.ar      1 <1>        -0.0951
      6 C6          6.0574    1.3851   -2.4513 C.ar      1 <1>        -0.0837
      7 C7          5.9269   -3.3392    0.9051 C.ar      1 <1>        -0.0850
      8 C8          5.7765   -2.1170    2.9836 C.ar      1 <1>        -0.0835
      9 C9          3.8532    2.3629   -2.1650 C.ar      1 <1>        -0.0715
     10 C10         1.1924    3.3112    0.0536 C.ar      1 <1>        -0.0831
     11 C11         0.0588    1.2191   -0.3645 C.ar      1 <1>        -0.0816
     12 C12         5.8364    0.4952   -1.3962 C.ar      1 <1>        -0.0664
     13 C13         5.2331   -2.3187    0.2548 C.ar      1 <1>        -0.0669
     14 C14         5.0827   -1.0964    2.3334 C.ar      1 <1>        -0.0651
     15 C15         3.6076    1.4757   -1.0981 C.ar      1 <1>        -0.0336
     16 C16         1.2404    1.9364   -0.1773 C.ar      1 <1>        -0.0553
     17 C17         2.5070    1.2588   -0.2225 C.2       1 <1>         0.0013
     18 C18         4.6028    0.5642   -0.7391 C.ar      1 <1>        -0.0278
     19 C19         4.8112   -1.1973    0.9690 C.ar      1 <1>        -0.0360
     20 C20         2.8489    0.2385    0.6349 C.2       1 <1>         0.0794
     21 C21         2.0585   -0.3281    1.6911 C.2       1 <1>         0.1630
     22 C22         0.9283    0.1576    3.7529 C.3       1 <1>         0.0405
     23 N1          4.1148   -0.1738    0.3157 N.pl3     1 <1>        -0.3208
     24 O1          1.7067   -1.5240    1.7633 O.2       1 <1>        -0.4485
     25 O2          1.7177    0.6024    2.6445 O.3       1 <1>        -0.3818
     26 H1         -2.1759    3.7629   -0.0549 H         1 <1>         0.1130
     27 H2          6.7371   -4.0334    2.7767 H         1 <1>         0.1224
     28 H3          5.2773    2.9867   -3.6554 H         1 <1>         0.1191
     29 H4         -0.0740    5.0389    0.2783 H         1 <1>         0.1150
     30 H5         -2.0908    1.3180   -0.4653 H         1 <1>         0.1167
     31 H6          7.0052    1.3578   -2.9833 H         1 <1>         0.1303
     32 H7          6.2542   -4.2128    0.3492 H         1 <1>         0.1267
     33 H8          5.9872   -2.0397    4.0464 H         1 <1>         0.1282
     34 H9          3.1045    3.0871   -2.4730 H         1 <1>         0.1393
     35 H10         2.1047    3.8845    0.2013 H         1 <1>         0.1268
     36 H11         0.0792    0.1469   -0.5454 H         1 <1>         0.1285
     37 H12         6.6016   -0.2174   -1.1067 H         1 <1>         0.1370
     38 H13         5.0271   -2.4103   -0.8089 H         1 <1>         0.1415
     39 H14         4.7589   -0.2282    2.9022 H         1 <1>         0.1446
     40 H15         0.7358    0.9977    4.4246 H         1 <1>         0.1435
     41 H16         1.4608   -0.6343    4.2860 H         1 <1>         0.1219
     42 H17        -0.0214   -0.2323    3.3793 H         1 <1>         0.1222
@<TRIPOS>BOND
     1    1    4 ar
     2    1    5 ar
     3    2    7 ar
     4    2    8 ar
     5    3    6 ar
     6    3    9 ar
     7    4   10 ar
     8    5   11 ar
     9    6   12 ar
    10    7   13 ar
    11    8   14 ar
    12    9   15 ar
    13   10   16 ar
    14   11   16 ar
    15   12   18 ar
    16   13   19 ar
    17   14   19 ar
    18   15   17 1
    19   15   18 ar
    20   16   17 1
    21   17   20 2
    22   18   23 1
    23   19   23 1
    24   20   21 1
    25   20   23 1
    26   21   24 2
    27   21   25 1
    28   22   25 1
    29    1   26 1
    30    2   27 1
    31    3   28 1
    32    4   29 1
    33    5   30 1
    34    6   31 1
    35    7   32 1
    36    8   33 1
    37    9   34 1
    38   10   35 1
    39   11   36 1
    40   12   37 1
    41   13   38 1
    42   14   39 1
    43   22   40 1
    44   22   41 1
    45   22   42 1
