@<TRIPOS>MOLECULE
AK-087/42718235
   33    35     0
SMALL
USER_CHARGE


@<TRIPOS>ATOM
      1 C1          6.3923    1.6371   -1.8336 C.1       1 <1>        -0.0184
      2 C2          6.0317   -3.2305    2.3616 C.ar      1 <1>        -0.0890
      3 C3          5.7832   -3.3402    0.9934 C.ar      1 <1>        -0.0825
      4 C4          5.6136   -2.0963    3.0577 C.ar      1 <1>        -0.0800
      5 C5          1.0863    3.1710   -0.4263 C.ar      1 <1>        -0.0581
      6 C6          0.0878    1.1310    0.3972 C.ar      1 <1>        -0.0579
      7 C7          5.1168   -2.3157    0.3214 C.ar      1 <1>        -0.0623
      8 C8          4.9471   -1.0718    2.3856 C.ar      1 <1>        -0.0580
      9 C9         -0.1529    3.8070   -0.3534 C.ar      1 <1>        -0.0541
     10 C10        -1.1515    1.7670    0.4701 C.ar      1 <1>        -0.0541
     11 C11         3.5223    1.4604   -1.0318 C.2       1 <1>        -0.0227
     12 C12         1.2067    1.8329   -0.0510 C.ar      1 <1>        -0.0372
     13 C13         4.6987   -1.1814    1.0174 C.ar      1 <1>        -0.0256
     14 C14        -1.2719    3.1050    0.0949 C.ar      1 <1>        -0.0154
     15 C15         2.4825    1.1782   -0.1257 C.2       1 <1>        -0.0003
     16 C16         4.5174    0.5740   -0.6996 C.2       1 <1>         0.0087
     17 C17         5.8591    0.3758   -1.2823 C.3       1 <1>         0.1104
     18 N1          6.8024    2.6333   -2.2649 N.1       1 <1>        -0.4108
     19 N2          2.7888    0.1895    0.7187 N.2       1 <1>        -0.3455
     20 N3          4.0320   -0.1571    0.3445 N.pl3     1 <1>        -0.3137
     21 Cl1        -2.8015    3.8885    0.1839 Cl        1 <1>        -0.1852
     22 H1          6.5491   -4.0287    2.8857 H         1 <1>         0.1244
     23 H2          6.1076   -4.2238    0.4515 H         1 <1>         0.1303
     24 H3          5.8062   -2.0123    4.1234 H         1 <1>         0.1325
     25 H4          1.9488    3.7329   -0.7778 H         1 <1>         0.1503
     26 H5          0.1655    0.0875    0.6934 H         1 <1>         0.1511
     27 H6          4.9288   -2.4141   -0.7451 H         1 <1>         0.1395
     28 H7          4.6260   -0.1935    2.9405 H         1 <1>         0.1519
     29 H8         -0.2320    4.8500   -0.6491 H         1 <1>         0.1462
     30 H9         -2.0148    1.2071    0.8201 H         1 <1>         0.1454
     31 H10         3.5503    2.2022   -1.8176 H         1 <1>         0.1604
     32 H11         5.8399   -0.3838   -2.0832 H         1 <1>         0.2053
     33 H12         6.5687   -0.0144   -0.5321 H         1 <1>         0.2148
@<TRIPOS>BOND
     1    1   17 1
     2    1   18 3
     3    2    3 ar
     4    2    4 ar
     5    3    7 ar
     6    4    8 ar
     7    5    9 ar
     8    5   12 ar
     9    6   10 ar
    10    6   12 ar
    11    7   13 ar
    12    8   13 ar
    13    9   14 ar
    14   10   14 ar
    15   11   15 1
    16   11   16 2
    17   12   15 1
    18   13   20 1
    19   14   21 1
    20   15   19 2
    21   16   17 1
    22   16   20 1
    23   19   20 1
    24    2   22 1
    25    3   23 1
    26    4   24 1
    27    5   25 1
    28    6   26 1
    29    7   27 1
    30    8   28 1
    31    9   29 1
    32   10   30 1
    33   11   31 1
    34   17   32 1
    35   17   33 1
