@<TRIPOS>MOLECULE
AP-960/41299812
   40    43     0
SMALL
USER_CHARGE


@<TRIPOS>ATOM
      1 C1          5.2166   -2.4840    0.4044 C.ar      1 <1>        -0.0371
      2 C2          4.8169   -1.1009    2.3446 C.ar      1 <1>        -0.0373
      3 C3          1.0103    3.1711    0.2977 C.ar      1 <1>        -0.0367
      4 C4         -0.1154    1.1216   -0.3103 C.ar      1 <1>        -0.0364
      5 C5          5.7941   -3.4587    1.2182 C.ar      1 <1>        -0.0397
      6 C6          5.3944   -2.0755    3.1583 C.ar      1 <1>        -0.0398
      7 C7         -0.2216    3.7685    0.5646 C.ar      1 <1>        -0.0408
      8 C8         -1.3473    1.7191   -0.0434 C.ar      1 <1>        -0.0405
      9 C9          4.7281   -1.3051    0.9677 C.ar      1 <1>         0.0008
     10 C10         1.0634    1.8478   -0.1397 C.ar      1 <1>         0.0063
     11 C11         5.8829   -3.2544    2.5951 C.ar      1 <1>        -0.0019
     12 C12        -1.4003    3.0426    0.3941 C.ar      1 <1>        -0.0036
     13 C13         4.4301    1.2626   -1.6788 C.2       1 <1>         0.0524
     14 C14         4.8974    0.2830   -0.8915 C.2       1 <1>         0.0744
     15 C15         3.1013    1.8583   -1.4157 C.2       1 <1>         0.1275
     16 C16         2.7565    0.0701    0.3257 C.2       1 <1>         0.0431
     17 C17         5.2252    1.8478   -2.8138 C.3       1 <1>         0.0175
     18 C18         6.4708    1.0217   -3.1036 C.3       1 <1>        -0.0082
     19 C19         7.0962    0.5945   -1.7893 C.3       1 <1>         0.0374
     20 N1          4.1296   -0.2957    0.1247 N.pl3     1 <1>        -0.2787
     21 N2          2.3397    1.2285   -0.4158 N.am      1 <1>        -0.2637
     22 O1          2.7671    2.8638   -2.0444 O.2       1 <1>        -0.4800
     23 O2          6.1931   -0.2056   -1.0228 O.3       1 <1>        -0.4113
     24 S1          1.6689   -0.8831    1.2461 S.2       1 <1>        -0.1886
     25 Cl1         6.5953   -4.4574    3.5992 Cl        1 <1>        -0.1724
     26 Cl2        -2.9203    3.7800    0.7234 Cl        1 <1>        -0.1750
     27 H1          5.1528   -2.6533   -0.6674 H         1 <1>         0.1652
     28 H2          4.4394   -0.1859    2.7939 H         1 <1>         0.1647
     29 H3          1.9226    3.7461    0.4337 H         1 <1>         0.1633
     30 H4         -0.0856    0.0898   -0.6505 H         1 <1>         0.1640
     31 H5          6.1703   -4.3726    0.7658 H         1 <1>         0.1598
     32 H6          5.4571   -1.9031    4.2297 H         1 <1>         0.1597
     33 H7         -0.2481    4.8005    0.9050 H         1 <1>         0.1580
     34 H8         -2.2578    1.1417   -0.1807 H         1 <1>         0.1584
     35 H9          4.5925    1.8813   -3.7093 H         1 <1>         0.0898
     36 H10         5.5260    2.8767   -2.5850 H         1 <1>         0.0957
     37 H11         6.2190    0.1525   -3.7196 H         1 <1>         0.0814
     38 H12         7.1862    1.6348   -3.6661 H         1 <1>         0.0726
     39 H13         8.0248    0.0326   -1.9486 H         1 <1>         0.1376
     40 H14         7.3448    1.4759   -1.1892 H         1 <1>         0.1623
@<TRIPOS>BOND
     1    1    5 ar
     2    1    9 ar
     3    2    6 ar
     4    2    9 ar
     5    3    7 ar
     6    3   10 ar
     7    4    8 ar
     8    4   10 ar
     9    5   11 ar
    10    6   11 ar
    11    7   12 ar
    12    8   12 ar
    13    9   20 1
    14   10   21 1
    15   11   25 1
    16   12   26 1
    17   13   14 2
    18   13   15 1
    19   13   17 1
    20   14   20 1
    21   14   23 1
    22   15   21 am
    23   15   22 2
    24   16   20 1
    25   16   21 1
    26   16   24 2
    27   17   18 1
    28   18   19 1
    29   19   23 1
    30    1   27 1
    31    2   28 1
    32    3   29 1
    33    4   30 1
    34    5   31 1
    35    6   32 1
    36    7   33 1
    37    8   34 1
    38   17   35 1
    39   17   36 1
    40   18   37 1
    41   18   38 1
    42   19   39 1
    43   19   40 1
