@<TRIPOS>MOLECULE
AG-205/12497019
   34    36     0
SMALL
USER_CHARGE


@<TRIPOS>ATOM
      1 C1          1.1674    3.1402   -0.4455 C.ar      1 <1>        -0.0578
      2 C2          0.1513    1.1114    0.3848 C.ar      1 <1>        -0.0576
      3 C3          5.7948   -3.4027    1.0471 C.ar      1 <1>        -0.0842
      4 C4          5.6248   -2.1419    3.1010 C.ar      1 <1>        -0.0872
      5 C5          5.1467   -2.3746    0.3624 C.ar      1 <1>        -0.0577
      6 C6          4.9767   -1.1138    2.4162 C.ar      1 <1>        -0.0625
      7 C7         -0.0685    3.7841   -0.3843 C.ar      1 <1>        -0.0545
      8 C8         -1.0845    1.7555    0.4459 C.ar      1 <1>        -0.0546
      9 C9          3.5957    1.4121   -1.0256 C.2       1 <1>        -0.0302
     10 C10         1.2773    1.8038   -0.0611 C.ar      1 <1>        -0.0370
     11 C11         6.0338   -3.2862    2.4164 C.ar      1 <1>        -0.1040
     12 C12         4.7377   -1.2302    1.0470 C.ar      1 <1>        -0.0244
     13 C13        -1.1943    3.0918    0.0615 C.ar      1 <1>        -0.0165
     14 C14         2.5495    1.1409   -0.1236 C.2       1 <1>        -0.0016
     15 C15         4.5838    0.5217   -0.6832 C.2       1 <1>        -0.0108
     16 C16         6.7266   -4.3854    3.1485 C.3       1 <1>        -0.0418
     17 N1          2.8454    0.1551    0.7277 N.2       1 <1>        -0.3472
     18 N2          4.0886   -0.2009    0.3621 N.pl3     1 <1>        -0.3182
     19 N3          5.8159    0.3077   -1.1925 N.pl3     1 <1>        -0.3439
     20 Cl1        -2.7198    3.8850    0.1361 Cl        1 <1>        -0.1869
     21 H1          2.0352    3.6946   -0.7953 H         1 <1>         0.1506
     22 H2          0.2208    0.0693    0.6879 H         1 <1>         0.1514
     23 H3          6.1103   -4.2908    0.5063 H         1 <1>         0.1313
     24 H4          5.8065   -2.0427    4.1679 H         1 <1>         0.1289
     25 H5          4.9660   -2.4783   -0.7049 H         1 <1>         0.1520
     26 H6          4.6631   -0.2276    2.9628 H         1 <1>         0.1395
     27 H7         -0.1394    4.8257   -0.6871 H         1 <1>         0.1450
     28 H8         -1.9534    1.2030    0.7940 H         1 <1>         0.1443
     29 H9          3.6318    2.1496   -1.8151 H         1 <1>         0.1485
     30 H10         7.8118   -4.2250    3.1402 H         1 <1>         0.0611
     31 H11         6.3915   -4.4420    4.1923 H         1 <1>         0.0584
     32 H12         6.5157   -5.3620    2.6937 H         1 <1>         0.0587
     33 H13         6.1667    0.8226   -2.0134 H         1 <1>         0.2497
     34 H14         6.4290   -0.4448   -0.8456 H         1 <1>         0.2595
@<TRIPOS>BOND
     1    1    7 ar
     2    1   10 ar
     3    2    8 ar
     4    2   10 ar
     5    3    5 ar
     6    3   11 ar
     7    4    6 ar
     8    4   11 ar
     9    5   12 ar
    10    6   12 ar
    11    7   13 ar
    12    8   13 ar
    13    9   14 1
    14    9   15 2
    15   10   14 1
    16   11   16 1
    17   12   18 1
    18   13   20 1
    19   14   17 2
    20   15   18 1
    21   15   19 1
    22   17   18 1
    23    1   21 1
    24    2   22 1
    25    3   23 1
    26    4   24 1
    27    5   25 1
    28    6   26 1
    29    7   27 1
    30    8   28 1
    31    9   29 1
    32   16   30 1
    33   16   31 1
    34   16   32 1
    35   19   33 1
    36   19   34 1
