@<TRIPOS>MOLECULE
AH-357/03542020
   30    32     0
SMALL
USER_CHARGE


@<TRIPOS>ATOM
      1 C1          6.0109   -3.1668    2.3052 C.ar      1 <1>        -0.1006
      2 C2         -1.5552    3.1155    0.2512 C.ar      1 <1>        -0.1006
      3 C3          6.2651   -2.9193    0.9562 C.ar      1 <1>        -0.0951
      4 C4          5.0778   -2.3909    2.9930 C.ar      1 <1>        -0.0983
      5 C5         -0.4828    3.8689   -0.2264 C.ar      1 <1>        -0.0983
      6 C6         -1.3691    1.7760    0.5930 C.ar      1 <1>        -0.0951
      7 C7          5.5861   -1.8957    0.2950 C.ar      1 <1>        -0.0851
      8 C8          4.3988   -1.3674    2.3319 C.ar      1 <1>        -0.0904
      9 C9          0.7756    3.2827   -0.3621 C.ar      1 <1>        -0.0904
     10 C10        -0.1107    1.1898    0.4574 C.ar      1 <1>        -0.0851
     11 C11         4.3469    0.7278   -0.7578 C.2       1 <1>        -0.0824
     12 C12         3.2797    1.6130   -1.0480 C.2       1 <1>        -0.0824
     13 C13         4.6531   -1.1197    0.9828 C.ar      1 <1>        -0.0769
     14 C14         0.9617    1.9432   -0.0202 C.ar      1 <1>        -0.0769
     15 C15         3.9505   -0.0621    0.2988 C.2       1 <1>        -0.0647
     16 C16         2.2634    1.3374   -0.1598 C.2       1 <1>        -0.0647
     17 N1          2.6825    0.3175    0.6542 N.pl3     1 <1>        -0.3613
     18 H1          6.5390   -3.9642    2.8198 H         1 <1>         0.1131
     19 H2         -2.5349    3.5721    0.3573 H         1 <1>         0.1131
     20 H3          6.9918   -3.5234    0.4210 H         1 <1>         0.1197
     21 H4          4.8790   -2.5845    4.0431 H         1 <1>         0.1155
     22 H5         -0.6280    4.9116   -0.4929 H         1 <1>         0.1156
     23 H6         -2.2040    1.1897    0.9661 H         1 <1>         0.1197
     24 H7          5.7935   -1.7169   -0.7574 H         1 <1>         0.1314
     25 H8          3.6752   -0.7708    2.8822 H         1 <1>         0.1163
     26 H9          1.6022    3.8839   -0.7334 H         1 <1>         0.1162
     27 H10         0.0178    0.1443    0.7271 H         1 <1>         0.1314
     28 H11         5.2995    0.6758   -1.2676 H         1 <1>         0.1256
     29 H12         3.2599    2.3684   -1.8219 H         1 <1>         0.1256
     30 H13         2.1395   -0.0921    1.4027 H         1 <1>         0.3055
@<TRIPOS>BOND
     1    1    3 ar
     2    1    4 ar
     3    2    5 ar
     4    2    6 ar
     5    3    7 ar
     6    4    8 ar
     7    5    9 ar
     8    6   10 ar
     9    7   13 ar
    10    8   13 ar
    11    9   14 ar
    12   10   14 ar
    13   11   12 1
    14   11   15 2
    15   12   16 2
    16   13   15 1
    17   14   16 1
    18   15   17 1
    19   16   17 1
    20    1   18 1
    21    2   19 1
    22    3   20 1
    23    4   21 1
    24    5   22 1
    25    6   23 1
    26    7   24 1
    27    8   25 1
    28    9   26 1
    29   10   27 1
    30   11   28 1
    31   12   29 1
    32   17   30 1
