@<TRIPOS>MOLECULE
AK-087/42718333
   36    38     0
SMALL
USER_CHARGE


@<TRIPOS>ATOM
      1 C1          6.3925    1.6377   -1.8329 C.1       1 <1>        -0.0184
      2 C2          1.0865    3.1705   -0.4263 C.ar      1 <1>        -0.0743
      3 C3          0.0873    1.1309    0.3971 C.ar      1 <1>        -0.0746
      4 C4         -0.1524    3.8072   -0.3533 C.ar      1 <1>        -0.0948
      5 C5         -1.1517    1.7674    0.4702 C.ar      1 <1>        -0.0947
      6 C6          5.1171   -2.3158    0.3212 C.ar      1 <1>        -0.0412
      7 C7          4.9467   -1.0719    2.3855 C.ar      1 <1>        -0.0458
      8 C8          5.7837   -3.3401    0.9936 C.ar      1 <1>        -0.0421
      9 C9          5.6133   -2.0962    3.0578 C.ar      1 <1>        -0.0446
     10 C10         3.5223    1.4604   -1.0317 C.2       1 <1>        -0.0231
     11 C11         1.2065    1.8324   -0.0512 C.ar      1 <1>        -0.0464
     12 C12        -1.2715    3.1056    0.0951 C.ar      1 <1>        -0.1095
     13 C13         4.6987   -1.1816    1.0172 C.ar      1 <1>        -0.0161
     14 C14         6.0318   -3.2304    2.3619 C.ar      1 <1>        -0.0066
     15 C15         2.4824    1.1778   -0.1258 C.2       1 <1>        -0.0029
     16 C16         4.5175    0.5740   -0.6995 C.2       1 <1>         0.0089
     17 C17        -2.5955    3.7874    0.1739 C.3       1 <1>        -0.0433
     18 C18         5.8594    0.3762   -1.2820 C.3       1 <1>         0.1103
     19 N1          6.8024    2.6340   -2.2641 N.1       1 <1>        -0.4106
     20 N2          2.7884    0.1891    0.7185 N.2       1 <1>        -0.3461
     21 N3          4.0320   -0.1573    0.3443 N.pl3     1 <1>        -0.3116
     22 Cl1         6.8520   -4.4954    3.1915 Cl        1 <1>        -0.1780
     23 H1          1.9491    3.7314   -0.7786 H         1 <1>         0.1379
     24 H2          0.1645    0.0872    0.6932 H         1 <1>         0.1369
     25 H3         -0.2370    4.8501   -0.6468 H         1 <1>         0.1193
     26 H4         -2.0188    1.2138    0.8207 H         1 <1>         0.1200
     27 H5          4.9302   -2.4146   -0.7453 H         1 <1>         0.1667
     28 H6          4.6256   -0.1934    2.9400 H         1 <1>         0.1534
     29 H7          6.1048   -4.2181    0.4389 H         1 <1>         0.1586
     30 H8          5.8001   -1.9970    4.1241 H         1 <1>         0.1564
     31 H9          3.5502    2.2024   -1.8173 H         1 <1>         0.1608
     32 H10        -3.1406    3.6738   -0.7711 H         1 <1>         0.0602
     33 H11        -3.2106    3.3713    0.9825 H         1 <1>         0.0578
     34 H12        -2.4800    4.8591    0.3823 H         1 <1>         0.0576
     35 H13         5.8403   -0.3833   -2.0831 H         1 <1>         0.2047
     36 H14         6.5688   -0.0140   -0.5316 H         1 <1>         0.2148
@<TRIPOS>BOND
     1    1   18 1
     2    1   19 3
     3    2    4 ar
     4    2   11 ar
     5    3    5 ar
     6    3   11 ar
     7    4   12 ar
     8    5   12 ar
     9    6    8 ar
    10    6   13 ar
    11    7    9 ar
    12    7   13 ar
    13    8   14 ar
    14    9   14 ar
    15   10   15 1
    16   10   16 2
    17   11   15 1
    18   12   17 1
    19   13   21 1
    20   14   22 1
    21   15   20 2
    22   16   18 1
    23   16   21 1
    24   20   21 1
    25    2   23 1
    26    3   24 1
    27    4   25 1
    28    5   26 1
    29    6   27 1
    30    7   28 1
    31    8   29 1
    32    9   30 1
    33   10   31 1
    34   17   32 1
    35   17   33 1
    36   17   34 1
    37   18   35 1
    38   18   36 1
