@<TRIPOS>MOLECULE
AK-087/42718336
   37    39     0
SMALL
USER_CHARGE


@<TRIPOS>ATOM
      1 C1          5.8723    0.7192   -2.7185 C.1       1 <1>        -0.0185
      2 C2          1.1399    3.2042    0.1967 C.ar      1 <1>        -0.0603
      3 C3          0.0343    1.0978   -0.2250 C.ar      1 <1>        -0.0601
      4 C4          5.1170   -2.3162    0.3213 C.ar      1 <1>        -0.0446
      5 C5          4.9470   -1.0716    2.3851 C.ar      1 <1>        -0.0455
      6 C6          5.7835   -3.3404    0.9939 C.ar      1 <1>        -0.0456
      7 C7          5.6133   -2.0958    3.0577 C.ar      1 <1>        -0.0504
      8 C8         -0.0993    3.8402    0.2688 C.ar      1 <1>        -0.0625
      9 C9         -1.2049    1.7338   -0.1528 C.ar      1 <1>        -0.0626
     10 C10         3.5221    1.4605   -1.0317 C.2       1 <1>        -0.0228
     11 C11         1.2069    1.8330   -0.0505 C.ar      1 <1>        -0.0374
     12 C12         4.6988   -1.1818    1.0169 C.ar      1 <1>        -0.0187
     13 C13         6.0317   -3.2303    2.3621 C.ar      1 <1>        -0.0289
     14 C14        -1.2718    3.1050    0.0942 C.ar      1 <1>        -0.0369
     15 C15         2.4826    1.1781   -0.1254 C.2       1 <1>        -0.0001
     16 C16         4.5173    0.5738   -0.6997 C.2       1 <1>         0.0084
     17 C17         6.9016   -4.0513    4.4177 C.3       1 <1>         0.0120
     18 C18         5.8590    0.3757   -1.2828 C.3       1 <1>         0.1102
     19 N1          5.8723    0.9905   -3.8467 N.1       1 <1>        -0.4108
     20 N2          2.7889    0.1894    0.7188 N.2       1 <1>        -0.3455
     21 N3          4.0320   -0.1573    0.3443 N.pl3     1 <1>        -0.3128
     22 O1          6.6812   -4.2297    3.0194 O.3       1 <1>        -0.4606
     23 Br1        -2.9508    3.9670    0.1907 Br        1 <1>        -0.1428
     24 H1          2.0446    3.7914    0.3349 H         1 <1>         0.1494
     25 H2          0.0698    0.0282   -0.4198 H         1 <1>         0.1501
     26 H3          4.9304   -2.4151   -0.7454 H         1 <1>         0.1559
     27 H4          4.6269   -0.1925    2.9391 H         1 <1>         0.1618
     28 H5          6.1069   -4.2220    0.4471 H         1 <1>         0.1568
     29 H6          5.8030   -2.0038    4.1237 H         1 <1>         0.1419
     30 H7         -0.1335    4.9093    0.4607 H         1 <1>         0.1438
     31 H8         -2.1091    1.1468   -0.2930 H         1 <1>         0.1430
     32 H9          3.5501    2.2022   -1.8173 H         1 <1>         0.1599
     33 H10         7.4286   -4.9207    4.8181 H         1 <1>         0.1101
     34 H11         5.9419   -3.9275    4.9258 H         1 <1>         0.1102
     35 H12         7.5103   -3.1569    4.5702 H         1 <1>         0.1341
     36 H13         6.1980   -0.6681   -1.1625 H         1 <1>         0.2052
     37 H14         6.6168    0.9868   -0.7624 H         1 <1>         0.2147
@<TRIPOS>BOND
     1    1   18 1
     2    1   19 3
     3    2    8 ar
     4    2   11 ar
     5    3    9 ar
     6    3   11 ar
     7    4    6 ar
     8    4   12 ar
     9    5    7 ar
    10    5   12 ar
    11    6   13 ar
    12    7   13 ar
    13    8   14 ar
    14    9   14 ar
    15   10   15 1
    16   10   16 2
    17   11   15 1
    18   12   21 1
    19   13   22 1
    20   14   23 1
    21   15   20 2
    22   16   18 1
    23   16   21 1
    24   17   22 1
    25   20   21 1
    26    2   24 1
    27    3   25 1
    28    4   26 1
    29    5   27 1
    30    6   28 1
    31    7   29 1
    32    8   30 1
    33    9   31 1
    34   10   32 1
    35   17   33 1
    36   17   34 1
    37   17   35 1
    38   18   36 1
    39   18   37 1
