@<TRIPOS>MOLECULE
AH-487/40652398
   59    63     0
SMALL
USER_CHARGE


@<TRIPOS>ATOM
      1 C1          5.1542   -3.3247    2.9774 C.ar      1 <1>        -0.0948
      2 C2         -1.2675    2.0936    1.1424 C.ar      1 <1>        -0.0901
      3 C3          5.8117   -3.4244    1.7515 C.ar      1 <1>        -0.0903
      4 C4          4.3463   -2.2202    3.2477 C.ar      1 <1>        -0.0891
      5 C5         -0.8553    0.9525    0.4544 C.ar      1 <1>        -0.0808
      6 C6         -0.4853    3.2481    1.1104 C.ar      1 <1>        -0.0811
      7 C7          5.6614   -2.4197    0.7956 C.ar      1 <1>        -0.0727
      8 C8          4.1961   -1.2153    2.2920 C.ar      1 <1>        -0.0698
      9 C9          4.0698    3.0410   -4.8816 C.ar      1 <1>        -0.0674
     10 C10         4.9869    4.6517   -3.3320 C.ar      1 <1>        -0.0683
     11 C11         4.5997    3.7660   -5.9488 C.ar      1 <1>        -0.0902
     12 C12         5.5169    5.3768   -4.3993 C.ar      1 <1>        -0.0896
     13 C13         0.3394    0.9658   -0.2657 C.ar      1 <1>        -0.0545
     14 C14         0.7092    3.2613    0.3904 C.ar      1 <1>        -0.0547
     15 C15         5.7308   -0.0036   -0.8167 C.ar      1 <1>         0.0115
     16 C16         4.3369    1.6914   -1.7542 C.ar      1 <1>         0.0673
     17 C17         4.8536   -1.3152    1.0659 C.ar      1 <1>        -0.0427
     18 C18         4.2634    3.4839   -3.5732 C.ar      1 <1>        -0.0298
     19 C19         5.3232    4.9340   -5.7078 C.ar      1 <1>        -0.1080
     20 C20         5.5580    1.0059   -1.7637 C.ar      1 <1>         0.1118
     21 C21         1.1216    2.1202   -0.2977 C.ar      1 <1>        -0.0084
     22 C22         4.6979   -0.2739    0.0748 C.ar      1 <1>         0.0052
     23 C23         3.7164    2.7339   -2.4708 C.2       1 <1>         0.0436
     24 C24         3.3916    1.3211   -0.8104 C.ar      1 <1>         0.0629
     25 C25         4.7676    6.1889   -7.8201 C.3       1 <1>        -0.0604
     26 C26         6.8899    4.8427   -7.6785 C.3       1 <1>        -0.0605
     27 C27         6.6834    6.9988   -6.4577 C.3       1 <1>        -0.0604
     28 C28         5.8904    5.7078   -6.8494 C.3       1 <1>        -0.0511
     29 C29         6.6650    1.3004   -2.7217 C.3       1 <1>         0.3556
     30 N1          3.5013    0.3601    0.1235 N.ar      1 <1>        -0.3405
     31 N2          2.4851    3.0068   -2.0264 N.2       1 <1>        -0.3081
     32 N3          2.3156    2.1326   -1.0179 N.pl3     1 <1>        -0.2774
     33 F1          7.7634    0.5089   -2.5464 F         1 <1>        -0.2085
     34 F2          6.3113    1.1366   -4.0300 F         1 <1>        -0.2060
     35 F3          7.1168    2.5837   -2.6208 F         1 <1>        -0.2057
     36 H1          5.2700   -4.1079    3.7209 H         1 <1>         0.1210
     37 H2         -2.1984    2.0844    1.7016 H         1 <1>         0.1213
     38 H3          6.4393   -4.2852    1.5401 H         1 <1>         0.1217
     39 H4          3.8330   -2.1425    4.2017 H         1 <1>         0.1215
     40 H5         -1.4649    0.0540    0.4780 H         1 <1>         0.1304
     41 H6         -0.8078    4.1367    1.6453 H         1 <1>         0.1297
     42 H7          6.1804   -2.5123   -0.1556 H         1 <1>         0.1365
     43 H8          3.5625   -0.3606    2.5166 H         1 <1>         0.1448
     44 H9          3.5076    2.1330   -5.0866 H         1 <1>         0.1445
     45 H10         5.1465    5.0100   -2.3176 H         1 <1>         0.1387
     46 H11         4.4450    3.4137   -6.9652 H         1 <1>         0.1245
     47 H12         6.0795    6.2857   -4.2029 H         1 <1>         0.1271
     48 H13         0.6488    0.0698   -0.7983 H         1 <1>         0.1501
     49 H14         1.3090    4.1681    0.3732 H         1 <1>         0.1495
     50 H15         6.6607   -0.5656   -0.7804 H         1 <1>         0.1869
     51 H16         5.1584    6.7612   -8.6696 H         1 <1>         0.0389
     52 H17         4.2064    5.3442   -8.2345 H         1 <1>         0.0404
     53 H18         4.0539    6.8282   -7.2871 H         1 <1>         0.0392
     54 H19         7.3088    5.4079   -8.5183 H         1 <1>         0.0392
     55 H20         7.7358    4.4831   -7.0810 H         1 <1>         0.0393
     56 H21         6.3786    3.9663   -8.0941 H         1 <1>         0.0391
     57 H22         7.0799    7.5321   -7.3300 H         1 <1>         0.0392
     58 H23         6.0401    7.7020   -5.9159 H         1 <1>         0.0404
     59 H24         7.5371    6.7522   -5.8157 H         1 <1>         0.0390
@<TRIPOS>BOND
     1    1    3 ar
     2    1    4 ar
     3    2    5 ar
     4    2    6 ar
     5    3    7 ar
     6    4    8 ar
     7    5   13 ar
     8    6   14 ar
     9    7   17 ar
    10    8   17 ar
    11    9   11 ar
    12    9   18 ar
    13   10   12 ar
    14   10   18 ar
    15   11   19 ar
    16   12   19 ar
    17   13   21 ar
    18   14   21 ar
    19   15   20 ar
    20   15   22 ar
    21   16   20 ar
    22   16   23 1
    23   16   24 ar
    24   17   22 1
    25   18   23 1
    26   19   28 1
    27   20   29 1
    28   21   32 1
    29   22   30 ar
    30   23   31 2
    31   24   30 ar
    32   24   32 1
    33   25   28 1
    34   26   28 1
    35   27   28 1
    36   29   33 1
    37   29   34 1
    38   29   35 1
    39   31   32 1
    40    1   36 1
    41    2   37 1
    42    3   38 1
    43    4   39 1
    44    5   40 1
    45    6   41 1
    46    7   42 1
    47    8   43 1
    48    9   44 1
    49   10   45 1
    50   11   46 1
    51   12   47 1
    52   13   48 1
    53   14   49 1
    54   15   50 1
    55   25   51 1
    56   25   52 1
    57   25   53 1
    58   26   54 1
    59   26   55 1
    60   26   56 1
    61   27   57 1
    62   27   58 1
    63   27   59 1
