@<TRIPOS>MOLECULE
AG-690/11480698
   26    28     0
SMALL
USER_CHARGE


@<TRIPOS>ATOM
      1 C1          0.2018    1.2680   -0.7455 C.ar      1 <1>        -0.0724
      2 C2          1.0919    2.9325    0.7626 C.ar      1 <1>        -0.0680
      3 C3         -1.0528    1.3999   -0.1506 C.ar      1 <1>        -0.0612
      4 C4         -0.1628    3.0644    1.3576 C.ar      1 <1>        -0.0577
      5 C5          2.9052    2.6927   -1.9773 C.2       1 <1>         0.0023
      6 C6          1.2743    2.0342   -0.2888 C.ar      1 <1>        -0.0571
      7 C7          2.5696    1.8984   -0.9032 C.2       1 <1>        -0.0073
      8 C8          3.6278    1.0151   -0.5476 C.2       1 <1>         0.0490
      9 C9         -1.2351    2.2980    0.9009 C.ar      1 <1>        -0.0192
     10 C10         4.7376    1.1648   -1.3635 C.2       1 <1>         0.0587
     11 C11         5.9354   -0.4047   -0.3335 C.2       1 <1>         0.0181
     12 C12         3.6658    0.0260    0.5218 C.2       1 <1>         0.0817
     13 N1          5.9107    0.4742   -1.2894 N.2       1 <1>        -0.3384
     14 N2          4.8917   -0.6515    0.5509 N.am      1 <1>        -0.3507
     15 N3          5.0871   -1.6329    1.5145 N.3       1 <1>         0.4476
     16 O1          2.7259   -0.1683    1.2864 O.2       1 <1>        -0.4988
     17 S1          4.4863    2.3708   -2.5493 S.3       1 <1>        -0.0946
     18 Cl1        -2.7825    2.4606    1.6365 Cl        1 <1>        -0.1889
     19 H1          0.3268    0.5632   -1.5644 H         1 <1>         0.1376
     20 H2          1.9180    3.5367    1.1299 H         1 <1>         0.1458
     21 H3         -1.8794    0.7963   -0.5166 H         1 <1>         0.1391
     22 H4         -0.2897    3.7673    2.1769 H         1 <1>         0.1430
     23 H5          2.3054    3.4511   -2.4625 H         1 <1>         0.2077
     24 H6          6.8298   -1.0278   -0.1706 H         1 <1>         0.3217
     25 H7          5.6965   -2.3819    1.1563 H         1 <1>         0.0315
     26 H8          4.2000   -2.1056    1.7375 H         1 <1>         0.0305
@<TRIPOS>BOND
     1    1    3 ar
     2    1    6 ar
     3    2    4 ar
     4    2    6 ar
     5    3    9 ar
     6    4    9 ar
     7    5    7 2
     8    5   17 1
     9    6    7 1
    10    7    8 1
    11    8   10 2
    12    8   12 1
    13    9   18 1
    14   10   13 1
    15   10   17 1
    16   11   13 2
    17   11   14 1
    18   12   14 am
    19   12   16 2
    20   14   15 1
    21    1   19 1
    22    2   20 1
    23    3   21 1
    24    4   22 1
    25    5   23 1
    26   11   24 1
    27   15   25 1
    28   15   26 1
