# Name:		AG-205/11218394
# Created and modified by SHAFTS on Tue Sep 23 17:55:44 2014

# 

@<TRIPOS>MOLECULE
AG-205/11218394
   36    39     0
SMALL
USER_CHARGE


@<TRIPOS>ATOM
      1 C1         -1.4133    2.5618    0.7416 C.ar      1 <1>        -0.0953
      2 C2          5.7805   -3.3989    2.6849 C.ar      1 <1>        -0.0874
      3 C3         -1.0465    1.3526    0.1509 C.ar      1 <1>        -0.0915
      4 C4         -0.5296    3.6409    0.7284 C.ar      1 <1>        -0.0884
      5 C5          5.4408   -2.1602    3.2288 C.ar      1 <1>        -0.0802
      6 C6          5.7053   -3.5998    1.3066 C.ar      1 <1>        -0.0782
      7 C7          0.2041    1.2226   -0.4531 C.ar      1 <1>        -0.0730
      8 C8          0.7210    3.5109    0.1245 C.ar      1 <1>        -0.0681
      9 C9          5.0259   -1.1223    2.3943 C.ar      1 <1>        -0.0584
     10 C10         5.2905   -2.5619    0.4722 C.ar      1 <1>        -0.0544
     11 C11         3.3252    0.3410    0.2483 C.2       1 <1>         0.0192
     12 C12         3.3730    1.2723   -0.7482 C.ar      1 <1>         0.0333
     13 C13         1.0879    2.3017   -0.4663 C.ar      1 <1>        -0.0340
     14 C14         4.6611    1.1515   -1.3852 C.ar      1 <1>         0.0465
     15 C15         4.9508   -1.3231    1.0160 C.ar      1 <1>        -0.0190
     16 C16         2.3698    2.1681   -1.0857 C.ar      1 <1>         0.0333
     17 C17         4.9967    1.9913   -2.4570 C.ar      1 <1>         0.0257
     18 C18         6.2744    1.9890   -3.2125 C.3       1 <1>         0.0131
     19 N1          5.3587    0.1739   -0.7817 N.2       1 <1>        -0.3233
     20 N2          2.7244    2.9675   -2.1269 N.ar      1 <1>        -0.3058
     21 N3          4.0198    2.8777   -2.8005 N.ar      1 <1>        -0.3066
     22 N4          4.5362   -0.2855    0.1829 N.pl3     1 <1>        -0.3026
     23 H1         -2.3878    2.6633    1.2103 H         1 <1>         0.1200
     24 H2          6.1053   -4.2068    3.3340 H         1 <1>         0.1263
     25 H3         -1.7351    0.5128    0.1596 H         1 <1>         0.1198
     26 H4         -0.8152    4.5832    1.1869 H         1 <1>         0.1233
     27 H5          5.5006   -2.0032    4.3017 H         1 <1>         0.1340
     28 H6          5.9714   -4.5643    0.8838 H         1 <1>         0.1350
     29 H7          0.4752    0.2735   -0.9096 H         1 <1>         0.1305
     30 H8          1.3991    4.3610    0.1213 H         1 <1>         0.1440
     31 H9          4.7648   -0.1614    2.8311 H         1 <1>         0.1453
     32 H10         5.2371   -2.7318   -0.6005 H         1 <1>         0.1570
     33 H11         2.5703    0.0706    0.9758 H         1 <1>         0.2526
     34 H12         6.2183    1.3032   -4.0698 H         1 <1>         0.1034
     35 H13         6.5228    2.9915   -3.5920 H         1 <1>         0.1002
     36 H14         7.1190    1.6773   -2.5797 H         1 <1>         0.1038
@<TRIPOS>BOND
     1    1    3 ar
     2    1    4 ar
     3    2    5 ar
     4    2    6 ar
     5    3    7 ar
     6    4    8 ar
     7    5    9 ar
     8    6   10 ar
     9    7   13 ar
    10    8   13 ar
    11    9   15 ar
    12   10   15 ar
    13   11   12 2
    14   11   22 1
    15   12   14 ar
    16   12   16 ar
    17   13   16 1
    18   14   17 ar
    19   14   19 2
    20   15   22 1
    21   16   20 ar
    22   17   18 1
    23   17   21 ar
    24   19   22 1
    25   20   21 ar
    26    1   23 1
    27    2   24 1
    28    3   25 1
    29    4   26 1
    30    5   27 1
    31    6   28 1
    32    7   29 1
    33    8   30 1
    34    9   31 1
    35   10   32 1
    36   11   33 1
    37   18   34 1
    38   18   35 1
    39   18   36 1
@<TRIPOS>Similarity
2.1423
@<TRIPOS>ShapeSim
1.0000
@<TRIPOS>PharmSim
1.1423
# END
# Name:		AI-031/11219617
# Created and modified by SHAFTS on Tue Sep 23 17:55:44 2014

# 

@<TRIPOS>MOLECULE
AI-031/11219617
   33    36     0
SMALL
USER_CHARGE


@<TRIPOS>ATOM
      1 C1          5.7949   -3.4096    2.6865 C.ar      1 <1>        -0.0872
      2 C2          5.4531   -2.1733    3.2344 C.ar      1 <1>        -0.0799
      3 C3          5.7163   -3.6074    1.3080 C.ar      1 <1>        -0.0780
      4 C4         -1.0554    1.8576    0.3770 C.2       1 <1>        -0.0733
      5 C5          5.0326   -1.1346    2.4036 C.ar      1 <1>        -0.0579
      6 C6          5.2958   -2.5688    0.4772 C.ar      1 <1>        -0.0540
      7 C7          0.0779    1.3418   -0.3157 C.2       1 <1>        -0.0565
      8 C8          3.3209    0.3285    0.2664 C.2       1 <1>         0.0219
      9 C9         -0.8767    3.1696    0.7570 C.2       1 <1>        -0.0431
     10 C10         3.3618    1.2607   -0.7296 C.ar      1 <1>         0.0402
     11 C11         4.6477    1.1446   -1.3718 C.ar      1 <1>         0.0504
     12 C12         4.9539   -1.3324    1.0251 C.ar      1 <1>        -0.0183
     13 C13         2.3543    2.1535   -1.0625 C.ar      1 <1>         0.0510
     14 C14         1.0797    2.2794   -0.4388 C.2       1 <1>         0.0028
     15 C15         4.9764    1.9863   -2.4441 C.ar      1 <1>         0.0292
     16 C16         6.2501    1.9865   -3.2066 C.3       1 <1>         0.0145
     17 N1          5.3509    0.1688   -0.7718 N.2       1 <1>        -0.3209
     18 N2          2.7022    2.9548   -2.1044 N.ar      1 <1>        -0.2962
     19 N3          3.9952    2.8699   -2.7832 N.ar      1 <1>        -0.3010
     20 N4          4.5337   -0.2940    0.1957 N.pl3     1 <1>        -0.3010
     21 S1          0.6525    3.7742    0.2791 S.3       1 <1>        -0.1517
     22 H1          6.1241   -4.2180    3.3327 H         1 <1>         0.1267
     23 H2          5.5155   -2.0186    4.3075 H         1 <1>         0.1345
     24 H3          5.9841   -4.5700    0.8820 H         1 <1>         0.1352
     25 H4         -1.9564    1.2956    0.5854 H         1 <1>         0.1224
     26 H5          4.7698   -0.1755    2.8435 H         1 <1>         0.1458
     27 H6          5.2398   -2.7363   -0.5956 H         1 <1>         0.1573
     28 H7          0.1462    0.3324   -0.7025 H         1 <1>         0.1431
     29 H8          2.5702    0.0552    0.9968 H         1 <1>         0.2537
     30 H9         -1.5711    3.8019    1.2919 H         1 <1>         0.1792
     31 H10         6.1898    1.3017   -4.0645 H         1 <1>         0.1049
     32 H11         6.4952    2.9898   -3.5862 H         1 <1>         0.1050
     33 H12         7.0984    1.6748   -2.5788 H         1 <1>         0.1015
@<TRIPOS>BOND
     1    1    2 ar
     2    1    3 ar
     3    2    5 ar
     4    3    6 ar
     5    4    7 1
     6    4    9 2
     7    5   12 ar
     8    6   12 ar
     9    7   14 2
    10    8   10 2
    11    8   20 1
    12    9   21 1
    13   10   11 ar
    14   10   13 ar
    15   11   15 ar
    16   11   17 2
    17   12   20 1
    18   13   14 1
    19   13   18 ar
    20   14   21 1
    21   15   16 1
    22   15   19 ar
    23   17   20 1
    24   18   19 ar
    25    1   22 1
    26    2   23 1
    27    3   24 1
    28    4   25 1
    29    5   26 1
    30    6   27 1
    31    7   28 1
    32    8   29 1
    33    9   30 1
    34   16   31 1
    35   16   32 1
    36   16   33 1
@<TRIPOS>Similarity
2.0883
@<TRIPOS>ShapeSim
0.9954
@<TRIPOS>PharmSim
1.0929
# END
# Name:		AS-938/12583050
# Created and modified by SHAFTS on Tue Sep 23 17:55:44 2014

# 

@<TRIPOS>MOLECULE
AS-938/12583050
   39    42     0
SMALL
USER_CHARGE


@<TRIPOS>ATOM
      1 C1          5.7808   -3.3974    2.6865 C.ar      1 <1>        -0.0875
      2 C2          4.8882   -2.4358    3.1601 C.ar      1 <1>        -0.0802
      3 C3          6.2588   -3.3215    1.3783 C.ar      1 <1>        -0.0782
      4 C4          0.4749    1.1960    0.1170 C.ar      1 <1>        -0.0678
      5 C5          0.4563    3.5479   -0.4354 C.ar      1 <1>        -0.0727
      6 C6         -0.7741    1.3285    0.7237 C.ar      1 <1>        -0.0913
      7 C7         -0.7928    3.6806    0.1712 C.ar      1 <1>        -0.0943
      8 C8          4.4735   -1.3981    2.3251 C.ar      1 <1>        -0.0584
      9 C9          5.8439   -2.2838    0.5435 C.ar      1 <1>        -0.0544
     10 C10         3.3263    0.3430    0.2503 C.2       1 <1>         0.0191
     11 C11         3.3734    1.2731   -0.7474 C.ar      1 <1>         0.0331
     12 C12         1.0902    2.3057   -0.4625 C.ar      1 <1>        -0.0335
     13 C13        -1.4080    2.5708    0.7506 C.ar      1 <1>        -0.1080
     14 C14         4.6602    1.1500   -1.3867 C.ar      1 <1>         0.0463
     15 C15         4.9513   -1.3223    1.0169 C.ar      1 <1>        -0.0191
     16 C16         2.3707    2.1697   -1.0841 C.ar      1 <1>         0.0333
     17 C17         4.9949    1.9881   -2.4601 C.ar      1 <1>         0.0255
     18 C18        -2.7433    2.7127    1.3994 C.3       1 <1>        -0.0423
     19 C19         6.2711    1.9833   -3.2179 C.3       1 <1>         0.0129
     20 N1          5.3578    0.1722   -0.7834 N.2       1 <1>        -0.3234
     21 N2          2.7244    2.9675   -2.1269 N.ar      1 <1>        -0.3061
     22 N3          4.0184    2.8753   -2.8028 N.ar      1 <1>        -0.3069
     23 N4          4.5365   -0.2851    0.1834 N.pl3     1 <1>        -0.3027
     24 H1          6.1054   -4.2045    3.3368 H         1 <1>         0.1262
     25 H2          4.5171   -2.4940    4.1791 H         1 <1>         0.1340
     26 H3          6.9549   -4.0700    1.0109 H         1 <1>         0.1349
     27 H4          0.9565    0.2211    0.1046 H         1 <1>         0.1454
     28 H5          0.9229    4.4222   -0.8832 H         1 <1>         0.1318
     29 H6         -1.2457    0.4590    1.1736 H         1 <1>         0.1234
     30 H7         -1.2797    4.6521    0.1872 H         1 <1>         0.1201
     31 H8          3.7780   -0.6546    2.7068 H         1 <1>         0.1452
     32 H9          6.2249   -2.2362   -0.4739 H         1 <1>         0.1570
     33 H10         2.5725    0.0745    0.9795 H         1 <1>         0.2524
     34 H11        -2.6276    2.9631    2.4611 H         1 <1>         0.0613
     35 H12        -3.3381    3.5005    0.9190 H         1 <1>         0.0591
     36 H13        -3.3244    1.7845    1.3222 H         1 <1>         0.0586
     37 H14         6.2125    1.2967   -4.0743 H         1 <1>         0.1032
     38 H15         6.5201    2.9850   -3.5991 H         1 <1>         0.1036
     39 H16         7.1165    1.6713   -2.5864 H         1 <1>         0.1000
@<TRIPOS>BOND
     1    1    2 ar
     2    1    3 ar
     3    2    8 ar
     4    3    9 ar
     5    4    6 ar
     6    4   12 ar
     7    5    7 ar
     8    5   12 ar
     9    6   13 ar
    10    7   13 ar
    11    8   15 ar
    12    9   15 ar
    13   10   11 2
    14   10   23 1
    15   11   14 ar
    16   11   16 ar
    17   12   16 1
    18   13   18 1
    19   14   17 ar
    20   14   20 2
    21   15   23 1
    22   16   21 ar
    23   17   19 1
    24   17   22 ar
    25   20   23 1
    26   21   22 ar
    27    1   24 1
    28    2   25 1
    29    3   26 1
    30    4   27 1
    31    5   28 1
    32    6   29 1
    33    7   30 1
    34    8   31 1
    35    9   32 1
    36   10   33 1
    37   18   34 1
    38   18   35 1
    39   18   36 1
    40   19   37 1
    41   19   38 1
    42   19   39 1
@<TRIPOS>Similarity
2.0437
@<TRIPOS>ShapeSim
0.9581
@<TRIPOS>PharmSim
1.0855
# END
# Name:		AI-031/12583059
# Created and modified by SHAFTS on Tue Sep 23 17:55:44 2014

# 

@<TRIPOS>MOLECULE
AI-031/12583059
   39    42     0
SMALL
USER_CHARGE


@<TRIPOS>ATOM
      1 C1         -1.4107    2.5671    0.7461 C.ar      1 <1>        -0.0953
      2 C2         -0.7760    1.3254    0.7191 C.ar      1 <1>        -0.0915
      3 C3         -0.7957    3.6775    0.1677 C.ar      1 <1>        -0.0885
      4 C4          0.4739    1.1940    0.1138 C.ar      1 <1>        -0.0730
      5 C5          0.4542    3.5462   -0.4374 C.ar      1 <1>        -0.0681
      6 C6          4.8873   -2.4391    3.1585 C.ar      1 <1>        -0.0814
      7 C7          6.2593   -3.3212    1.3763 C.ar      1 <1>        -0.0834
      8 C8          4.4719   -1.4008    2.3248 C.ar      1 <1>        -0.0541
      9 C9          5.8439   -2.2829    0.5426 C.ar      1 <1>        -0.0581
     10 C10         3.3253    0.3423    0.2495 C.2       1 <1>         0.0190
     11 C11         3.3729    1.2728   -0.7476 C.ar      1 <1>         0.0330
     12 C12         1.0890    2.3043   -0.4644 C.ar      1 <1>        -0.0341
     13 C13         5.7811   -3.3992    2.6843 C.ar      1 <1>        -0.1009
     14 C14         4.6603    1.1504   -1.3858 C.ar      1 <1>         0.0463
     15 C15         4.9502   -1.3227    1.0169 C.ar      1 <1>        -0.0185
     16 C16         2.3702    2.1692   -1.0849 C.ar      1 <1>         0.0331
     17 C17         4.9958    1.9892   -2.4584 C.ar      1 <1>         0.0255
     18 C18         6.2253   -4.5094    3.5754 C.3       1 <1>        -0.0398
     19 C19         6.2726    1.9853   -3.2151 C.3       1 <1>         0.0130
     20 N1          5.3578    0.1727   -0.7823 N.2       1 <1>        -0.3235
     21 N2          2.7245    2.9675   -2.1270 N.ar      1 <1>        -0.3060
     22 N3          4.0193    2.8762   -2.8017 N.ar      1 <1>        -0.3068
     23 N4          4.5358   -0.2854    0.1835 N.pl3     1 <1>        -0.3026
     24 H1         -2.3846    2.6688    1.2159 H         1 <1>         0.1198
     25 H2         -1.2555    0.4604    1.1677 H         1 <1>         0.1198
     26 H3         -1.2899    4.6444    0.1872 H         1 <1>         0.1232
     27 H4          0.9556    0.2191    0.1008 H         1 <1>         0.1305
     28 H5          0.9211    4.4205   -0.8846 H         1 <1>         0.1440
     29 H6          4.5101   -2.4927    4.1763 H         1 <1>         0.1349
     30 H7          6.9560   -4.0648    0.9982 H         1 <1>         0.1341
     31 H8          3.7755   -0.6583    2.7073 H         1 <1>         0.1585
     32 H9          6.2251   -2.2346   -0.4747 H         1 <1>         0.1468
     33 H10         2.5709    0.0730    0.9779 H         1 <1>         0.2522
     34 H11         5.5501   -5.3687    3.4810 H         1 <1>         0.0635
     35 H12         7.2428   -4.8375    3.3266 H         1 <1>         0.0608
     36 H13         6.2417   -4.1939    4.6270 H         1 <1>         0.0608
     37 H14         6.2152    1.2990   -4.0719 H         1 <1>         0.1033
     38 H15         6.5216    2.9874   -3.5956 H         1 <1>         0.1036
     39 H16         7.1177    1.6734   -2.5829 H         1 <1>         0.1001
@<TRIPOS>BOND
     1    1    2 ar
     2    1    3 ar
     3    2    4 ar
     4    3    5 ar
     5    4   12 ar
     6    5   12 ar
     7    6    8 ar
     8    6   13 ar
     9    7    9 ar
    10    7   13 ar
    11    8   15 ar
    12    9   15 ar
    13   10   11 2
    14   10   23 1
    15   11   14 ar
    16   11   16 ar
    17   12   16 1
    18   13   18 1
    19   14   17 ar
    20   14   20 2
    21   15   23 1
    22   16   21 ar
    23   17   19 1
    24   17   22 ar
    25   20   23 1
    26   21   22 ar
    27    1   24 1
    28    2   25 1
    29    3   26 1
    30    4   27 1
    31    5   28 1
    32    6   29 1
    33    7   30 1
    34    8   31 1
    35    9   32 1
    36   10   33 1
    37   18   34 1
    38   18   35 1
    39   18   36 1
    40   19   37 1
    41   19   38 1
    42   19   39 1
@<TRIPOS>Similarity
2.0436
@<TRIPOS>ShapeSim
0.9581
@<TRIPOS>PharmSim
1.0855
# END
# Name:		AI-031/12583049
# Created and modified by SHAFTS on Tue Sep 23 17:55:44 2014

# 

@<TRIPOS>MOLECULE
AI-031/12583049
   36    39     0
SMALL
USER_CHARGE


@<TRIPOS>ATOM
      1 C1          5.7808   -3.3974    2.6865 C.ar      1 <1>        -0.0872
      2 C2          4.8882   -2.4358    3.1601 C.ar      1 <1>        -0.0800
      3 C3          6.2588   -3.3215    1.3783 C.ar      1 <1>        -0.0780
      4 C4          0.4749    1.1960    0.1170 C.ar      1 <1>        -0.0561
      5 C5          0.4565    3.5480   -0.4351 C.ar      1 <1>        -0.0512
      6 C6          4.4735   -1.3981    2.3251 C.ar      1 <1>        -0.0581
      7 C7          5.8439   -2.2838    0.5435 C.ar      1 <1>        -0.0542
      8 C8         -0.7740    1.3287    0.7240 C.ar      1 <1>        -0.0533
      9 C9         -0.7924    3.6808    0.1718 C.ar      1 <1>        -0.0503
     10 C10         3.3263    0.3430    0.2503 C.2       1 <1>         0.0195
     11 C11         3.3734    1.2731   -0.7474 C.ar      1 <1>         0.0344
     12 C12         1.0902    2.3057   -0.4625 C.ar      1 <1>        -0.0240
     13 C13         4.6602    1.1500   -1.3867 C.ar      1 <1>         0.0474
     14 C14         4.9513   -1.3223    1.0169 C.ar      1 <1>        -0.0187
     15 C15        -1.4076    2.5711    0.7513 C.ar      1 <1>        -0.0129
     16 C16         2.3707    2.1697   -1.0841 C.ar      1 <1>         0.0366
     17 C17         4.9949    1.9881   -2.4601 C.ar      1 <1>         0.0267
     18 C18         6.2711    1.9833   -3.2179 C.3       1 <1>         0.0137
     19 N1          5.3578    0.1722   -0.7834 N.2       1 <1>        -0.3225
     20 N2          2.7244    2.9675   -2.1269 N.ar      1 <1>        -0.3041
     21 N3          4.0184    2.8753   -2.8028 N.ar      1 <1>        -0.3053
     22 N4          4.5365   -0.2851    0.1834 N.pl3     1 <1>        -0.3022
     23 Cl1        -2.9480    2.7344    1.5016 Cl        1 <1>        -0.1818
     24 H1          6.1054   -4.2045    3.3368 H         1 <1>         0.1267
     25 H2          4.5171   -2.4940    4.1791 H         1 <1>         0.1343
     26 H3          6.9549   -4.0700    1.0109 H         1 <1>         0.1352
     27 H4          0.9562    0.2211    0.1039 H         1 <1>         0.1452
     28 H5          0.9237    4.4226   -0.8816 H         1 <1>         0.1588
     29 H6          3.7780   -0.6546    2.7068 H         1 <1>         0.1455
     30 H7          6.2249   -2.2362   -0.4739 H         1 <1>         0.1572
     31 H8         -1.2414    0.4560    1.1734 H         1 <1>         0.1465
     32 H9         -1.2741    4.6552    0.1869 H         1 <1>         0.1499
     33 H10         2.5725    0.0745    0.9795 H         1 <1>         0.2526
     34 H11         6.2125    1.2967   -4.0743 H         1 <1>         0.1043
     35 H12         6.5201    2.9850   -3.5991 H         1 <1>         0.1009
     36 H13         7.1165    1.6713   -2.5864 H         1 <1>         0.1045
@<TRIPOS>BOND
     1    1    2 ar
     2    1    3 ar
     3    2    6 ar
     4    3    7 ar
     5    4    8 ar
     6    4   12 ar
     7    5    9 ar
     8    5   12 ar
     9    6   14 ar
    10    7   14 ar
    11    8   15 ar
    12    9   15 ar
    13   10   11 2
    14   10   22 1
    15   11   13 ar
    16   11   16 ar
    17   12   16 1
    18   13   17 ar
    19   13   19 2
    20   14   22 1
    21   15   23 1
    22   16   20 ar
    23   17   18 1
    24   17   21 ar
    25   19   22 1
    26   20   21 ar
    27    1   24 1
    28    2   25 1
    29    3   26 1
    30    4   27 1
    31    5   28 1
    32    6   29 1
    33    7   30 1
    34    8   31 1
    35    9   32 1
    36   10   33 1
    37   18   34 1
    38   18   35 1
    39   18   36 1
@<TRIPOS>Similarity
2.0427
@<TRIPOS>ShapeSim
0.9571
@<TRIPOS>PharmSim
1.0856
# END
# Name:		AI-031/12583052
# Created and modified by SHAFTS on Tue Sep 23 17:55:44 2014

# 

@<TRIPOS>MOLECULE
AI-031/12583052
   36    39     0
SMALL
USER_CHARGE


@<TRIPOS>ATOM
      1 C1         -1.4118    2.5642    0.7444 C.ar      1 <1>        -0.0951
      2 C2         -0.7764    1.3227    0.7172 C.ar      1 <1>        -0.0913
      3 C3         -0.7970    3.6750    0.1667 C.ar      1 <1>        -0.0883
      4 C4          0.4738    1.1921    0.1124 C.ar      1 <1>        -0.0729
      5 C5          0.4532    3.5445   -0.4380 C.ar      1 <1>        -0.0680
      6 C6          4.4716   -1.4006    2.3239 C.ar      1 <1>        -0.0374
      7 C7          5.8450   -2.2832    0.5429 C.ar      1 <1>        -0.0414
      8 C8          4.8862   -2.4388    3.1581 C.ar      1 <1>        -0.0400
      9 C9          6.2597   -3.3213    1.3771 C.ar      1 <1>        -0.0420
     10 C10         3.3255    0.3417    0.2489 C.2       1 <1>         0.0207
     11 C11         3.3731    1.2725   -0.7479 C.ar      1 <1>         0.0344
     12 C12         1.0886    2.3030   -0.4652 C.ar      1 <1>        -0.0337
     13 C13         4.6609    1.1510   -1.3857 C.ar      1 <1>         0.0476
     14 C14         4.9509   -1.3229    1.0163 C.ar      1 <1>        -0.0089
     15 C15         5.7803   -3.3991    2.6846 C.ar      1 <1>        -0.0045
     16 C16         2.3701    2.1686   -1.0853 C.ar      1 <1>         0.0341
     17 C17         4.9962    1.9904   -2.4578 C.ar      1 <1>         0.0265
     18 C18         6.2734    1.9873   -3.2140 C.3       1 <1>         0.0135
     19 N1          5.3584    0.1734   -0.7822 N.2       1 <1>        -0.3219
     20 N2          2.7244    2.9675   -2.1269 N.ar      1 <1>        -0.3050
     21 N3          4.0194    2.8770   -2.8012 N.ar      1 <1>        -0.3057
     22 N4          4.5364   -0.2854    0.1831 N.pl3     1 <1>        -0.2994
     23 Cl1         6.2936   -4.6784    3.7150 Cl        1 <1>        -0.1756
     24 H1         -2.3859    2.6652    1.2139 H         1 <1>         0.1202
     25 H2         -1.2557    0.4573    1.1654 H         1 <1>         0.1201
     26 H3         -1.2917    4.6416    0.1862 H         1 <1>         0.1234
     27 H4          0.9560    0.2174    0.0992 H         1 <1>         0.1305
     28 H5          0.9199    4.4191   -0.8848 H         1 <1>         0.1442
     29 H6          3.7744   -0.6588    2.7061 H         1 <1>         0.1717
     30 H7          6.2265   -2.2341   -0.4742 H         1 <1>         0.1600
     31 H8          4.5045   -2.4876    4.1747 H         1 <1>         0.1613
     32 H9          6.9564   -4.0629    0.9946 H         1 <1>         0.1603
     33 H10         2.5710    0.0718    0.9769 H         1 <1>         0.2540
     34 H11         6.2166    1.3013   -4.0711 H         1 <1>         0.1038
     35 H12         6.5221    2.9896   -3.5941 H         1 <1>         0.1041
     36 H13         7.1184    1.6755   -2.5816 H         1 <1>         0.1005
@<TRIPOS>BOND
     1    1    2 ar
     2    1    3 ar
     3    2    4 ar
     4    3    5 ar
     5    4   12 ar
     6    5   12 ar
     7    6    8 ar
     8    6   14 ar
     9    7    9 ar
    10    7   14 ar
    11    8   15 ar
    12    9   15 ar
    13   10   11 2
    14   10   22 1
    15   11   13 ar
    16   11   16 ar
    17   12   16 1
    18   13   17 ar
    19   13   19 2
    20   14   22 1
    21   15   23 1
    22   16   20 ar
    23   17   18 1
    24   17   21 ar
    25   19   22 1
    26   20   21 ar
    27    1   24 1
    28    2   25 1
    29    3   26 1
    30    4   27 1
    31    5   28 1
    32    6   29 1
    33    7   30 1
    34    8   31 1
    35    9   32 1
    36   10   33 1
    37   18   34 1
    38   18   35 1
    39   18   36 1
@<TRIPOS>Similarity
2.0426
@<TRIPOS>ShapeSim
0.9571
@<TRIPOS>PharmSim
1.0855
# END
# Name:		AJ-916/12583063
# Created and modified by SHAFTS on Tue Sep 23 17:55:44 2014

# 

@<TRIPOS>MOLECULE
AJ-916/12583063
   36    39     0
SMALL
USER_CHARGE


@<TRIPOS>ATOM
      1 C1         -1.0470    1.8833    0.3393 C.2       1 <1>        -0.0734
      2 C2          5.4394   -2.1628    3.2294 C.ar      1 <1>        -0.0812
      3 C3          5.7067   -3.5981    1.3044 C.ar      1 <1>        -0.0831
      4 C4          5.0248   -1.1233    2.3968 C.ar      1 <1>        -0.0538
      5 C5          5.2921   -2.5586    0.4717 C.ar      1 <1>        -0.0577
      6 C6          0.0881    1.3637   -0.3477 C.2       1 <1>        -0.0566
      7 C7          3.3257    0.3428    0.2500 C.2       1 <1>         0.0217
      8 C8         -0.8666    3.1952    0.7184 C.2       1 <1>        -0.0432
      9 C9          3.3735    1.2735   -0.7470 C.ar      1 <1>         0.0400
     10 C10         5.7804   -3.4002    2.6831 C.ar      1 <1>        -0.1007
     11 C11         4.6619    1.1533   -1.3834 C.ar      1 <1>         0.0502
     12 C12         4.9512   -1.3213    1.0180 C.ar      1 <1>        -0.0178
     13 C13         2.3698    2.1686   -1.0855 C.ar      1 <1>         0.0508
     14 C14         1.0928    2.2986   -0.4676 C.2       1 <1>         0.0027
     15 C15         4.9974    1.9928   -2.4554 C.ar      1 <1>         0.0291
     16 C16         6.2237   -4.5115    3.5733 C.3       1 <1>        -0.0397
     17 C17         6.2745    1.9888   -3.2123 C.3       1 <1>         0.0144
     18 N1          5.3599    0.1766   -0.7791 N.2       1 <1>        -0.3211
     19 N2          2.7243    2.9676   -2.1269 N.ar      1 <1>        -0.2963
     20 N3          4.0200    2.8784   -2.7998 N.ar      1 <1>        -0.3012
     21 N4          4.5373   -0.2830    0.1854 N.pl3     1 <1>        -0.3010
     22 S1          0.6663    3.7954    0.2465 S.3       1 <1>        -0.1518
     23 H1         -1.9503    1.3239    0.5446 H         1 <1>         0.1223
     24 H2          5.4939   -2.0004    4.3025 H         1 <1>         0.1352
     25 H3          5.9709   -4.5586    0.8701 H         1 <1>         0.1345
     26 H4          4.7625   -0.1635    2.8352 H         1 <1>         0.1589
     27 H5          5.2398   -2.7272   -0.6011 H         1 <1>         0.1473
     28 H6          0.1555    0.3536   -0.7329 H         1 <1>         0.1429
     29 H7          2.5712    0.0724    0.9774 H         1 <1>         0.2534
     30 H8         -1.5617    3.8302    1.2495 H         1 <1>         0.1792
     31 H9          5.3622   -5.1077    3.8981 H         1 <1>         0.0635
     32 H10         6.9320   -5.1749    3.0602 H         1 <1>         0.0609
     33 H11         6.7368   -4.1276    4.4647 H         1 <1>         0.0609
     34 H12         6.2162    1.3030   -4.0696 H         1 <1>         0.1048
     35 H13         6.5238    2.9908   -3.5920 H         1 <1>         0.1049
     36 H14         7.1191    1.6757   -2.5804 H         1 <1>         0.1014
@<TRIPOS>BOND
     1    1    6 1
     2    1    8 2
     3    2    4 ar
     4    2   10 ar
     5    3    5 ar
     6    3   10 ar
     7    4   12 ar
     8    5   12 ar
     9    6   14 2
    10    7    9 2
    11    7   21 1
    12    8   22 1
    13    9   11 ar
    14    9   13 ar
    15   10   16 1
    16   11   15 ar
    17   11   18 2
    18   12   21 1
    19   13   14 1
    20   13   19 ar
    21   14   22 1
    22   15   17 1
    23   15   20 ar
    24   18   21 1
    25   19   20 ar
    26    1   23 1
    27    2   24 1
    28    3   25 1
    29    4   26 1
    30    5   27 1
    31    6   28 1
    32    7   29 1
    33    8   30 1
    34   16   31 1
    35   16   32 1
    36   16   33 1
    37   17   34 1
    38   17   35 1
    39   17   36 1
@<TRIPOS>Similarity
2.0358
@<TRIPOS>ShapeSim
0.9848
@<TRIPOS>PharmSim
1.0510
# END
# Name:		AJ-916/12583056
# Created and modified by SHAFTS on Tue Sep 23 17:55:44 2014

# 

@<TRIPOS>MOLECULE
AJ-916/12583056
   33    36     0
SMALL
USER_CHARGE


@<TRIPOS>ATOM
      1 C1         -1.0533    1.8619    0.3525 C.2       1 <1>        -0.0731
      2 C2          5.0252   -1.1332    2.4045 C.ar      1 <1>        -0.0410
      3 C3          5.2951   -2.5673    0.4791 C.ar      1 <1>        -0.0371
      4 C4          5.4416   -2.1721    3.2367 C.ar      1 <1>        -0.0417
      5 C5          5.7118   -3.6063    1.3113 C.ar      1 <1>        -0.0398
      6 C6          0.0827    1.3455   -0.3354 C.2       1 <1>        -0.0563
      7 C7          3.3227    0.3307    0.2599 C.2       1 <1>         0.0234
      8 C8         -0.8754    3.1738    0.7329 C.2       1 <1>        -0.0429
      9 C9          3.3681    1.2626   -0.7359 C.ar      1 <1>         0.0413
     10 C10         4.6566    1.1458   -1.3729 C.ar      1 <1>         0.0515
     11 C11         4.9518   -1.3308    1.0257 C.ar      1 <1>        -0.0082
     12 C12         5.7850   -3.4088    2.6901 C.ar      1 <1>        -0.0042
     13 C13         2.3625    2.1558   -1.0731 C.ar      1 <1>         0.0517
     14 C14         1.0853    2.2825   -0.4547 C.2       1 <1>         0.0031
     15 C15         4.9900    1.9871   -2.4442 C.ar      1 <1>         0.0301
     16 C16         6.2667    1.9865   -3.2014 C.3       1 <1>         0.0149
     17 N1          5.3568    0.1697   -0.7700 N.2       1 <1>        -0.3195
     18 N2          2.7149    2.9568   -2.1138 N.ar      1 <1>        -0.2954
     19 N3          4.0106    2.8711   -2.7873 N.ar      1 <1>        -0.3002
     20 N4          4.5355   -0.2925    0.1943 N.pl3     1 <1>        -0.2977
     21 S1          0.6560    3.7776    0.2612 S.3       1 <1>        -0.1515
     22 Cl1         6.3014   -4.6895    3.7170 Cl        1 <1>        -0.1753
     23 H1         -1.9553    1.3004    0.5574 H         1 <1>         0.1227
     24 H2          4.7607   -0.1745    2.8441 H         1 <1>         0.1604
     25 H3          5.2428   -2.7346   -0.5941 H         1 <1>         0.1721
     26 H4          5.4937   -2.0045    4.3095 H         1 <1>         0.1607
     27 H5          5.9760   -4.5647    0.8714 H         1 <1>         0.1615
     28 H6          0.1521    0.3360   -0.7218 H         1 <1>         0.1434
     29 H7          2.5689    0.0579    0.9874 H         1 <1>         0.2551
     30 H8         -1.5717    3.8066    1.2649 H         1 <1>         0.1798
     31 H9          6.2097    1.3016   -4.0595 H         1 <1>         0.1052
     32 H10         6.5140    2.9896   -3.5802 H         1 <1>         0.1053
     33 H11         7.1123    1.6746   -2.5702 H         1 <1>         0.1018
@<TRIPOS>BOND
     1    1    6 1
     2    1    8 2
     3    2    4 ar
     4    2   11 ar
     5    3    5 ar
     6    3   11 ar
     7    4   12 ar
     8    5   12 ar
     9    6   14 2
    10    7    9 2
    11    7   20 1
    12    8   21 1
    13    9   10 ar
    14    9   13 ar
    15   10   15 ar
    16   10   17 2
    17   11   20 1
    18   12   22 1
    19   13   14 1
    20   13   18 ar
    21   14   21 1
    22   15   16 1
    23   15   19 ar
    24   17   20 1
    25   18   19 ar
    26    1   23 1
    27    2   24 1
    28    3   25 1
    29    4   26 1
    30    5   27 1
    31    6   28 1
    32    7   29 1
    33    8   30 1
    34   16   31 1
    35   16   32 1
    36   16   33 1
@<TRIPOS>Similarity
2.0348
@<TRIPOS>ShapeSim
0.9839
@<TRIPOS>PharmSim
1.0509
# END
# Name:		AJ-916/40989368
# Created and modified by SHAFTS on Tue Sep 23 17:55:44 2014

# 

@<TRIPOS>MOLECULE
AJ-916/40989368
   36    39     0
SMALL
USER_CHARGE


@<TRIPOS>ATOM
      1 C1          5.4178   -2.1453    3.2349 C.ar      1 <1>        -0.0699
      2 C2          5.7668   -3.3918    2.7152 C.ar      1 <1>        -0.0709
      3 C3         -0.7791    1.3035    0.7163 C.ar      1 <1>        -0.0759
      4 C4          0.4722    1.1779    0.1131 C.ar      1 <1>        -0.0618
      5 C5          5.0077   -1.1229    2.3792 C.ar      1 <1>        -0.0422
      6 C6          5.7057   -3.6160    1.3400 C.ar      1 <1>        -0.0395
      7 C7         -1.4139    2.5450    0.7535 C.ar      1 <1>        -0.0652
      8 C8          0.4541    3.5353   -0.4155 C.ar      1 <1>        -0.0390
      9 C9          3.3236    0.3251    0.2482 C.2       1 <1>         0.0235
     10 C10         3.3738    1.2652   -0.7398 C.ar      1 <1>         0.0369
     11 C11         1.0889    2.2937   -0.4527 C.ar      1 <1>        -0.0205
     12 C12         4.6629    1.1491   -1.3756 C.ar      1 <1>         0.0514
     13 C13         4.9466   -1.3471    1.0039 C.ar      1 <1>         0.0188
     14 C14         5.2956   -2.5936    0.4841 C.ar      1 <1>         0.0332
     15 C15        -0.7973    3.6609    0.1877 C.ar      1 <1>        -0.0274
     16 C16         2.3718    2.1648   -1.0711 C.ar      1 <1>         0.0387
     17 C17         5.0011    1.9983   -2.4392 C.ar      1 <1>         0.0284
     18 C18         6.2800    2.0018   -3.1924 C.3       1 <1>         0.0141
     19 N1          5.3587    0.1657   -0.7797 N.2       1 <1>        -0.3153
     20 N2          2.7288    2.9731   -2.1045 N.ar      1 <1>        -0.3031
     21 N3          4.0253    2.8884   -2.7766 N.ar      1 <1>        -0.3045
     22 N4          4.5343   -0.3018    0.1793 N.pl3     1 <1>        -0.2890
     23 Cl1         5.2387   -2.9201   -1.2128 Cl        1 <1>        -0.1380
     24 Br1        -1.6573    5.3433    0.2399 Br        1 <1>        -0.1351
     25 H1          5.4664   -1.9711    4.3059 H         1 <1>         0.1428
     26 H2          6.0867   -4.1876    3.3817 H         1 <1>         0.1399
     27 H3         -1.2594    0.4348    1.1571 H         1 <1>         0.1348
     28 H4          0.9536    0.2031    0.0908 H         1 <1>         0.1424
     29 H5          4.7388   -0.1571    2.8006 H         1 <1>         0.1581
     30 H6          5.9832   -4.5928    0.9523 H         1 <1>         0.1592
     31 H7         -2.3892    2.6256    1.2276 H         1 <1>         0.1443
     32 H8          0.9361    4.4053   -0.8573 H         1 <1>         0.1677
     33 H9          2.5673    0.0487    0.9719 H         1 <1>         0.2528
     34 H10         6.2249    1.3238   -4.0560 H         1 <1>         0.1045
     35 H11         6.5298    3.0075   -3.5626 H         1 <1>         0.1008
     36 H12         7.1234    1.6838   -2.5610 H         1 <1>         0.1048
@<TRIPOS>BOND
     1    1    2 ar
     2    1    5 ar
     3    2    6 ar
     4    3    4 ar
     5    3    7 ar
     6    4   11 ar
     7    5   13 ar
     8    6   14 ar
     9    7   15 ar
    10    8   11 ar
    11    8   15 ar
    12    9   10 2
    13    9   22 1
    14   10   12 ar
    15   10   16 ar
    16   11   16 1
    17   12   17 ar
    18   12   19 2
    19   13   14 ar
    20   13   22 1
    21   14   23 1
    22   15   24 1
    23   16   20 ar
    24   17   18 1
    25   17   21 ar
    26   19   22 1
    27   20   21 ar
    28    1   25 1
    29    2   26 1
    30    3   27 1
    31    4   28 1
    32    5   29 1
    33    6   30 1
    34    7   31 1
    35    8   32 1
    36    9   33 1
    37   18   34 1
    38   18   35 1
    39   18   36 1
@<TRIPOS>Similarity
2.0085
@<TRIPOS>ShapeSim
0.9594
@<TRIPOS>PharmSim
1.0492
# END
# Name:		AS-938/12583062
# Created and modified by SHAFTS on Tue Sep 23 17:55:44 2014

# 

@<TRIPOS>MOLECULE
AS-938/12583062
   43    46     0
SMALL
USER_CHARGE


@<TRIPOS>ATOM
      1 C1          0.2040    1.2258   -0.4499 C.ar      1 <1>        -0.0552
      2 C2          0.7238    3.5140    0.1253 C.ar      1 <1>        -0.0557
      3 C3          4.8871   -2.4392    3.1584 C.ar      1 <1>        -0.0815
      4 C4          6.2595   -3.3211    1.3763 C.ar      1 <1>        -0.0834
      5 C5          4.4718   -1.4009    2.3247 C.ar      1 <1>        -0.0542
      6 C6          5.8441   -2.2828    0.5426 C.ar      1 <1>        -0.0581
      7 C7         -1.0458    1.3577    0.1551 C.ar      1 <1>        -0.0544
      8 C8         -0.5261    3.6460    0.7304 C.ar      1 <1>        -0.0586
      9 C9          3.3253    0.3421    0.2494 C.2       1 <1>         0.0186
     10 C10         3.3729    1.2727   -0.7477 C.ar      1 <1>         0.0324
     11 C11         1.0888    2.3040   -0.4648 C.ar      1 <1>        -0.0273
     12 C12         5.7811   -3.3992    2.6843 C.ar      1 <1>        -0.1010
     13 C13         4.6605    1.1506   -1.3856 C.ar      1 <1>         0.0457
     14 C14         4.9501   -1.3227    1.0169 C.ar      1 <1>        -0.0186
     15 C15        -1.4110    2.5677    0.7452 C.ar      1 <1>        -0.0349
     16 C16         2.3701    2.1691   -1.0851 C.ar      1 <1>         0.0332
     17 C17         4.9960    1.9895   -2.4582 C.ar      1 <1>         0.0248
     18 C18         6.2253   -4.5094    3.5755 C.3       1 <1>        -0.0399
     19 C19         6.2730    1.9858   -3.2147 C.3       1 <1>         0.0125
     20 C20        -3.4861    1.5544    1.3137 C.3       1 <1>         0.0113
     21 N1          5.3579    0.1729   -0.7821 N.2       1 <1>        -0.3238
     22 N2          2.7245    2.9675   -2.1270 N.ar      1 <1>        -0.3073
     23 N3          4.0193    2.8764   -2.8016 N.ar      1 <1>        -0.3078
     24 N4          4.5358   -0.2853    0.1835 N.pl3     1 <1>        -0.3028
     25 O1         -2.6306    2.6963    1.3350 O.3       1 <1>        -0.4625
     26 H1          0.4740    0.2763   -0.9058 H         1 <1>         0.1472
     27 H2          1.4023    4.3637    0.1220 H         1 <1>         0.1537
     28 H3          4.5097   -2.4929    4.1761 H         1 <1>         0.1348
     29 H4          6.9563   -4.0645    0.9984 H         1 <1>         0.1340
     30 H5          3.7752   -0.6585    2.7071 H         1 <1>         0.1583
     31 H6          6.2255   -2.2342   -0.4744 H         1 <1>         0.1469
     32 H7         -1.7311    0.5144    0.1634 H         1 <1>         0.1463
     33 H8         -0.8051    4.5910    1.1884 H         1 <1>         0.1330
     34 H9          2.5707    0.0727    0.9776 H         1 <1>         0.2518
     35 H10         5.5501   -5.3687    3.4808 H         1 <1>         0.0634
     36 H11         7.2429   -4.8374    3.3267 H         1 <1>         0.0606
     37 H12         6.2415   -4.1939    4.6271 H         1 <1>         0.0606
     38 H13         6.2157    1.2995   -4.0715 H         1 <1>         0.1027
     39 H14         6.5218    2.9879   -3.5950 H         1 <1>         0.1031
     40 H15         7.1179    1.6739   -2.5823 H         1 <1>         0.0996
     41 H16        -4.4261    1.7929    1.8172 H         1 <1>         0.1330
     42 H17        -2.9927    0.7189    1.8165 H         1 <1>         0.1096
     43 H18        -3.6905    1.2829    0.2752 H         1 <1>         0.1099
@<TRIPOS>BOND
     1    1    7 ar
     2    1   11 ar
     3    2    8 ar
     4    2   11 ar
     5    3    5 ar
     6    3   12 ar
     7    4    6 ar
     8    4   12 ar
     9    5   14 ar
    10    6   14 ar
    11    7   15 ar
    12    8   15 ar
    13    9   10 2
    14    9   24 1
    15   10   13 ar
    16   10   16 ar
    17   11   16 1
    18   12   18 1
    19   13   17 ar
    20   13   21 2
    21   14   24 1
    22   15   25 1
    23   16   22 ar
    24   17   19 1
    25   17   23 ar
    26   20   25 1
    27   21   24 1
    28   22   23 ar
    29    1   26 1
    30    2   27 1
    31    3   28 1
    32    4   29 1
    33    5   30 1
    34    6   31 1
    35    7   32 1
    36    8   33 1
    37    9   34 1
    38   18   35 1
    39   18   36 1
    40   18   37 1
    41   19   38 1
    42   19   39 1
    43   19   40 1
    44   20   41 1
    45   20   42 1
    46   20   43 1
@<TRIPOS>Similarity
1.9995
@<TRIPOS>ShapeSim
0.9517
@<TRIPOS>PharmSim
1.0478
# END
# Name:		AS-938/12583055
# Created and modified by SHAFTS on Tue Sep 23 17:55:44 2014

# 

@<TRIPOS>MOLECULE
AS-938/12583055
   40    43     0
SMALL
USER_CHARGE


@<TRIPOS>ATOM
      1 C1          0.2041    1.2248   -0.4503 C.ar      1 <1>        -0.0604
      2 C2          0.7233    3.5130    0.1254 C.ar      1 <1>        -0.0501
      3 C3          4.4718   -1.4005    2.3240 C.ar      1 <1>        -0.0375
      4 C4          5.8448   -2.2832    0.5427 C.ar      1 <1>        -0.0416
      5 C5         -1.0458    1.3562    0.1546 C.ar      1 <1>        -0.0613
      6 C6         -0.5266    3.6445    0.7304 C.ar      1 <1>        -0.0512
      7 C7          4.8865   -2.4387    3.1582 C.ar      1 <1>        -0.0400
      8 C8          6.2596   -3.3214    1.3770 C.ar      1 <1>        -0.0422
      9 C9          3.3256    0.3417    0.2490 C.2       1 <1>         0.0201
     10 C10         3.3732    1.2726   -0.7479 C.ar      1 <1>         0.0338
     11 C11         1.0888    2.3031   -0.4649 C.ar      1 <1>        -0.0269
     12 C12         4.6607    1.1508   -1.3858 C.ar      1 <1>         0.0472
     13 C13         4.9509   -1.3229    1.0163 C.ar      1 <1>        -0.0091
     14 C14        -1.4112    2.5659    0.7450 C.ar      1 <1>        -0.0345
     15 C15         5.7803   -3.3991    2.6847 C.ar      1 <1>        -0.0047
     16 C16         2.3701    2.1687   -1.0852 C.ar      1 <1>         0.0344
     17 C17         4.9961    1.9901   -2.4581 C.ar      1 <1>         0.0260
     18 C18         6.2731    1.9869   -3.2144 C.3       1 <1>         0.0131
     19 C19        -3.4861    1.5520    1.3129 C.3       1 <1>         0.0113
     20 N1          5.3583    0.1732   -0.7823 N.2       1 <1>        -0.3222
     21 N2          2.7244    2.9675   -2.1269 N.ar      1 <1>        -0.3059
     22 N3          4.0193    2.8768   -2.8014 N.ar      1 <1>        -0.3064
     23 N4          4.5363   -0.2855    0.1831 N.pl3     1 <1>        -0.2997
     24 O1         -2.6310    2.6941    1.3346 O.3       1 <1>        -0.4622
     25 Cl1         6.2938   -4.6784    3.7150 Cl        1 <1>        -0.1758
     26 H1          0.4744    0.2754   -0.9064 H         1 <1>         0.1401
     27 H2          1.4016    4.3628    0.1223 H         1 <1>         0.1611
     28 H3          3.7748   -0.6586    2.7062 H         1 <1>         0.1717
     29 H4          6.2262   -2.2344   -0.4743 H         1 <1>         0.1596
     30 H5         -1.7309    0.5126    0.1626 H         1 <1>         0.1301
     31 H6         -0.8060    4.5894    1.1886 H         1 <1>         0.1499
     32 H7          4.5048   -2.4873    4.1748 H         1 <1>         0.1613
     33 H8          6.9561   -4.0631    0.9945 H         1 <1>         0.1600
     34 H9          2.5712    0.0720    0.9771 H         1 <1>         0.2530
     35 H10         6.2162    1.3008   -4.0715 H         1 <1>         0.1032
     36 H11         6.5218    2.9891   -3.5947 H         1 <1>         0.1037
     37 H12         7.1181    1.6751   -2.5822 H         1 <1>         0.1000
     38 H13        -4.4262    1.7901    1.8165 H         1 <1>         0.1095
     39 H14        -2.9925    0.7165    1.8157 H         1 <1>         0.1092
     40 H15        -3.6904    1.2805    0.2744 H         1 <1>         0.1331
@<TRIPOS>BOND
     1    1    5 ar
     2    1   11 ar
     3    2    6 ar
     4    2   11 ar
     5    3    7 ar
     6    3   13 ar
     7    4    8 ar
     8    4   13 ar
     9    5   14 ar
    10    6   14 ar
    11    7   15 ar
    12    8   15 ar
    13    9   10 2
    14    9   23 1
    15   10   12 ar
    16   10   16 ar
    17   11   16 1
    18   12   17 ar
    19   12   20 2
    20   13   23 1
    21   14   24 1
    22   15   25 1
    23   16   21 ar
    24   17   18 1
    25   17   22 ar
    26   19   24 1
    27   20   23 1
    28   21   22 ar
    29    1   26 1
    30    2   27 1
    31    3   28 1
    32    4   29 1
    33    5   30 1
    34    6   31 1
    35    7   32 1
    36    8   33 1
    37    9   34 1
    38   18   35 1
    39   18   36 1
    40   18   37 1
    41   19   38 1
    42   19   39 1
    43   19   40 1
@<TRIPOS>Similarity
1.9985
@<TRIPOS>ShapeSim
0.9507
@<TRIPOS>PharmSim
1.0478
# END
# Name:		AS-938/12583061
# Created and modified by SHAFTS on Tue Sep 23 17:55:44 2014

# 

@<TRIPOS>MOLECULE
AS-938/12583061
   42    45     0
SMALL
USER_CHARGE


@<TRIPOS>ATOM
      1 C1          0.4736    1.1939    0.1130 C.ar      1 <1>        -0.0678
      2 C2          0.4547    3.5461   -0.4383 C.ar      1 <1>        -0.0727
      3 C3         -0.7762    1.3255    0.7181 C.ar      1 <1>        -0.0913
      4 C4         -0.7952    3.6778    0.1669 C.ar      1 <1>        -0.0943
      5 C5          4.8870   -2.4392    3.1584 C.ar      1 <1>        -0.0834
      6 C6          6.2595   -3.3211    1.3764 C.ar      1 <1>        -0.0814
      7 C7          4.4717   -1.4009    2.3246 C.ar      1 <1>        -0.0582
      8 C8          5.8441   -2.2828    0.5427 C.ar      1 <1>        -0.0542
      9 C9          3.3254    0.3422    0.2492 C.2       1 <1>         0.0189
     10 C10         3.3732    1.2727   -0.7479 C.ar      1 <1>         0.0329
     11 C11         1.0891    2.3041   -0.4652 C.ar      1 <1>        -0.0336
     12 C12        -1.4107    2.5675    0.7451 C.ar      1 <1>        -0.1080
     13 C13         5.7810   -3.3992    2.6843 C.ar      1 <1>        -0.1010
     14 C14         4.6608    1.1506   -1.3858 C.ar      1 <1>         0.0462
     15 C15         4.9502   -1.3227    1.0169 C.ar      1 <1>        -0.0186
     16 C16         2.3705    2.1691   -1.0854 C.ar      1 <1>         0.0331
     17 C17         4.9964    1.9895   -2.4583 C.ar      1 <1>         0.0253
     18 C18        -2.7469    2.7084    1.3923 C.3       1 <1>        -0.0423
     19 C19         6.2250   -4.5094    3.5756 C.3       1 <1>        -0.0398
     20 C20         6.2735    1.9857   -3.2147 C.3       1 <1>         0.0128
     21 N1          5.3581    0.1728   -0.7821 N.2       1 <1>        -0.3236
     22 N2          2.7250    2.9676   -2.1273 N.ar      1 <1>        -0.3063
     23 N3          4.0198    2.8764   -2.8018 N.ar      1 <1>        -0.3070
     24 N4          4.5360   -0.2853    0.1833 N.pl3     1 <1>        -0.3027
     25 H1          0.9557    0.2192    0.1005 H         1 <1>         0.1454
     26 H2          0.9213    4.4208   -0.8851 H         1 <1>         0.1318
     27 H3         -1.2477    0.4555    1.1671 H         1 <1>         0.1234
     28 H4         -1.2826    4.6491    0.1829 H         1 <1>         0.1200
     29 H5          4.5095   -2.4928    4.1760 H         1 <1>         0.1340
     30 H6          6.9563   -4.0645    0.9986 H         1 <1>         0.1349
     31 H7          3.7751   -0.6584    2.7070 H         1 <1>         0.1467
     32 H8          6.2256   -2.2343   -0.4744 H         1 <1>         0.1584
     33 H9          2.5709    0.0728    0.9773 H         1 <1>         0.2520
     34 H10        -2.6324    2.9583    2.4542 H         1 <1>         0.0613
     35 H11        -3.3414    3.4961    0.9116 H         1 <1>         0.0591
     36 H12        -3.3274    1.7798    1.3139 H         1 <1>         0.0585
     37 H13         5.5499   -5.3687    3.4809 H         1 <1>         0.0635
     38 H14         7.2427   -4.8374    3.3269 H         1 <1>         0.0608
     39 H15         6.2412   -4.1939    4.6271 H         1 <1>         0.0607
     40 H16         6.2162    1.2994   -4.0716 H         1 <1>         0.1031
     41 H17         6.5224    2.9878   -3.5951 H         1 <1>         0.1035
     42 H18         7.1184    1.6738   -2.5823 H         1 <1>         0.0999
@<TRIPOS>BOND
     1    1    3 ar
     2    1   11 ar
     3    2    4 ar
     4    2   11 ar
     5    3   12 ar
     6    4   12 ar
     7    5    7 ar
     8    5   13 ar
     9    6    8 ar
    10    6   13 ar
    11    7   15 ar
    12    8   15 ar
    13    9   10 2
    14    9   24 1
    15   10   14 ar
    16   10   16 ar
    17   11   16 1
    18   12   18 1
    19   13   19 1
    20   14   17 ar
    21   14   21 2
    22   15   24 1
    23   16   22 ar
    24   17   20 1
    25   17   23 ar
    26   21   24 1
    27   22   23 ar
    28    1   25 1
    29    2   26 1
    30    3   27 1
    31    4   28 1
    32    5   29 1
    33    6   30 1
    34    7   31 1
    35    8   32 1
    36    9   33 1
    37   18   34 1
    38   18   35 1
    39   18   36 1
    40   19   37 1
    41   19   38 1
    42   19   39 1
    43   20   40 1
    44   20   41 1
    45   20   42 1
@<TRIPOS>Similarity
1.9928
@<TRIPOS>ShapeSim
0.9490
@<TRIPOS>PharmSim
1.0438
# END
# Name:		AS-938/12583060
# Created and modified by SHAFTS on Tue Sep 23 17:55:44 2014

# 

@<TRIPOS>MOLECULE
AS-938/12583060
   39    42     0
SMALL
USER_CHARGE


@<TRIPOS>ATOM
      1 C1          0.4736    1.1939    0.1130 C.ar      1 <1>        -0.0561
      2 C2          0.4549    3.5462   -0.4379 C.ar      1 <1>        -0.0512
      3 C3          4.8870   -2.4392    3.1584 C.ar      1 <1>        -0.0812
      4 C4          6.2595   -3.3211    1.3764 C.ar      1 <1>        -0.0832
      5 C5          4.4717   -1.4009    2.3246 C.ar      1 <1>        -0.0540
      6 C6          5.8441   -2.2828    0.5427 C.ar      1 <1>        -0.0579
      7 C7         -0.7761    1.3257    0.7185 C.ar      1 <1>        -0.0533
      8 C8         -0.7949    3.6780    0.1675 C.ar      1 <1>        -0.0503
      9 C9          3.3254    0.3422    0.2492 C.2       1 <1>         0.0193
     10 C10         3.3732    1.2727   -0.7479 C.ar      1 <1>         0.0341
     11 C11         1.0891    2.3041   -0.4652 C.ar      1 <1>        -0.0241
     12 C12         5.7810   -3.3992    2.6843 C.ar      1 <1>        -0.1007
     13 C13         4.6608    1.1506   -1.3858 C.ar      1 <1>         0.0472
     14 C14         4.9502   -1.3227    1.0169 C.ar      1 <1>        -0.0183
     15 C15        -1.4102    2.5677    0.7457 C.ar      1 <1>        -0.0129
     16 C16         2.3705    2.1691   -1.0854 C.ar      1 <1>         0.0364
     17 C17         4.9964    1.9895   -2.4583 C.ar      1 <1>         0.0265
     18 C18         6.2250   -4.5094    3.5756 C.3       1 <1>        -0.0397
     19 C19         6.2735    1.9857   -3.2147 C.3       1 <1>         0.0136
     20 N1          5.3581    0.1728   -0.7821 N.2       1 <1>        -0.3227
     21 N2          2.7250    2.9676   -2.1273 N.ar      1 <1>        -0.3043
     22 N3          4.0198    2.8764   -2.8018 N.ar      1 <1>        -0.3055
     23 N4          4.5360   -0.2853    0.1833 N.pl3     1 <1>        -0.3022
     24 Cl1        -2.9515    2.7299    1.4943 Cl        1 <1>        -0.1819
     25 H1          0.9555    0.2191    0.0999 H         1 <1>         0.1452
     26 H2          0.9221    4.4213   -0.8834 H         1 <1>         0.1588
     27 H3          4.5095   -2.4928    4.1760 H         1 <1>         0.1352
     28 H4          6.9563   -4.0645    0.9986 H         1 <1>         0.1344
     29 H5          3.7751   -0.6584    2.7070 H         1 <1>         0.1587
     30 H6          6.2256   -2.2343   -0.4744 H         1 <1>         0.1470
     31 H7         -1.2435    0.4525    1.1669 H         1 <1>         0.1464
     32 H8         -1.2770    4.6522    0.1825 H         1 <1>         0.1497
     33 H9          2.5709    0.0728    0.9773 H         1 <1>         0.2522
     34 H10         5.5499   -5.3687    3.4809 H         1 <1>         0.0637
     35 H11         7.2427   -4.8374    3.3269 H         1 <1>         0.0609
     36 H12         6.2412   -4.1939    4.6271 H         1 <1>         0.0610
     37 H13         6.2162    1.2994   -4.0716 H         1 <1>         0.1042
     38 H14         6.5224    2.9878   -3.5951 H         1 <1>         0.1008
     39 H15         7.1184    1.6738   -2.5823 H         1 <1>         0.1044
@<TRIPOS>BOND
     1    1    7 ar
     2    1   11 ar
     3    2    8 ar
     4    2   11 ar
     5    3    5 ar
     6    3   12 ar
     7    4    6 ar
     8    4   12 ar
     9    5   14 ar
    10    6   14 ar
    11    7   15 ar
    12    8   15 ar
    13    9   10 2
    14    9   23 1
    15   10   13 ar
    16   10   16 ar
    17   11   16 1
    18   12   18 1
    19   13   17 ar
    20   13   20 2
    21   14   23 1
    22   15   24 1
    23   16   21 ar
    24   17   19 1
    25   17   22 ar
    26   20   23 1
    27   21   22 ar
    28    1   25 1
    29    2   26 1
    30    3   27 1
    31    4   28 1
    32    5   29 1
    33    6   30 1
    34    7   31 1
    35    8   32 1
    36    9   33 1
    37   18   34 1
    38   18   35 1
    39   18   36 1
    40   19   37 1
    41   19   38 1
    42   19   39 1
@<TRIPOS>Similarity
1.9918
@<TRIPOS>ShapeSim
0.9480
@<TRIPOS>PharmSim
1.0438
# END
# Name:		AJ-916/40989362
# Created and modified by SHAFTS on Tue Sep 23 17:55:44 2014

# 

@<TRIPOS>MOLECULE
AJ-916/40989362
   36    39     0
SMALL
USER_CHARGE


@<TRIPOS>ATOM
      1 C1         -1.0460    1.3541    0.1528 C.ar      1 <1>        -0.0756
      2 C2          0.2042    1.2236   -0.4517 C.ar      1 <1>        -0.0617
      3 C3          4.1000   -1.7979    2.0142 C.ar      1 <1>        -0.0433
      4 C4          6.2165   -1.8861    0.8524 C.ar      1 <1>        -0.0393
      5 C5         -1.4122    2.5635    0.7434 C.ar      1 <1>        -0.0649
      6 C6          4.5147   -2.8359    2.8485 C.ar      1 <1>        -0.0501
      7 C7          6.6312   -2.9241    1.6868 C.ar      1 <1>        -0.0481
      8 C8          0.7221    3.5120    0.1251 C.ar      1 <1>        -0.0388
      9 C9          3.3255    0.3413    0.2486 C.2       1 <1>         0.0217
     10 C10         3.3731    1.2724   -0.7480 C.ar      1 <1>         0.0365
     11 C11         1.0883    2.3024   -0.4656 C.ar      1 <1>        -0.0202
     12 C12         4.6610    1.1511   -1.3855 C.ar      1 <1>         0.0493
     13 C13         4.9509   -1.3230    1.0161 C.ar      1 <1>        -0.0086
     14 C14         5.7804   -3.3990    2.6848 C.ar      1 <1>        -0.0255
     15 C15        -0.5282    3.6424    0.7296 C.ar      1 <1>        -0.0270
     16 C16         2.3700    2.1684   -1.0854 C.ar      1 <1>         0.0393
     17 C17         4.9964    1.9907   -2.4576 C.ar      1 <1>         0.0281
     18 C18         6.2738    1.9880   -3.2135 C.3       1 <1>         0.0143
     19 N1          5.3586    0.1736   -0.7822 N.2       1 <1>        -0.3203
     20 N2          2.7244    2.9675   -2.1269 N.ar      1 <1>        -0.3022
     21 N3          4.0195    2.8773   -2.8010 N.ar      1 <1>        -0.3038
     22 N4          4.5363   -0.2855    0.1829 N.pl3     1 <1>        -0.2982
     23 Br1         6.3426   -4.8048    3.8162 Br        1 <1>        -0.1313
     24 Br2        -1.0243    5.2806    1.5317 Br        1 <1>        -0.1346
     25 H1         -1.7344    0.5142    0.1637 H         1 <1>         0.1352
     26 H2          0.4744    0.2749   -0.9092 H         1 <1>         0.1424
     27 H3          3.1107   -1.3685    2.1526 H         1 <1>         0.1593
     28 H4          6.8895   -1.5254    0.0784 H         1 <1>         0.1711
     29 H5         -2.3904    2.6487    1.2103 H         1 <1>         0.1448
     30 H6          3.8400   -3.1946    3.6216 H         1 <1>         0.1583
     31 H7          7.6207   -3.3520    1.5460 H         1 <1>         0.1593
     32 H8          1.4127    4.3532    0.1138 H         1 <1>         0.1680
     33 H9          2.5708    0.0713    0.9765 H         1 <1>         0.2546
     34 H10         6.2173    1.3021   -4.0707 H         1 <1>         0.1049
     35 H11         6.5224    2.9904   -3.5933 H         1 <1>         0.1014
     36 H12         7.1186    1.6763   -2.5810 H         1 <1>         0.1051
@<TRIPOS>BOND
     1    1    2 ar
     2    1    5 ar
     3    2   11 ar
     4    3    6 ar
     5    3   13 ar
     6    4    7 ar
     7    4   13 ar
     8    5   15 ar
     9    6   14 ar
    10    7   14 ar
    11    8   11 ar
    12    8   15 ar
    13    9   10 2
    14    9   22 1
    15   10   12 ar
    16   10   16 ar
    17   11   16 1
    18   12   17 ar
    19   12   19 2
    20   13   22 1
    21   14   23 1
    22   15   24 1
    23   16   20 ar
    24   17   18 1
    25   17   21 ar
    26   19   22 1
    27   20   21 ar
    28    1   25 1
    29    2   26 1
    30    3   27 1
    31    4   28 1
    32    5   29 1
    33    6   30 1
    34    7   31 1
    35    8   32 1
    36    9   33 1
    37   18   34 1
    38   18   35 1
    39   18   36 1
@<TRIPOS>Similarity
1.9621
@<TRIPOS>ShapeSim
0.9302
@<TRIPOS>PharmSim
1.0319
# END
# Name:		AO-476/43201369
# Created and modified by SHAFTS on Tue Sep 23 17:55:44 2014

# 

@<TRIPOS>MOLECULE
AO-476/43201369
   43    47     0
SMALL
USER_CHARGE


@<TRIPOS>ATOM
      1 C1         -1.4310    2.6197    0.6919 C.ar      1 <1>        -0.0943
      2 C2          0.3428   -0.6801    3.0804 C.ar      1 <1>        -0.0910
      3 C3          5.8580   -3.3997    2.6498 C.ar      1 <1>        -0.0855
      4 C4         -1.0715    1.4022    0.1141 C.ar      1 <1>        -0.0885
      5 C5         -0.5344    3.6882    0.6822 C.ar      1 <1>        -0.0893
      6 C6          0.8687    0.6116    3.0564 C.ar      1 <1>        -0.0856
      7 C7          0.7983   -1.6356    2.1720 C.ar      1 <1>        -0.0878
      8 C8          5.5102   -2.1687    3.2061 C.ar      1 <1>        -0.0780
      9 C9          5.7655   -3.5934    1.2716 C.ar      1 <1>        -0.0770
     10 C10         0.1848    1.2530   -0.4733 C.ar      1 <1>        -0.0673
     11 C11         0.7218    3.5391    0.0947 C.ar      1 <1>        -0.0690
     12 C12         1.8501    0.9477    2.1240 C.ar      1 <1>        -0.0685
     13 C13         1.7798   -1.2995    1.2396 C.ar      1 <1>        -0.0714
     14 C14         5.0698   -1.1315    2.3840 C.ar      1 <1>        -0.0538
     15 C15         5.3251   -2.5561    0.4495 C.ar      1 <1>        -0.0519
     16 C16         3.3730    1.2723   -0.7481 C.ar      1 <1>         0.0597
     17 C17         1.0816    2.3214   -0.4830 C.ar      1 <1>        -0.0275
     18 C18         2.3057   -0.0077    1.2155 C.ar      1 <1>        -0.0350
     19 C19         4.6611    1.1514   -1.3852 C.ar      1 <1>         0.1010
     20 C20         4.9773   -1.3251    1.0056 C.ar      1 <1>        -0.0113
     21 C21         2.3698    2.1682   -1.0857 C.ar      1 <1>         0.0510
     22 C22         3.3252    0.3411    0.2484 C.2       1 <1>         0.0295
     23 C23         4.9967    1.9912   -2.4570 C.ar      1 <1>         0.1504
     24 N1          5.3587    0.1738   -0.7818 N.2       1 <1>        -0.2984
     25 N2          2.7244    2.9675   -2.1269 N.ar      1 <1>        -0.2800
     26 N3          4.0198    2.8777   -2.8005 N.ar      1 <1>        -0.2459
     27 N4          4.5362   -0.2855    0.1829 N.pl3     1 <1>        -0.2886
     28 Cl1         6.4745    1.9187   -3.2494 Cl        1 <1>        -0.0433
     29 H1         -2.4100    2.7361    1.1477 H         1 <1>         0.1203
     30 H2         -0.4211   -0.9420    3.8069 H         1 <1>         0.1257
     31 H3          6.2027   -4.2069    3.2893 H         1 <1>         0.1292
     32 H4         -1.7701    0.5708    0.1199 H         1 <1>         0.1217
     33 H5         -0.8143    4.6369    1.1306 H         1 <1>         0.1206
     34 H6          0.5137    1.3555    3.7637 H         1 <1>         0.1278
     35 H7          0.3895   -2.6418    2.1914 H         1 <1>         0.1248
     36 H8          5.5834   -2.0172    4.2791 H         1 <1>         0.1346
     37 H9          6.0379   -4.5519    0.8392 H         1 <1>         0.1352
     38 H10         0.4503    0.2976   -0.9198 H         1 <1>         0.1412
     39 H11         1.4101    4.3810    0.0944 H         1 <1>         0.1350
     40 H12         2.2520    1.9581    2.1197 H         1 <1>         0.1401
     41 H13         2.1237   -2.0553    0.5376 H         1 <1>         0.1333
     42 H14         4.8027   -0.1766    2.8303 H         1 <1>         0.1511
     43 H15         5.2585   -2.7205   -0.6232 H         1 <1>         0.1567
@<TRIPOS>BOND
     1    1    4 ar
     2    1    5 ar
     3    2    6 ar
     4    2    7 ar
     5    3    8 ar
     6    3    9 ar
     7    4   10 ar
     8    5   11 ar
     9    6   12 ar
    10    7   13 ar
    11    8   14 ar
    12    9   15 ar
    13   10   17 ar
    14   11   17 ar
    15   12   18 ar
    16   13   18 ar
    17   14   20 ar
    18   15   20 ar
    19   16   19 ar
    20   16   21 ar
    21   16   22 2
    22   17   21 1
    23   18   22 1
    24   19   23 ar
    25   19   24 2
    26   20   27 1
    27   21   25 ar
    28   22   27 1
    29   23   26 ar
    30   23   28 1
    31   24   27 1
    32   25   26 ar
    33    1   29 1
    34    2   30 1
    35    3   31 1
    36    4   32 1
    37    5   33 1
    38    6   34 1
    39    7   35 1
    40    8   36 1
    41    9   37 1
    42   10   38 1
    43   11   39 1
    44   12   40 1
    45   13   41 1
    46   14   42 1
    47   15   43 1
@<TRIPOS>Similarity
1.9379
@<TRIPOS>ShapeSim
0.8855
@<TRIPOS>PharmSim
1.0524
# END
# Name:		AO-476/43249983
# Created and modified by SHAFTS on Tue Sep 23 17:55:44 2014

# 

@<TRIPOS>MOLECULE
AO-476/43249983
   44    48     0
SMALL
USER_CHARGE


@<TRIPOS>ATOM
      1 C1          0.4316   -0.6350    3.1485 C.ar      1 <1>        -0.0932
      2 C2         -1.3759    2.6825    0.5816 C.ar      1 <1>        -0.0946
      3 C3          5.9541   -3.4395    2.6258 C.ar      1 <1>        -0.0860
      4 C4          0.9687    0.6512    3.0981 C.ar      1 <1>        -0.0879
      5 C5          0.8678   -1.6087    2.2499 C.ar      1 <1>        -0.0900
      6 C6         -1.0178    1.4750   -0.0179 C.ar      1 <1>        -0.0889
      7 C7         -0.4750    3.7473    0.5977 C.ar      1 <1>        -0.0886
      8 C8          5.6223   -2.2065    3.1875 C.ar      1 <1>        -0.0779
      9 C9          5.8336   -3.6340    1.2500 C.ar      1 <1>        -0.0772
     10 C10         1.9420    0.9639    2.1491 C.ar      1 <1>        -0.0715
     11 C11         1.8410   -1.2960    1.3009 C.ar      1 <1>        -0.0744
     12 C12         0.2411    1.3323   -0.6014 C.ar      1 <1>        -0.0673
     13 C13         0.7841    3.6046    0.0144 C.ar      1 <1>        -0.0676
     14 C14         5.1700   -1.1682    2.3733 C.ar      1 <1>        -0.0525
     15 C15         5.3812   -2.5956    0.4357 C.ar      1 <1>        -0.0512
     16 C16         2.3781   -0.0097    1.2504 C.ar      1 <1>        -0.0385
     17 C17         1.1421    2.3971   -0.5852 C.ar      1 <1>        -0.0286
     18 C18         3.3970    1.2454   -0.7395 C.2       1 <1>         0.0670
     19 C19         5.0495   -1.3628    0.9973 C.ar      1 <1>        -0.0086
     20 C20         3.3879    0.3145    0.2670 C.2       1 <1>         0.0308
     21 C21         4.6530    1.1066   -1.3452 C.2       1 <1>         0.1208
     22 C22         2.4741    2.2461   -1.2023 C.2       1 <1>         0.0420
     23 C23         5.0459    1.9612   -2.4321 C.2       1 <1>         0.1588
     24 N1          5.3961    0.1442   -0.7974 N.2       1 <1>        -0.2787
     25 N2          2.8329    3.0380   -2.1740 N.2       1 <1>        -0.3067
     26 N3          4.5967   -0.3227    0.1827 N.pl3     1 <1>        -0.2825
     27 N4          4.0708    2.8980   -2.7651 N.am      1 <1>        -0.2278
     28 O1          6.1314    1.8715   -2.9969 O.2       1 <1>        -0.4694
     29 H1         -0.3257   -0.8787    3.8880 H         1 <1>         0.1224
     30 H2         -2.3561    2.7936    1.0358 H         1 <1>         0.1191
     31 H3          6.3079   -4.2476    3.2592 H         1 <1>         0.1282
     32 H4          0.6287    1.4093    3.7976 H         1 <1>         0.1253
     33 H5          0.4505   -2.6107    2.2900 H         1 <1>         0.1223
     34 H6         -1.7194    0.6460   -0.0303 H         1 <1>         0.1206
     35 H7         -0.7539    4.6875    1.0643 H         1 <1>         0.1211
     36 H8          5.7173   -2.0543    4.2588 H         1 <1>         0.1342
     37 H9          6.0935   -4.5940    0.8130 H         1 <1>         0.1346
     38 H10         2.3526    1.9704    2.1242 H         1 <1>         0.1379
     39 H11         2.1697   -2.0658    0.6069 H         1 <1>         0.1308
     40 H12         0.5098    0.3870   -1.0658 H         1 <1>         0.1399
     41 H13         1.4780    4.4410    0.0330 H         1 <1>         0.1373
     42 H14         4.9155   -0.2119    2.8239 H         1 <1>         0.1525
     43 H15         5.2928   -2.7607   -0.6355 H         1 <1>         0.1562
     44 H16         4.2934    3.5419   -3.5179 H         1 <1>         0.4079
@<TRIPOS>BOND
     1    1    4 ar
     2    1    5 ar
     3    2    6 ar
     4    2    7 ar
     5    3    8 ar
     6    3    9 ar
     7    4   10 ar
     8    5   11 ar
     9    6   12 ar
    10    7   13 ar
    11    8   14 ar
    12    9   15 ar
    13   10   16 ar
    14   11   16 ar
    15   12   17 ar
    16   13   17 ar
    17   14   19 ar
    18   15   19 ar
    19   16   20 1
    20   17   22 1
    21   18   20 2
    22   18   21 1
    23   18   22 1
    24   19   26 1
    25   20   26 1
    26   21   23 1
    27   21   24 2
    28   22   25 2
    29   23   27 am
    30   23   28 2
    31   24   26 1
    32   25   27 1
    33    1   29 1
    34    2   30 1
    35    3   31 1
    36    4   32 1
    37    5   33 1
    38    6   34 1
    39    7   35 1
    40    8   36 1
    41    9   37 1
    42   10   38 1
    43   11   39 1
    44   12   40 1
    45   13   41 1
    46   14   42 1
    47   15   43 1
    48   27   44 1
@<TRIPOS>Similarity
1.7321
@<TRIPOS>ShapeSim
0.8821
@<TRIPOS>PharmSim
0.8500
# END
# Name:		AO-476/43201397
# Created and modified by SHAFTS on Tue Sep 23 17:55:44 2014

# 

@<TRIPOS>MOLECULE
AO-476/43201397
   44    48     0
SMALL
USER_CHARGE


@<TRIPOS>ATOM
      1 C1          0.2942   -0.7974    3.0377 C.ar      1 <1>        -0.0914
      2 C2         -1.4290    2.6450    0.6775 C.ar      1 <1>        -0.0927
      3 C3          5.9067   -3.4373    2.6486 C.ar      1 <1>        -0.0864
      4 C4          0.3526   -1.4155    1.7886 C.ar      1 <1>        -0.0861
      5 C5          1.2313    0.1785    3.3773 C.ar      1 <1>        -0.0880
      6 C6         -0.3457    3.3980    1.1307 C.ar      1 <1>        -0.0872
      7 C7         -1.2640    1.7537   -0.3826 C.ar      1 <1>        -0.0869
      8 C8          5.5299   -2.2215    3.2192 C.ar      1 <1>        -0.0788
      9 C9          5.8284   -3.6135    1.2671 C.ar      1 <1>        -0.0775
     10 C10         1.3480   -1.0579    0.8793 C.ar      1 <1>        -0.0690
     11 C11         2.2267    0.5362    2.4681 C.ar      1 <1>        -0.0715
     12 C12         0.9025    3.2595    0.5236 C.ar      1 <1>        -0.0658
     13 C13        -0.0159    1.6152   -0.9896 C.ar      1 <1>        -0.0659
     14 C14         5.0748   -1.1819    2.4082 C.ar      1 <1>        -0.0544
     15 C15         5.3735   -2.5737    0.4561 C.ar      1 <1>        -0.0522
     16 C16         2.2851   -0.0819    1.2190 C.ar      1 <1>        -0.0349
     17 C17         1.0674    2.3682   -0.5365 C.ar      1 <1>        -0.0271
     18 C18         3.3395    1.2511   -0.7014 C.2       1 <1>         0.0557
     19 C19         4.9967   -1.3580    1.0267 C.ar      1 <1>        -0.0102
     20 C20         3.3167    0.2895    0.2757 C.2       1 <1>         0.0320
     21 C21         4.6028    1.1262   -1.3083 C.2       1 <1>         0.0697
     22 C22         2.3881    2.2217   -1.1789 C.2       1 <1>         0.0399
     23 C23         4.9330    1.9765   -2.4184 C.2       1 <1>         0.0212
     24 N1          5.3493    0.1718   -0.7450 N.2       1 <1>        -0.2931
     25 N2          2.6959    2.9705   -2.2015 N.2       1 <1>        -0.3186
     26 N3          4.5411   -0.3165    0.2153 N.pl3     1 <1>        -0.2837
     27 N4          3.9311    2.8509   -2.8003 N.pl3     1 <1>        -0.2723
     28 S1          6.4156    1.8782   -3.1623 S.2       1 <1>        -0.2291
     29 H1         -0.4813   -1.0754    3.7453 H         1 <1>         0.1252
     30 H2         -2.4007    2.7529    1.1502 H         1 <1>         0.1223
     31 H3          6.2628   -4.2465    3.2794 H         1 <1>         0.1277
     32 H4         -0.3770   -2.1755    1.5244 H         1 <1>         0.1271
     33 H5          1.1850    0.6606    4.3496 H         1 <1>         0.1246
     34 H6         -0.4744    4.0922    1.9559 H         1 <1>         0.1228
     35 H7         -2.1074    1.1672   -0.7352 H         1 <1>         0.1234
     36 H8          5.5920   -2.0837    4.2947 H         1 <1>         0.1335
     37 H9          6.1234   -4.5601    0.8234 H         1 <1>         0.1348
     38 H10         1.3786   -1.5470   -0.0914 H         1 <1>         0.1396
     39 H11         2.9503    1.2978    2.7483 H         1 <1>         0.1337
     40 H12         1.7399    3.8511    0.8847 H         1 <1>         0.1414
     41 H13         0.1010    0.9176   -1.8150 H         1 <1>         0.1394
     42 H14         4.7851   -0.2390    2.8656 H         1 <1>         0.1498
     43 H15         5.3183   -2.7243   -0.6193 H         1 <1>         0.1560
     44 H16         4.0740    3.4843   -3.5808 H         1 <1>         0.4027
@<TRIPOS>BOND
     1    1    4 ar
     2    1    5 ar
     3    2    6 ar
     4    2    7 ar
     5    3    8 ar
     6    3    9 ar
     7    4   10 ar
     8    5   11 ar
     9    6   12 ar
    10    7   13 ar
    11    8   14 ar
    12    9   15 ar
    13   10   16 ar
    14   11   16 ar
    15   12   17 ar
    16   13   17 ar
    17   14   19 ar
    18   15   19 ar
    19   16   20 1
    20   17   22 1
    21   18   20 2
    22   18   21 1
    23   18   22 1
    24   19   26 1
    25   20   26 1
    26   21   23 1
    27   21   24 2
    28   22   25 2
    29   23   27 1
    30   23   28 2
    31   24   26 1
    32   25   27 1
    33    1   29 1
    34    2   30 1
    35    3   31 1
    36    4   32 1
    37    5   33 1
    38    6   34 1
    39    7   35 1
    40    8   36 1
    41    9   37 1
    42   10   38 1
    43   11   39 1
    44   12   40 1
    45   13   41 1
    46   14   42 1
    47   15   43 1
    48   27   44 1
@<TRIPOS>Similarity
1.7202
@<TRIPOS>ShapeSim
0.8714
@<TRIPOS>PharmSim
0.8489
# END
# Name:		AO-476/43250023
# Created and modified by SHAFTS on Tue Sep 23 17:55:44 2014

# 

@<TRIPOS>MOLECULE
AO-476/43250023
   37    40     0
SMALL
USER_CHARGE


@<TRIPOS>ATOM
      1 C1          5.7059   -3.4905    2.8247 C.ar      1 <1>        -0.0956
      2 C2          4.7971   -2.5702    3.3468 C.ar      1 <1>        -0.0892
      3 C3          6.1375   -3.3720    1.5036 C.ar      1 <1>        -0.0916
      4 C4          4.3199   -1.5312    2.5478 C.ar      1 <1>        -0.0694
      5 C5          5.6602   -2.3330    0.7045 C.ar      1 <1>        -0.0739
      6 C6          1.0942    2.8013    0.8930 C.ar      1 <1>        -0.0592
      7 C7          0.1770    1.1908   -0.6568 C.ar      1 <1>        -0.0609
      8 C8         -0.1854    3.3052    1.1266 C.ar      1 <1>        -0.0301
      9 C9         -1.1025    1.6946   -0.4231 C.ar      1 <1>        -0.0311
     10 C10         2.9987    0.1902    0.5966 C.ar      1 <1>        -0.0283
     11 C11         5.1800    2.5209   -3.1147 C.ar      1 <1>         0.0404
     12 C12         3.4878    1.6746   -1.2356 C.ar      1 <1>         0.0215
     13 C13         1.2753    1.7442    0.0012 C.ar      1 <1>        -0.0534
     14 C14         4.7514   -1.4127    1.2266 C.ar      1 <1>        -0.0441
     15 C15         2.6084    1.2194   -0.2421 C.ar      1 <1>        -0.0179
     16 C16        -1.2837    2.7518    0.4686 C.ar      1 <1>         0.0468
     17 C17         4.2573   -0.3370    0.3999 C.ar      1 <1>        -0.0035
     18 C18         4.7506    1.0858   -1.3697 C.ar      1 <1>         0.0475
     19 C19         3.1675    2.7044   -2.1168 C.ar      1 <1>         0.0182
     20 N1          5.5940    1.5158   -2.3148 N.ar      1 <1>        -0.3318
     21 N2          3.9982    3.1520   -3.0730 N.ar      1 <1>        -0.3494
     22 N3          5.1206    0.0896   -0.5533 N.ar      1 <1>        -0.3450
     23 N4          1.9209    3.3656   -2.0671 N.pl3     1 <1>        -0.3300
     24 F1         -2.5124    3.2356    0.6929 F         1 <1>        -0.3386
     25 H1          6.0787   -4.2983    3.4476 H         1 <1>         0.1200
     26 H2          4.4623   -2.6614    4.3759 H         1 <1>         0.1214
     27 H3          6.8462   -4.0873    1.0968 H         1 <1>         0.1194
     28 H4          3.6119   -0.8215    2.9695 H         1 <1>         0.1474
     29 H5          6.0061   -2.2530   -0.3234 H         1 <1>         0.1346
     30 H6          1.9403    3.2435    1.4136 H         1 <1>         0.1507
     31 H7          0.3019    0.3662   -1.3546 H         1 <1>         0.1467
     32 H8         -0.3267    4.1284    1.8208 H         1 <1>         0.1549
     33 H9         -1.9581    1.2641   -0.9350 H         1 <1>         0.1547
     34 H10         2.3472   -0.1905    1.3783 H         1 <1>         0.1677
     35 H11         5.8798    2.8510   -3.8727 H         1 <1>         0.3157
     36 H12         1.2321    3.0565   -1.4126 H         1 <1>         0.2690
     37 H13         1.7152    4.0668   -2.7486 H         1 <1>         0.2662
@<TRIPOS>BOND
     1    1    2 ar
     2    1    3 ar
     3    2    4 ar
     4    3    5 ar
     5    4   14 ar
     6    5   14 ar
     7    6    8 ar
     8    6   13 ar
     9    7    9 ar
    10    7   13 ar
    11    8   16 ar
    12    9   16 ar
    13   10   15 ar
    14   10   17 ar
    15   11   20 ar
    16   11   21 ar
    17   12   15 ar
    18   12   18 ar
    19   12   19 ar
    20   13   15 1
    21   14   17 1
    22   16   24 1
    23   17   22 ar
    24   18   20 ar
    25   18   22 ar
    26   19   21 ar
    27   19   23 1
    28    1   25 1
    29    2   26 1
    30    3   27 1
    31    4   28 1
    32    5   29 1
    33    6   30 1
    34    7   31 1
    35    8   32 1
    36    9   33 1
    37   10   34 1
    38   11   35 1
    39   23   36 1
    40   23   37 1
@<TRIPOS>Similarity
1.7012
@<TRIPOS>ShapeSim
0.9282
@<TRIPOS>PharmSim
0.7730
# END
# Name:		AO-476/15578132
# Created and modified by SHAFTS on Tue Sep 23 17:55:44 2014

# 

@<TRIPOS>MOLECULE
AO-476/15578132
   41    44     0
SMALL
USER_CHARGE


@<TRIPOS>ATOM
      1 C1         -1.2838    2.7519    0.4689 C.ar      1 <1>        -0.0980
      2 C2         -0.1854    3.3052    1.1267 C.ar      1 <1>        -0.0949
      3 C3         -1.1027    1.6945   -0.4228 C.ar      1 <1>        -0.0959
      4 C4          1.0941    2.8015    0.8928 C.ar      1 <1>        -0.0846
      5 C5          0.1767    1.1907   -0.6567 C.ar      1 <1>        -0.0863
      6 C6          4.8676   -1.2355    2.6057 C.ar      1 <1>        -0.0571
      7 C7          5.1123   -2.6284    0.6469 C.ar      1 <1>        -0.0560
      8 C8          5.3451   -2.2746    3.4043 C.ar      1 <1>        -0.0594
      9 C9          5.5897   -3.6676    1.4456 C.ar      1 <1>        -0.0546
     10 C10         2.9985    0.1904    0.5966 C.ar      1 <1>        -0.0301
     11 C11         5.1801    2.5209   -3.1145 C.ar      1 <1>         0.0390
     12 C12         3.4878    1.6747   -1.2355 C.ar      1 <1>         0.0201
     13 C13         1.2752    1.7441    0.0011 C.ar      1 <1>        -0.0661
     14 C14         4.7513   -1.4124    1.2270 C.ar      1 <1>        -0.0376
     15 C15         2.6084    1.2194   -0.2422 C.ar      1 <1>        -0.0214
     16 C16         5.7062   -3.4907    2.8242 C.ar      1 <1>        -0.0351
     17 C17         4.2572   -0.3367    0.4003 C.ar      1 <1>        -0.0042
     18 C18         4.7507    1.0858   -1.3694 C.ar      1 <1>         0.0458
     19 C19         3.1675    2.7043   -2.1169 C.ar      1 <1>         0.0174
     20 C20         6.5236   -5.7207    2.9456 C.3       1 <1>         0.0114
     21 N1          5.5941    1.5159   -2.3145 N.ar      1 <1>        -0.3332
     22 N2          3.9983    3.1520   -3.0730 N.ar      1 <1>        -0.3505
     23 N3          5.1205    0.0897   -0.5530 N.ar      1 <1>        -0.3471
     24 N4          1.9209    3.3656   -2.0673 N.pl3     1 <1>        -0.3299
     25 O1          6.1726   -4.5042    3.6036 O.3       1 <1>        -0.4625
     26 H1         -2.2802    3.1432    0.6525 H         1 <1>         0.1192
     27 H2         -0.3263    4.1274    1.8222 H         1 <1>         0.1190
     28 H3         -1.9578    1.2624   -0.9344 H         1 <1>         0.1189
     29 H4          1.9403    3.2435    1.4136 H         1 <1>         0.1320
     30 H5          0.3022    0.3659   -1.3541 H         1 <1>         0.1280
     31 H6          4.5903   -0.2933    3.0725 H         1 <1>         0.1570
     32 H7          5.0273   -2.7819   -0.4262 H         1 <1>         0.1515
     33 H8          5.4338   -2.1308    4.4776 H         1 <1>         0.1311
     34 H9          5.8698   -4.6126    0.9881 H         1 <1>         0.1458
     35 H10         2.3470   -0.1903    1.3783 H         1 <1>         0.1655
     36 H11         5.8800    2.8510   -3.8724 H         1 <1>         0.3141
     37 H12         6.8801   -6.4446    3.6824 H         1 <1>         0.1330
     38 H13         7.3031   -5.5239    2.2054 H         1 <1>         0.1099
     39 H14         5.6397   -6.1209    2.4433 H         1 <1>         0.1099
     40 H15         1.2321    3.0564   -1.4128 H         1 <1>         0.2701
     41 H16         1.7152    4.0667   -2.7489 H         1 <1>         0.2658
@<TRIPOS>BOND
     1    1    2 ar
     2    1    3 ar
     3    2    4 ar
     4    3    5 ar
     5    4   13 ar
     6    5   13 ar
     7    6    8 ar
     8    6   14 ar
     9    7    9 ar
    10    7   14 ar
    11    8   16 ar
    12    9   16 ar
    13   10   15 ar
    14   10   17 ar
    15   11   21 ar
    16   11   22 ar
    17   12   15 ar
    18   12   18 ar
    19   12   19 ar
    20   13   15 1
    21   14   17 1
    22   16   25 1
    23   17   23 ar
    24   18   21 ar
    25   18   23 ar
    26   19   22 ar
    27   19   24 1
    28   20   25 1
    29    1   26 1
    30    2   27 1
    31    3   28 1
    32    4   29 1
    33    5   30 1
    34    6   31 1
    35    7   32 1
    36    8   33 1
    37    9   34 1
    38   10   35 1
    39   11   36 1
    40   20   37 1
    41   20   38 1
    42   20   39 1
    43   24   40 1
    44   24   41 1
@<TRIPOS>Similarity
1.6992
@<TRIPOS>ShapeSim
0.9234
@<TRIPOS>PharmSim
0.7759
# END
# Name:		AO-476/15578130
# Created and modified by SHAFTS on Tue Sep 23 17:55:44 2014

# 

@<TRIPOS>MOLECULE
AO-476/15578130
   37    40     0
SMALL
USER_CHARGE


@<TRIPOS>ATOM
      1 C1          5.7061   -3.4907    2.8246 C.ar      1 <1>        -0.0955
      2 C2          4.7973   -2.5703    3.3468 C.ar      1 <1>        -0.0892
      3 C3          6.1377   -3.3720    1.5036 C.ar      1 <1>        -0.0916
      4 C4          4.3200   -1.5313    2.5479 C.ar      1 <1>        -0.0694
      5 C5          5.6602   -2.3331    0.7045 C.ar      1 <1>        -0.0738
      6 C6          1.0941    2.8013    0.8933 C.ar      1 <1>        -0.0693
      7 C7          0.1771    1.1909   -0.6569 C.ar      1 <1>        -0.0677
      8 C8         -0.1854    3.3053    1.1264 C.ar      1 <1>        -0.0576
      9 C9         -1.1024    1.6949   -0.4237 C.ar      1 <1>        -0.0567
     10 C10         2.9987    0.1901    0.5967 C.ar      1 <1>        -0.0280
     11 C11         5.1798    2.5209   -3.1145 C.ar      1 <1>         0.0405
     12 C12         3.4878    1.6745   -1.2353 C.ar      1 <1>         0.0218
     13 C13         1.2753    1.7440    0.0015 C.ar      1 <1>        -0.0561
     14 C14         4.7515   -1.4127    1.2267 C.ar      1 <1>        -0.0440
     15 C15         2.6085    1.2193   -0.2420 C.ar      1 <1>        -0.0177
     16 C16        -1.2837    2.7522    0.4682 C.ar      1 <1>        -0.0150
     17 C17         4.2573   -0.3370    0.4001 C.ar      1 <1>        -0.0033
     18 C18         4.7506    1.0856   -1.3696 C.ar      1 <1>         0.0478
     19 C19         3.1674    2.7043   -2.1167 C.ar      1 <1>         0.0184
     20 N1          5.5940    1.5158   -2.3147 N.ar      1 <1>        -0.3316
     21 N2          3.9981    3.1520   -3.0728 N.ar      1 <1>        -0.3493
     22 N3          5.1205    0.0895   -0.5533 N.ar      1 <1>        -0.3448
     23 N4          1.9208    3.3656   -2.0669 N.pl3     1 <1>        -0.3298
     24 Cl1        -2.8619    3.3756    0.7553 Cl        1 <1>        -0.1811
     25 H1          6.0789   -4.2984    3.4475 H         1 <1>         0.1201
     26 H2          4.4624   -2.6615    4.3760 H         1 <1>         0.1214
     27 H3          6.8463   -4.0874    1.0967 H         1 <1>         0.1194
     28 H4          3.6120   -0.8216    2.9696 H         1 <1>         0.1474
     29 H5          6.0062   -2.2530   -0.3233 H         1 <1>         0.1346
     30 H6          1.9403    3.2431    1.4139 H         1 <1>         0.1429
     31 H7          0.3022    0.3670   -1.3557 H         1 <1>         0.1467
     32 H8         -0.3122    4.1307    1.8227 H         1 <1>         0.1455
     33 H9         -1.9491    1.2550   -0.9445 H         1 <1>         0.1455
     34 H10         2.3473   -0.1906    1.3784 H         1 <1>         0.1680
     35 H11         5.8797    2.8509   -3.8726 H         1 <1>         0.3159
     36 H12         1.2320    3.0564   -1.4123 H         1 <1>         0.2664
     37 H13         1.7151    4.0667   -2.7484 H         1 <1>         0.2693
@<TRIPOS>BOND
     1    1    2 ar
     2    1    3 ar
     3    2    4 ar
     4    3    5 ar
     5    4   14 ar
     6    5   14 ar
     7    6    8 ar
     8    6   13 ar
     9    7    9 ar
    10    7   13 ar
    11    8   16 ar
    12    9   16 ar
    13   10   15 ar
    14   10   17 ar
    15   11   20 ar
    16   11   21 ar
    17   12   15 ar
    18   12   18 ar
    19   12   19 ar
    20   13   15 1
    21   14   17 1
    22   16   24 1
    23   17   22 ar
    24   18   20 ar
    25   18   22 ar
    26   19   21 ar
    27   19   23 1
    28    1   25 1
    29    2   26 1
    30    3   27 1
    31    4   28 1
    32    5   29 1
    33    6   30 1
    34    7   31 1
    35    8   32 1
    36    9   33 1
    37   10   34 1
    38   11   35 1
    39   23   36 1
    40   23   37 1
@<TRIPOS>Similarity
1.6973
@<TRIPOS>ShapeSim
0.9243
@<TRIPOS>PharmSim
0.7730
# END
# Name:		AO-476/43249986
# Created and modified by SHAFTS on Tue Sep 23 17:55:44 2014

# 

@<TRIPOS>MOLECULE
AO-476/43249986
   44    48     0
SMALL
USER_CHARGE


@<TRIPOS>ATOM
      1 C1          0.4311   -0.6315    3.1509 C.ar      1 <1>        -0.0930
      2 C2         -1.3762    2.6838    0.5809 C.ar      1 <1>        -0.0946
      3 C3          0.9682    0.6547    3.0992 C.ar      1 <1>        -0.0875
      4 C4          0.8673   -1.6060    2.2532 C.ar      1 <1>        -0.0900
      5 C5         -1.0182    1.4757   -0.0175 C.ar      1 <1>        -0.0886
      6 C6         -0.4753    3.7485    0.5961 C.ar      1 <1>        -0.0888
      7 C7          5.8330   -3.6333    1.2466 C.ar      1 <1>        -0.0637
      8 C8          5.9562   -3.4417    2.6227 C.ar      1 <1>        -0.0595
      9 C9          1.9415    0.9665    2.1500 C.ar      1 <1>        -0.0710
     10 C10         1.8405   -1.2942    1.3038 C.ar      1 <1>        -0.0746
     11 C11         0.2408    1.3325   -0.6008 C.ar      1 <1>        -0.0676
     12 C12         0.7837    3.6053    0.0130 C.ar      1 <1>        -0.0672
     13 C13         5.3795   -2.5931    0.4354 C.ar      1 <1>        -0.0271
     14 C14         5.6257   -2.2099    3.1877 C.ar      1 <1>        -0.0113
     15 C15         2.3776   -0.0079    1.2523 C.ar      1 <1>        -0.0377
     16 C16         1.1417    2.3972   -0.5855 C.ar      1 <1>        -0.0284
     17 C17         3.3966    1.2453   -0.7388 C.2       1 <1>         0.0684
     18 C18         5.0489   -1.3614    1.0004 C.ar      1 <1>         0.0551
     19 C19         5.1722   -1.1698    2.3765 C.ar      1 <1>         0.0965
     20 C20         3.3875    0.3153    0.2686 C.2       1 <1>         0.0355
     21 C21         4.6526    1.1059   -1.3444 C.2       1 <1>         0.1227
     22 C22         2.4738    2.2456   -1.2025 C.2       1 <1>         0.0426
     23 C23         5.0456    1.9596   -2.4321 C.2       1 <1>         0.1602
     24 N1          5.3956    0.1440   -0.7957 N.2       1 <1>        -0.2736
     25 N2          2.8326    3.0367   -2.1749 N.2       1 <1>        -0.3063
     26 N3          4.5963   -0.3219    0.1848 N.pl3     1 <1>        -0.2632
     27 N4          4.0705    2.8961   -2.7659 N.am      1 <1>        -0.2272
     28 O1          6.1310    1.8694   -2.9968 O.2       1 <1>        -0.4683
     29 F1          4.8584    0.0093    2.9328 F         1 <1>        -0.3073
     30 H1         -0.3262   -0.8745    3.8905 H         1 <1>         0.1227
     31 H2         -2.3565    2.7953    1.0350 H         1 <1>         0.1193
     32 H3          0.6283    1.4135    3.7982 H         1 <1>         0.1257
     33 H4          0.4499   -2.6080    2.2942 H         1 <1>         0.1223
     34 H5         -1.7198    0.6467   -0.0290 H         1 <1>         0.1210
     35 H6         -0.7542    4.6892    1.0618 H         1 <1>         0.1207
     36 H7          6.0910   -4.5922    0.8069 H         1 <1>         0.1429
     37 H8          6.3096   -4.2520    3.2538 H         1 <1>         0.1480
     38 H9          2.3523    1.9730    2.1242 H         1 <1>         0.1387
     39 H10         2.1692   -2.0646    0.6105 H         1 <1>         0.1296
     40 H11         0.5094    0.3868   -1.0643 H         1 <1>         0.1372
     41 H12         1.4777    4.4417    0.0308 H         1 <1>         0.1401
     42 H13         5.2889   -2.7562   -0.6358 H         1 <1>         0.1695
     43 H14         5.7211   -2.0609    4.2592 H         1 <1>         0.1697
     44 H15         4.2931    3.5393   -3.5192 H         1 <1>         0.4084
@<TRIPOS>BOND
     1    1    3 ar
     2    1    4 ar
     3    2    5 ar
     4    2    6 ar
     5    3    9 ar
     6    4   10 ar
     7    5   11 ar
     8    6   12 ar
     9    7    8 ar
    10    7   13 ar
    11    8   14 ar
    12    9   15 ar
    13   10   15 ar
    14   11   16 ar
    15   12   16 ar
    16   13   18 ar
    17   14   19 ar
    18   15   20 1
    19   16   22 1
    20   17   20 2
    21   17   21 1
    22   17   22 1
    23   18   19 ar
    24   18   26 1
    25   19   29 1
    26   20   26 1
    27   21   23 1
    28   21   24 2
    29   22   25 2
    30   23   27 am
    31   23   28 2
    32   24   26 1
    33   25   27 1
    34    1   30 1
    35    2   31 1
    36    3   32 1
    37    4   33 1
    38    5   34 1
    39    6   35 1
    40    7   36 1
    41    8   37 1
    42    9   38 1
    43   10   39 1
    44   11   40 1
    45   12   41 1
    46   13   42 1
    47   14   43 1
    48   27   44 1
@<TRIPOS>Similarity
1.6957
@<TRIPOS>ShapeSim
0.8785
@<TRIPOS>PharmSim
0.8172
# END
# Name:		AO-476/43249991
# Created and modified by SHAFTS on Tue Sep 23 17:55:44 2014

# 

@<TRIPOS>MOLECULE
AO-476/43249991
   44    48     0
SMALL
USER_CHARGE


@<TRIPOS>ATOM
      1 C1          0.4317   -0.6346    3.1489 C.ar      1 <1>        -0.0929
      2 C2         -1.3759    2.6826    0.5816 C.ar      1 <1>        -0.0945
      3 C3          0.9687    0.6517    3.0982 C.ar      1 <1>        -0.0876
      4 C4          0.8679   -1.6084    2.2504 C.ar      1 <1>        -0.0900
      5 C5         -1.0179    1.4750   -0.0178 C.ar      1 <1>        -0.0888
      6 C6         -0.4750    3.7474    0.5975 C.ar      1 <1>        -0.0886
      7 C7          1.9420    0.9642    2.1492 C.ar      1 <1>        -0.0715
      8 C8          1.8411   -1.2958    1.3013 C.ar      1 <1>        -0.0747
      9 C9          0.2411    1.3323   -0.6013 C.ar      1 <1>        -0.0673
     10 C10         0.7841    3.6047    0.0142 C.ar      1 <1>        -0.0676
     11 C11         5.1702   -1.1684    2.3737 C.ar      1 <1>        -0.0257
     12 C12         5.3812   -2.5953    0.4356 C.ar      1 <1>        -0.0271
     13 C13         5.6226   -2.2070    3.1877 C.ar      1 <1>        -0.0122
     14 C14         5.8336   -3.6339    1.2495 C.ar      1 <1>        -0.0129
     15 C15         2.3781   -0.0094    1.2507 C.ar      1 <1>        -0.0387
     16 C16         1.1421    2.3971   -0.5852 C.ar      1 <1>        -0.0284
     17 C17         3.3970    1.2454   -0.7394 C.2       1 <1>         0.0676
     18 C18         5.0495   -1.3627    0.9977 C.ar      1 <1>         0.0041
     19 C19         5.9542   -3.4397    2.6254 C.ar      1 <1>         0.0592
     20 C20         3.3879    0.3146    0.2672 C.2       1 <1>         0.0313
     21 C21         4.6530    1.1064   -1.3452 C.2       1 <1>         0.1216
     22 C22         2.4741    2.2460   -1.2023 C.2       1 <1>         0.0425
     23 C23         5.0458    1.9610   -2.4322 C.2       1 <1>         0.1596
     24 N1          5.3961    0.1441   -0.7972 N.2       1 <1>        -0.2779
     25 N2          2.8328    3.0379   -2.1741 N.2       1 <1>        -0.3063
     26 N3          4.5967   -0.3225    0.1830 N.pl3     1 <1>        -0.2797
     27 N4          4.0707    2.8977   -2.7652 N.am      1 <1>        -0.2273
     28 O1          6.1313    1.8712   -2.9970 O.2       1 <1>        -0.4687
     29 F1          6.3886   -4.4370    3.4070 F         1 <1>        -0.3325
     30 H1         -0.3257   -0.8782    3.8884 H         1 <1>         0.1231
     31 H2         -2.3561    2.7937    1.0358 H         1 <1>         0.1193
     32 H3          0.6288    1.4099    3.7977 H         1 <1>         0.1259
     33 H4          0.4505   -2.6103    2.2907 H         1 <1>         0.1226
     34 H5         -1.7193    0.6461   -0.0300 H         1 <1>         0.1208
     35 H6         -0.7539    4.6877    1.0640 H         1 <1>         0.1211
     36 H7          2.3526    1.9709    2.1242 H         1 <1>         0.1383
     37 H8          2.1698   -2.0657    0.6074 H         1 <1>         0.1306
     38 H9          0.5097    0.3869   -1.0655 H         1 <1>         0.1400
     39 H10         1.4780    4.4410    0.0327 H         1 <1>         0.1374
     40 H11         4.9146   -0.2129    2.8256 H         1 <1>         0.1753
     41 H12         5.2928   -2.7599   -0.6356 H         1 <1>         0.1709
     42 H13         5.7158   -2.0565    4.2590 H         1 <1>         0.1707
     43 H14         6.0927   -4.5937    0.8123 H         1 <1>         0.1703
     44 H15         4.2933    3.5416   -3.5182 H         1 <1>         0.4084
@<TRIPOS>BOND
     1    1    3 ar
     2    1    4 ar
     3    2    5 ar
     4    2    6 ar
     5    3    7 ar
     6    4    8 ar
     7    5    9 ar
     8    6   10 ar
     9    7   15 ar
    10    8   15 ar
    11    9   16 ar
    12   10   16 ar
    13   11   13 ar
    14   11   18 ar
    15   12   14 ar
    16   12   18 ar
    17   13   19 ar
    18   14   19 ar
    19   15   20 1
    20   16   22 1
    21   17   20 2
    22   17   21 1
    23   17   22 1
    24   18   26 1
    25   19   29 1
    26   20   26 1
    27   21   23 1
    28   21   24 2
    29   22   25 2
    30   23   27 am
    31   23   28 2
    32   24   26 1
    33   25   27 1
    34    1   30 1
    35    2   31 1
    36    3   32 1
    37    4   33 1
    38    5   34 1
    39    6   35 1
    40    7   36 1
    41    8   37 1
    42    9   38 1
    43   10   39 1
    44   11   40 1
    45   12   41 1
    46   13   42 1
    47   14   43 1
    48   27   44 1
@<TRIPOS>Similarity
1.6945
@<TRIPOS>ShapeSim
0.8772
@<TRIPOS>PharmSim
0.8173
# END
# Name:		AO-476/43250025
# Created and modified by SHAFTS on Tue Sep 23 17:55:44 2014

# 

@<TRIPOS>MOLECULE
AO-476/43250025
   41    44     0
SMALL
USER_CHARGE


@<TRIPOS>ATOM
      1 C1          5.7064   -3.5418    2.8779 C.ar      1 <1>        -0.0957
      2 C2          5.3472   -2.3237    3.4548 C.ar      1 <1>        -0.0917
      3 C3          5.5930   -3.7209    1.4991 C.ar      1 <1>        -0.0893
      4 C4         -0.1641    3.2659    1.1543 C.ar      1 <1>        -0.0829
      5 C5          4.8745   -1.2848    2.6530 C.ar      1 <1>        -0.0738
      6 C6          5.1202   -2.6821    0.6974 C.ar      1 <1>        -0.0694
      7 C7          1.1151    2.7594    0.9249 C.ar      1 <1>        -0.0787
      8 C8         -1.2618    2.7135    0.4944 C.ar      1 <1>        -0.0686
      9 C9          0.1989    1.1479   -0.6246 C.ar      1 <1>        -0.0503
     10 C10         3.0142    0.1426    0.6374 C.ar      1 <1>        -0.0267
     11 C11         5.2110    2.4617   -3.0719 C.ar      1 <1>         0.0399
     12 C12         3.5119    1.6229   -1.1957 C.ar      1 <1>         0.0231
     13 C13         4.7610   -1.4639    1.2743 C.ar      1 <1>        -0.0439
     14 C14         1.2966    1.7002    0.0355 C.ar      1 <1>        -0.0502
     15 C15         2.6288    1.1715   -0.2038 C.ar      1 <1>        -0.0148
     16 C16        -1.0804    1.6544   -0.3951 C.ar      1 <1>        -0.0363
     17 C17         4.2718   -0.3882    0.4448 C.ar      1 <1>        -0.0030
     18 C18         4.7735    1.0304   -1.3258 C.ar      1 <1>         0.0480
     19 C19         3.1966    2.6521   -2.0793 C.ar      1 <1>         0.0190
     20 C20        -1.8948    0.0350   -1.9345 C.3       1 <1>         0.0106
     21 N1          5.6204    1.4568   -2.2695 N.ar      1 <1>        -0.3321
     22 N2          4.0308    3.0961   -3.0342 N.ar      1 <1>        -0.3495
     23 N3          5.1387    0.0345   -0.5070 N.ar      1 <1>        -0.3448
     24 N4          1.9516    3.3169   -2.0338 N.pl3     1 <1>        -0.3293
     25 O1         -2.1516    1.1155   -1.0389 O.3       1 <1>        -0.4634
     26 H1          6.0760   -4.3500    3.5020 H         1 <1>         0.1197
     27 H2          5.4371   -2.1835    4.5280 H         1 <1>         0.1192
     28 H3          5.8738   -4.6687    1.0491 H         1 <1>         0.1212
     29 H4         -0.3053    4.0907    1.8466 H         1 <1>         0.1283
     30 H5          4.5987   -0.3411    3.1177 H         1 <1>         0.1348
     31 H6          5.0378   -2.8361   -0.3758 H         1 <1>         0.1474
     32 H7          1.9608    3.2007    1.4470 H         1 <1>         0.1302
     33 H8         -2.2560    3.1120    0.6771 H         1 <1>         0.1287
     34 H9          0.3309    0.3220   -1.3209 H         1 <1>         0.1535
     35 H10         2.3598   -0.2351    1.4180 H         1 <1>         0.1686
     36 H11         5.9136    2.7887   -3.8287 H         1 <1>         0.3150
     37 H12        -2.8343   -0.3008   -2.3804 H         1 <1>         0.1088
     38 H13        -1.4233   -0.7867   -1.3898 H         1 <1>         0.1090
     39 H14        -1.2222    0.3797   -2.7237 H         1 <1>         0.1329
     40 H15         1.2605    3.0105   -1.3806 H         1 <1>         0.2705
     41 H16         1.7494    4.0175   -2.7169 H         1 <1>         0.2666
@<TRIPOS>BOND
     1    1    2 ar
     2    1    3 ar
     3    2    5 ar
     4    3    6 ar
     5    4    7 ar
     6    4    8 ar
     7    5   13 ar
     8    6   13 ar
     9    7   14 ar
    10    8   16 ar
    11    9   14 ar
    12    9   16 ar
    13   10   15 ar
    14   10   17 ar
    15   11   21 ar
    16   11   22 ar
    17   12   15 ar
    18   12   18 ar
    19   12   19 ar
    20   13   17 1
    21   14   15 1
    22   16   25 1
    23   17   23 ar
    24   18   21 ar
    25   18   23 ar
    26   19   22 ar
    27   19   24 1
    28   20   25 1
    29    1   26 1
    30    2   27 1
    31    3   28 1
    32    4   29 1
    33    5   30 1
    34    6   31 1
    35    7   32 1
    36    8   33 1
    37    9   34 1
    38   10   35 1
    39   11   36 1
    40   20   37 1
    41   20   38 1
    42   20   39 1
    43   24   40 1
    44   24   41 1
@<TRIPOS>Similarity
1.6926
@<TRIPOS>ShapeSim
0.9193
@<TRIPOS>PharmSim
0.7732
# END
# Name:		AO-476/43249984
# Created and modified by SHAFTS on Tue Sep 23 17:55:44 2014

# 

@<TRIPOS>MOLECULE
AO-476/43249984
   47    51     0
SMALL
USER_CHARGE


@<TRIPOS>ATOM
      1 C1          0.4314   -0.6339    3.1493 C.ar      1 <1>        -0.0933
      2 C2         -1.3759    2.6829    0.5814 C.ar      1 <1>        -0.0946
      3 C3          0.9686    0.6524    3.0985 C.ar      1 <1>        -0.0879
      4 C4          0.8677   -1.6079    2.2510 C.ar      1 <1>        -0.0901
      5 C5         -1.0180    1.4752   -0.0178 C.ar      1 <1>        -0.0886
      6 C6         -0.4750    3.7477    0.5972 C.ar      1 <1>        -0.0889
      7 C7          1.9418    0.9647    2.1493 C.ar      1 <1>        -0.0715
      8 C8          1.8409   -1.2954    1.3018 C.ar      1 <1>        -0.0745
      9 C9          0.2410    1.3323   -0.6011 C.ar      1 <1>        -0.0676
     10 C10         0.7839    3.6048    0.0139 C.ar      1 <1>        -0.0674
     11 C11         5.6230   -2.2077    3.1877 C.ar      1 <1>        -0.0805
     12 C12         5.8337   -3.6337    1.2488 C.ar      1 <1>        -0.0811
     13 C13         5.1704   -1.1687    2.3745 C.ar      1 <1>        -0.0511
     14 C14         5.3810   -2.5948    0.4355 C.ar      1 <1>        -0.0523
     15 C15         2.3780   -0.0091    1.2510 C.ar      1 <1>        -0.0385
     16 C16         1.1420    2.3971   -0.5853 C.ar      1 <1>        -0.0286
     17 C17         3.3969    1.2454   -0.7393 C.2       1 <1>         0.0668
     18 C18         5.9546   -3.4402    2.6248 C.ar      1 <1>        -0.0997
     19 C19         5.0494   -1.3623    0.9983 C.ar      1 <1>        -0.0082
     20 C20         3.3879    0.3147    0.2675 C.2       1 <1>         0.0306
     21 C21         4.6529    1.1064   -1.3450 C.2       1 <1>         0.1206
     22 C22         2.4740    2.2459   -1.2024 C.2       1 <1>         0.0419
     23 C23         5.0458    1.9607   -2.4322 C.2       1 <1>         0.1586
     24 C24         6.4386   -4.5510    3.4942 C.3       1 <1>        -0.0392
     25 N1          5.3960    0.1441   -0.7968 N.2       1 <1>        -0.2790
     26 N2          2.8329    3.0376   -2.1743 N.2       1 <1>        -0.3069
     27 N3          4.5966   -0.3224    0.1834 N.pl3     1 <1>        -0.2825
     28 N4          4.0707    2.8974   -2.7654 N.am      1 <1>        -0.2279
     29 O1          6.1312    1.8709   -2.9969 O.2       1 <1>        -0.4696
     30 H1         -0.3258   -0.8773    3.8888 H         1 <1>         0.1222
     31 H2         -2.3562    2.7941    1.0356 H         1 <1>         0.1191
     32 H3          0.6286    1.4107    3.7978 H         1 <1>         0.1252
     33 H4          0.4504   -2.6098    2.2914 H         1 <1>         0.1221
     34 H5         -1.7194    0.6462   -0.0298 H         1 <1>         0.1210
     35 H6         -0.7539    4.6880    1.0635 H         1 <1>         0.1206
     36 H7          2.3526    1.9713    2.1242 H         1 <1>         0.1378
     37 H8          2.1696   -2.0654    0.6080 H         1 <1>         0.1307
     38 H9          0.5097    0.3869   -1.0653 H         1 <1>         0.1374
     39 H10         1.4779    4.4412    0.0322 H         1 <1>         0.1399
     40 H11         5.7144   -2.0487    4.2588 H         1 <1>         0.1345
     41 H12         6.0900   -4.5905    0.8015 H         1 <1>         0.1342
     42 H13         4.9159   -0.2128    2.8257 H         1 <1>         0.1575
     43 H14         5.2920   -2.7598   -0.6356 H         1 <1>         0.1538
     44 H15         5.5941   -5.1556    3.8470 H         1 <1>         0.0642
     45 H16         7.1337   -5.2064    2.9536 H         1 <1>         0.0614
     46 H17         6.9800   -4.1660    4.3683 H         1 <1>         0.0613
     47 H18         4.2933    3.5410   -3.5184 H         1 <1>         0.4078
@<TRIPOS>BOND
     1    1    3 ar
     2    1    4 ar
     3    2    5 ar
     4    2    6 ar
     5    3    7 ar
     6    4    8 ar
     7    5    9 ar
     8    6   10 ar
     9    7   15 ar
    10    8   15 ar
    11    9   16 ar
    12   10   16 ar
    13   11   13 ar
    14   11   18 ar
    15   12   14 ar
    16   12   18 ar
    17   13   19 ar
    18   14   19 ar
    19   15   20 1
    20   16   22 1
    21   17   20 2
    22   17   21 1
    23   17   22 1
    24   18   24 1
    25   19   27 1
    26   20   27 1
    27   21   23 1
    28   21   25 2
    29   22   26 2
    30   23   28 am
    31   23   29 2
    32   25   27 1
    33   26   28 1
    34    1   30 1
    35    2   31 1
    36    3   32 1
    37    4   33 1
    38    5   34 1
    39    6   35 1
    40    7   36 1
    41    8   37 1
    42    9   38 1
    43   10   39 1
    44   11   40 1
    45   12   41 1
    46   13   42 1
    47   14   43 1
    48   24   44 1
    49   24   45 1
    50   24   46 1
    51   28   47 1
@<TRIPOS>Similarity
1.6918
@<TRIPOS>ShapeSim
0.8745
@<TRIPOS>PharmSim
0.8173
# END
# Name:		AO-476/43249988
# Created and modified by SHAFTS on Tue Sep 23 17:55:44 2014

# 

@<TRIPOS>MOLECULE
AO-476/43249988
   44    48     0
SMALL
USER_CHARGE


@<TRIPOS>ATOM
      1 C1          0.4316   -0.6347    3.1487 C.ar      1 <1>        -0.0929
      2 C2         -1.3759    2.6825    0.5816 C.ar      1 <1>        -0.0945
      3 C3          0.9687    0.6515    3.0981 C.ar      1 <1>        -0.0875
      4 C4          0.8679   -1.6085    2.2503 C.ar      1 <1>        -0.0899
      5 C5         -1.0179    1.4751   -0.0179 C.ar      1 <1>        -0.0888
      6 C6         -0.4750    3.7474    0.5976 C.ar      1 <1>        -0.0885
      7 C7          1.9420    0.9641    2.1492 C.ar      1 <1>        -0.0714
      8 C8          1.8411   -1.2959    1.3011 C.ar      1 <1>        -0.0746
      9 C9          0.2411    1.3323   -0.6013 C.ar      1 <1>        -0.0673
     10 C10         0.7841    3.6046    0.0142 C.ar      1 <1>        -0.0676
     11 C11         5.1703   -1.1683    2.3736 C.ar      1 <1>        -0.0342
     12 C12         5.3812   -2.5954    0.4356 C.ar      1 <1>        -0.0357
     13 C13         5.6225   -2.2068    3.1876 C.ar      1 <1>        -0.0389
     14 C14         5.8335   -3.6340    1.2496 C.ar      1 <1>        -0.0396
     15 C15         2.3781   -0.0095    1.2506 C.ar      1 <1>        -0.0385
     16 C16         1.1421    2.3971   -0.5851 C.ar      1 <1>        -0.0284
     17 C17         3.3970    1.2454   -0.7395 C.2       1 <1>         0.0679
     18 C18         5.0496   -1.3627    0.9976 C.ar      1 <1>         0.0013
     19 C19         5.9540   -3.4397    2.6256 C.ar      1 <1>        -0.0028
     20 C20         3.3879    0.3146    0.2672 C.2       1 <1>         0.0317
     21 C21         4.6531    1.1065   -1.3451 C.2       1 <1>         0.1219
     22 C22         2.4741    2.2460   -1.2023 C.2       1 <1>         0.0427
     23 C23         5.0460    1.9611   -2.4322 C.2       1 <1>         0.1599
     24 N1          5.3962    0.1441   -0.7972 N.2       1 <1>        -0.2775
     25 N2          2.8330    3.0379   -2.1740 N.2       1 <1>        -0.3061
     26 N3          4.5968   -0.3226    0.1830 N.pl3     1 <1>        -0.2795
     27 N4          4.0708    2.8978   -2.7652 N.am      1 <1>        -0.2271
     28 O1          6.1313    1.8713   -2.9969 O.2       1 <1>        -0.4685
     29 Cl1         6.5143   -4.7201    3.6298 Cl        1 <1>        -0.1737
     30 H1         -0.3256   -0.8784    3.8883 H         1 <1>         0.1231
     31 H2         -2.3561    2.7936    1.0358 H         1 <1>         0.1194
     32 H3          0.6288    1.4097    3.7977 H         1 <1>         0.1259
     33 H4          0.4505   -2.6105    2.2904 H         1 <1>         0.1228
     34 H5         -1.7194    0.6461   -0.0300 H         1 <1>         0.1208
     35 H6         -0.7539    4.6876    1.0641 H         1 <1>         0.1211
     36 H7          2.3527    1.9707    2.1242 H         1 <1>         0.1383
     37 H8          2.1698   -2.0657    0.6072 H         1 <1>         0.1305
     38 H9          0.5098    0.3869   -1.0656 H         1 <1>         0.1400
     39 H10         1.4780    4.4410    0.0328 H         1 <1>         0.1374
     40 H11         4.9155   -0.2126    2.8251 H         1 <1>         0.1712
     41 H12         5.2921   -2.7601   -0.6355 H         1 <1>         0.1669
     42 H13         5.7113   -2.0419    4.2583 H         1 <1>         0.1610
     43 H14         6.0879   -4.5895    0.7979 H         1 <1>         0.1606
     44 H15         4.2934    3.5417   -3.5180 H         1 <1>         0.4086
@<TRIPOS>BOND
     1    1    3 ar
     2    1    4 ar
     3    2    5 ar
     4    2    6 ar
     5    3    7 ar
     6    4    8 ar
     7    5    9 ar
     8    6   10 ar
     9    7   15 ar
    10    8   15 ar
    11    9   16 ar
    12   10   16 ar
    13   11   13 ar
    14   11   18 ar
    15   12   14 ar
    16   12   18 ar
    17   13   19 ar
    18   14   19 ar
    19   15   20 1
    20   16   22 1
    21   17   20 2
    22   17   21 1
    23   17   22 1
    24   18   26 1
    25   19   29 1
    26   20   26 1
    27   21   23 1
    28   21   24 2
    29   22   25 2
    30   23   27 am
    31   23   28 2
    32   24   26 1
    33   25   27 1
    34    1   30 1
    35    2   31 1
    36    3   32 1
    37    4   33 1
    38    5   34 1
    39    6   35 1
    40    7   36 1
    41    8   37 1
    42    9   38 1
    43   10   39 1
    44   11   40 1
    45   12   41 1
    46   13   42 1
    47   14   43 1
    48   27   44 1
@<TRIPOS>Similarity
1.6910
@<TRIPOS>ShapeSim
0.8737
@<TRIPOS>PharmSim
0.8173
# END
# Name:		AG-690/11481219
# Created and modified by SHAFTS on Tue Sep 23 17:55:44 2014

# 

@<TRIPOS>MOLECULE
AG-690/11481219
   32    34     0
SMALL
USER_CHARGE


@<TRIPOS>ATOM
      1 C1          3.0962    2.8898   -2.2704 C.1       1 <1>         0.0459
      2 C2          5.9350   -3.3627    2.5559 C.ar      1 <1>        -0.0951
      3 C3          5.5654   -2.1568    3.1515 C.ar      1 <1>        -0.0894
      4 C4          5.8007   -3.5300    1.1776 C.ar      1 <1>        -0.0914
      5 C5          5.0616   -1.1181    2.3688 C.ar      1 <1>        -0.0711
      6 C6          5.2968   -2.4911    0.3948 C.ar      1 <1>        -0.0749
      7 C7          1.1960    2.9397    0.6889 C.ar      1 <1>        -0.0669
      8 C8          0.2786    1.3280   -0.8599 C.ar      1 <1>        -0.0684
      9 C9         -0.0804    3.4592    0.9043 C.ar      1 <1>        -0.0631
     10 C10        -0.9977    1.8476   -0.6443 C.ar      1 <1>        -0.0637
     11 C11         3.1368    0.3000    0.4020 C.ar      1 <1>        -0.0162
     12 C12         3.5331    1.8227   -1.4171 C.ar      1 <1>         0.1150
     13 C13         1.3756    1.8741   -0.1932 C.ar      1 <1>        -0.0454
     14 C14         4.9273   -1.2850    0.9904 C.ar      1 <1>        -0.0466
     15 C15         2.6995    1.3355   -0.4165 C.ar      1 <1>         0.0161
     16 C16        -1.1773    2.9131    0.2379 C.ar      1 <1>        -0.0345
     17 C17         4.4060   -0.2097    0.1808 C.ar      1 <1>        -0.0035
     18 C18         4.7847    1.2450   -1.5567 C.ar      1 <1>         0.1024
     19 N1          2.7430    3.7532   -2.9607 N.1       1 <1>        -0.3712
     20 N2          5.2443    0.2377   -0.7809 N.ar      1 <1>        -0.3384
     21 Br1        -2.9073    3.6158    0.5300 Br        1 <1>        -0.1364
     22 Br2         6.0063    1.8417   -2.9006 Br        1 <1>        -0.0078
     23 H1          6.3289   -4.1708    3.1652 H         1 <1>         0.1209
     24 H2          5.6715   -2.0259    4.2243 H         1 <1>         0.1219
     25 H3          6.0895   -4.4681    0.7129 H         1 <1>         0.1206
     26 H4          4.7782   -0.1837    2.8479 H         1 <1>         0.1455
     27 H5          5.1985   -2.6357   -0.6784 H         1 <1>         0.1345
     28 H6          2.0411    3.3760    1.2160 H         1 <1>         0.1458
     29 H7          0.4023    0.4969   -1.5498 H         1 <1>         0.1403
     30 H8         -0.2034    4.2891    1.5955 H         1 <1>         0.1465
     31 H9         -1.8417    1.4108   -1.1716 H         1 <1>         0.1459
     32 H10         2.5044   -0.0982    1.1908 H         1 <1>         0.1828
@<TRIPOS>BOND
     1    1   12 1
     2    1   19 3
     3    2    3 ar
     4    2    4 ar
     5    3    5 ar
     6    4    6 ar
     7    5   14 ar
     8    6   14 ar
     9    7    9 ar
    10    7   13 ar
    11    8   10 ar
    12    8   13 ar
    13    9   16 ar
    14   10   16 ar
    15   11   15 ar
    16   11   17 ar
    17   12   15 ar
    18   12   18 ar
    19   13   15 1
    20   14   17 1
    21   16   21 1
    22   17   20 ar
    23   18   20 ar
    24   18   22 1
    25    2   23 1
    26    3   24 1
    27    4   25 1
    28    5   26 1
    29    6   27 1
    30    7   28 1
    31    8   29 1
    32    9   30 1
    33   10   31 1
    34   11   32 1
@<TRIPOS>Similarity
1.6887
@<TRIPOS>ShapeSim
0.9375
@<TRIPOS>PharmSim
0.7511
# END
# Name:		AE-641/00006013
# Created and modified by SHAFTS on Tue Sep 23 17:55:44 2014

# 

@<TRIPOS>MOLECULE
AE-641/00006013
   37    40     0
SMALL
USER_CHARGE


@<TRIPOS>ATOM
      1 C1         -1.2524    2.8605    0.3371 C.ar      1 <1>        -0.0994
      2 C2          5.8697   -3.3743    2.6066 C.ar      1 <1>        -0.0979
      3 C3          3.9208    3.3302   -3.2121 C.ar      1 <1>        -0.0872
      4 C4         -0.1542    3.4123    0.9969 C.ar      1 <1>        -0.0965
      5 C5         -1.0715    1.8015   -0.5526 C.ar      1 <1>        -0.0968
      6 C6          5.4992   -2.1695    3.2036 C.ar      1 <1>        -0.0939
      7 C7          5.7340   -3.5406    1.2283 C.ar      1 <1>        -0.0920
      8 C8          5.1789    2.7609   -3.3647 C.ar      1 <1>        -0.0804
      9 C9          3.0691    2.8581   -2.2175 C.ar      1 <1>        -0.0756
     10 C10         1.1247    2.9053    0.7668 C.ar      1 <1>        -0.0880
     11 C11         0.2074    1.2943   -0.7825 C.ar      1 <1>        -0.0883
     12 C12         4.9928   -1.1308    2.4225 C.ar      1 <1>        -0.0779
     13 C13         5.2277   -2.5018    0.4471 C.ar      1 <1>        -0.0742
     14 C14         5.5824    1.7215   -2.5229 C.ar      1 <1>        -0.0601
     15 C15         3.0684    0.2846    0.4579 C.ar      1 <1>        -0.0450
     16 C16         3.4752    1.8125   -1.3710 C.ar      1 <1>        -0.0490
     17 C17         1.3055    1.8462   -0.1227 C.ar      1 <1>        -0.0748
     18 C18         4.8570   -1.2969    1.0442 C.ar      1 <1>        -0.0535
     19 C19         2.6380    1.3180   -0.3618 C.ar      1 <1>        -0.0515
     20 C20         4.7512    1.2300   -1.5201 C.ar      1 <1>        -0.0327
     21 C21         4.3332   -0.2214    0.2361 C.ar      1 <1>        -0.0269
     22 N1          5.1716    0.2269   -0.7261 N.ar      1 <1>        -0.3895
     23 H1         -2.2483    3.2545    0.5175 H         1 <1>         0.1164
     24 H2          6.2655   -4.1824    3.2148 H         1 <1>         0.1166
     25 H3          3.6043    4.1382   -3.8646 H         1 <1>         0.1224
     26 H4         -0.2950    4.2359    1.6908 H         1 <1>         0.1184
     27 H5         -1.9263    1.3705   -1.0655 H         1 <1>         0.1180
     28 H6          5.6063   -2.0393    4.2766 H         1 <1>         0.1174
     29 H7          6.0235   -4.4780    0.7625 H         1 <1>         0.1186
     30 H8          5.8496    3.1235   -4.1383 H         1 <1>         0.1312
     31 H9          2.0917    3.3254   -2.1252 H         1 <1>         0.1338
     32 H10         1.9705    3.3460    1.2892 H         1 <1>         0.1264
     33 H11         0.3327    0.4681   -1.4782 H         1 <1>         0.1261
     34 H12         4.7086   -0.1973    2.9028 H         1 <1>         0.1312
     35 H13         5.1281   -2.6456   -0.6262 H         1 <1>         0.1421
     36 H14         6.5729    1.2926   -2.6633 H         1 <1>         0.1540
     37 H15         2.4356   -0.1139    1.2461 H         1 <1>         0.1584
@<TRIPOS>BOND
     1    1    4 ar
     2    1    5 ar
     3    2    6 ar
     4    2    7 ar
     5    3    8 ar
     6    3    9 ar
     7    4   10 ar
     8    5   11 ar
     9    6   12 ar
    10    7   13 ar
    11    8   14 ar
    12    9   16 ar
    13   10   17 ar
    14   11   17 ar
    15   12   18 ar
    16   13   18 ar
    17   14   20 ar
    18   15   19 ar
    19   15   21 ar
    20   16   19 ar
    21   16   20 ar
    22   17   19 1
    23   18   21 1
    24   20   22 ar
    25   21   22 ar
    26    1   23 1
    27    2   24 1
    28    3   25 1
    29    4   26 1
    30    5   27 1
    31    6   28 1
    32    7   29 1
    33    8   30 1
    34    9   31 1
    35   10   32 1
    36   11   33 1
    37   12   34 1
    38   13   35 1
    39   14   36 1
    40   15   37 1
@<TRIPOS>Similarity
1.6871
@<TRIPOS>ShapeSim
0.9514
@<TRIPOS>PharmSim
0.7357
# END
# Name:		AO-476/43250026
# Created and modified by SHAFTS on Tue Sep 23 17:55:44 2014

# 

@<TRIPOS>MOLECULE
AO-476/43250026
   40    43     0
SMALL
USER_CHARGE


@<TRIPOS>ATOM
      1 C1          1.0941    2.8014    0.8930 C.ar      1 <1>        -0.0841
      2 C2          0.1770    1.1908   -0.6567 C.ar      1 <1>        -0.0859
      3 C3          4.3200   -1.5312    2.5481 C.ar      1 <1>        -0.0486
      4 C4          5.6601   -2.3328    0.7044 C.ar      1 <1>        -0.0443
      5 C5         -0.1855    3.3053    1.1266 C.ar      1 <1>        -0.0976
      6 C6         -1.1025    1.6946   -0.4232 C.ar      1 <1>        -0.0987
      7 C7          4.7973   -2.5704    3.3468 C.ar      1 <1>        -0.0270
      8 C8          6.1375   -3.3719    1.5032 C.ar      1 <1>        -0.0247
      9 C9          2.9986    0.1903    0.5967 C.ar      1 <1>        -0.0289
     10 C10         5.1799    2.5209   -3.1145 C.ar      1 <1>         0.0400
     11 C11         3.4878    1.6746   -1.2354 C.ar      1 <1>         0.0211
     12 C12         1.2753    1.7442    0.0014 C.ar      1 <1>        -0.0654
     13 C13         4.7514   -1.4125    1.2269 C.ar      1 <1>        -0.0317
     14 C14         2.6084    1.2195   -0.2420 C.ar      1 <1>        -0.0205
     15 C15        -1.2838    2.7518    0.4685 C.ar      1 <1>        -0.1105
     16 C16         5.7060   -3.4908    2.8244 C.ar      1 <1>         0.0488
     17 C17         4.2573   -0.3368    0.4002 C.ar      1 <1>        -0.0015
     18 C18         4.7506    1.0858   -1.3695 C.ar      1 <1>         0.0472
     19 C19         3.1675    2.7044   -2.1167 C.ar      1 <1>         0.0184
     20 C20        -2.6518    3.2907    0.7178 C.3       1 <1>        -0.0426
     21 N1          5.5940    1.5158   -2.3146 N.ar      1 <1>        -0.3322
     22 N2          3.9982    3.1520   -3.0729 N.ar      1 <1>        -0.3496
     23 N3          5.1206    0.0897   -0.5531 N.ar      1 <1>        -0.3452
     24 N4          1.9208    3.3656   -2.0670 N.pl3     1 <1>        -0.3293
     25 F1          6.1643   -4.4887    3.5915 F         1 <1>        -0.3385
     26 H1          1.9402    3.2440    1.4133 H         1 <1>         0.1335
     27 H2          0.3020    0.3659   -1.3543 H         1 <1>         0.1294
     28 H3          3.6119   -0.8218    2.9698 H         1 <1>         0.1533
     29 H4          6.0060   -2.2537   -0.3234 H         1 <1>         0.1657
     30 H5         -0.3172    4.1299    1.8221 H         1 <1>         0.1195
     31 H6         -1.9526    1.2570   -0.9399 H         1 <1>         0.1193
     32 H7          4.4615   -2.6633    4.3754 H         1 <1>         0.1551
     33 H8          6.8450   -4.0888    1.0972 H         1 <1>         0.1569
     34 H9          2.3473   -0.1904    1.3784 H         1 <1>         0.1662
     35 H10         5.8798    2.8510   -3.8726 H         1 <1>         0.3153
     36 H11        -2.8786    4.0990    0.0119 H         1 <1>         0.0618
     37 H12        -3.4143    2.5087    0.6081 H         1 <1>         0.0590
     38 H13        -2.7451    3.6840    1.7387 H         1 <1>         0.0591
     39 H14         1.2321    3.0565   -1.4125 H         1 <1>         0.2709
     40 H15         1.7152    4.0668   -2.7486 H         1 <1>         0.2664
@<TRIPOS>BOND
     1    1    5 ar
     2    1   12 ar
     3    2    6 ar
     4    2   12 ar
     5    3    7 ar
     6    3   13 ar
     7    4    8 ar
     8    4   13 ar
     9    5   15 ar
    10    6   15 ar
    11    7   16 ar
    12    8   16 ar
    13    9   14 ar
    14    9   17 ar
    15   10   21 ar
    16   10   22 ar
    17   11   14 ar
    18   11   18 ar
    19   11   19 ar
    20   12   14 1
    21   13   17 1
    22   15   20 1
    23   16   25 1
    24   17   23 ar
    25   18   21 ar
    26   18   23 ar
    27   19   22 ar
    28   19   24 1
    29    1   26 1
    30    2   27 1
    31    3   28 1
    32    4   29 1
    33    5   30 1
    34    6   31 1
    35    7   32 1
    36    8   33 1
    37    9   34 1
    38   10   35 1
    39   20   36 1
    40   20   37 1
    41   20   38 1
    42   24   39 1
    43   24   40 1
@<TRIPOS>Similarity
1.6621
@<TRIPOS>ShapeSim
0.9188
@<TRIPOS>PharmSim
0.7433
# END
# Name:		AE-848/41009149
# Created and modified by SHAFTS on Tue Sep 23 17:55:44 2014

# 

@<TRIPOS>MOLECULE
AE-848/41009149
   40    42     0
SMALL
USER_CHARGE


@<TRIPOS>ATOM
      1 C1          3.0821    2.9028   -2.2707 C.1       1 <1>         0.0459
      2 C2         -1.2043    2.9278    0.2385 C.ar      1 <1>        -0.0972
      3 C3          5.9089   -3.3516    2.5600 C.ar      1 <1>        -0.0967
      4 C4         -0.1079    3.4721    0.9072 C.ar      1 <1>        -0.0945
      5 C5         -1.0246    1.8628   -0.6441 C.ar      1 <1>        -0.0942
      6 C6          4.9944   -2.4493    3.1035 C.ar      1 <1>        -0.0925
      7 C7          6.3192   -3.2151    1.2339 C.ar      1 <1>        -0.0912
      8 C8          1.1684    2.9515    0.6930 C.ar      1 <1>        -0.0835
      9 C9          0.2516    1.3421   -0.8581 C.ar      1 <1>        -0.0824
     10 C10         4.4902   -1.4107    2.3208 C.ar      1 <1>        -0.0762
     11 C11         5.8150   -2.1765    0.4511 C.ar      1 <1>        -0.0734
     12 C12         3.1090    0.3100    0.4061 C.ar      1 <1>        -0.0212
     13 C13         3.5061    1.8355   -1.4105 C.ar      1 <1>         0.1044
     14 C14         1.3482    1.8865   -0.1896 C.ar      1 <1>        -0.0549
     15 C15         4.9005   -1.2741    0.9946 C.ar      1 <1>        -0.0496
     16 C16         2.6720    1.3466   -0.4112 C.ar      1 <1>         0.0126
     17 C17         4.3786   -0.1990    0.1851 C.ar      1 <1>        -0.0099
     18 C18         4.7580    1.2584   -1.5500 C.ar      1 <1>         0.0444
     19 C19         6.5405    2.8236   -2.2799 C.3       1 <1>        -0.0149
     20 C20         5.6034    1.1484   -3.8811 C.3       1 <1>        -0.0149
     21 N1          2.7393    3.7660   -2.9665 N.1       1 <1>        -0.3760
     22 N2          5.2174    0.2501   -0.7755 N.ar      1 <1>        -0.3540
     23 N3          5.6237    1.7427   -2.5635 N.pl3     1 <1>        -0.3817
     24 H1         -2.1981    3.3322    0.4067 H         1 <1>         0.1195
     25 H2          6.3026   -4.1592    3.1701 H         1 <1>         0.1186
     26 H3         -0.2479    4.3004    1.5957 H         1 <1>         0.1203
     27 H4         -1.8782    1.4375   -1.1639 H         1 <1>         0.1205
     28 H5          4.6761   -2.5544    4.1366 H         1 <1>         0.1193
     29 H6          7.0321   -3.9164    0.8104 H         1 <1>         0.1194
     30 H7          2.0131    3.3867    1.2220 H         1 <1>         0.1261
     31 H8          0.3762    0.5113   -1.5485 H         1 <1>         0.1303
     32 H9          3.7781   -0.7153    2.7591 H         1 <1>         0.1336
     33 H10         6.1444   -2.0822   -0.5809 H         1 <1>         0.1418
     34 H11         2.4767   -0.0892    1.1945 H         1 <1>         0.1723
     35 H12         7.1253    3.0639   -3.1717 H         1 <1>         0.0899
     36 H13         7.2252    2.5377   -1.4768 H         1 <1>         0.0962
     37 H14         5.9892    3.7152   -1.9697 H         1 <1>         0.0788
     38 H15         6.3312    1.6445   -4.5284 H         1 <1>         0.0899
     39 H16         4.6097    1.2499   -4.3262 H         1 <1>         0.0790
     40 H17         5.8531    0.0857   -3.8204 H         1 <1>         0.0962
@<TRIPOS>BOND
     1    1   13 1
     2    1   21 3
     3    2    4 ar
     4    2    5 ar
     5    3    6 ar
     6    3    7 ar
     7    4    8 ar
     8    5    9 ar
     9    6   10 ar
    10    7   11 ar
    11    8   14 ar
    12    9   14 ar
    13   10   15 ar
    14   11   15 ar
    15   12   16 ar
    16   12   17 ar
    17   13   16 ar
    18   13   18 ar
    19   14   16 1
    20   15   17 1
    21   17   22 ar
    22   18   22 ar
    23   18   23 1
    24   19   23 1
    25   20   23 1
    26    2   24 1
    27    3   25 1
    28    4   26 1
    29    5   27 1
    30    6   28 1
    31    7   29 1
    32    8   30 1
    33    9   31 1
    34   10   32 1
    35   11   33 1
    36   12   34 1
    37   19   35 1
    38   19   36 1
    39   19   37 1
    40   20   38 1
    41   20   39 1
    42   20   40 1
@<TRIPOS>Similarity
1.6514
@<TRIPOS>ShapeSim
0.9253
@<TRIPOS>PharmSim
0.7261
# END
# Name:		AO-476/43380440
# Created and modified by SHAFTS on Tue Sep 23 17:55:44 2014

# 

@<TRIPOS>MOLECULE
AO-476/43380440
   38    41     0
SMALL
USER_CHARGE


@<TRIPOS>ATOM
      1 C1          5.8876   -3.4145    2.6513 C.ar      1 <1>        -0.0955
      2 C2          5.4913   -2.2191    3.2506 C.ar      1 <1>        -0.0913
      3 C3          5.7645   -3.5773    1.2713 C.ar      1 <1>        -0.0892
      4 C4         -1.0751    2.1627   -0.2432 C.2       1 <1>        -0.0794
      5 C5          4.9715   -1.1864    2.4702 C.ar      1 <1>        -0.0734
      6 C6          5.2449   -2.5446    0.4909 C.ar      1 <1>        -0.0694
      7 C7          0.0249    1.3694   -0.6799 C.2       1 <1>        -0.0726
      8 C8          3.0237    0.1896    0.5173 C.ar      1 <1>        -0.0236
      9 C9         -0.6896    3.1310    0.6576 C.2       1 <1>        -0.0494
     10 C10         3.3678    1.7350   -1.2776 C.ar      1 <1>         0.0325
     11 C11         4.8484   -1.3491    1.0902 C.ar      1 <1>        -0.0430
     12 C12         2.5292    1.2226   -0.2767 C.ar      1 <1>        -0.0081
     13 C13         3.2796    2.7416   -2.2717 C.2       1 <1>         0.0297
     14 C14         4.3097   -0.2784    0.2814 C.ar      1 <1>         0.0017
     15 C15         1.2097    1.7618   -0.0963 C.2       1 <1>        -0.0314
     16 C16         4.4837    2.7325   -2.9363 C.2       1 <1>         0.0844
     17 C17         4.6368    1.1735   -1.4069 C.ar      1 <1>         0.0835
     18 C18         4.9742    3.5146   -4.0213 C.2       1 <1>         0.0735
     19 C19         6.3763    3.2475   -4.5295 C.3       1 <1>         0.0285
     20 N1          5.1603    0.1769   -0.6674 N.ar      1 <1>        -0.3303
     21 N2          2.2348    3.5564   -2.5310 N.pl3     1 <1>        -0.3373
     22 O1          4.3544    4.4260   -4.6113 O.2       1 <1>        -0.5145
     23 O2          5.3122    1.7873   -2.4213 O.3       1 <1>        -0.3473
     24 S1          0.9927    3.0813    0.9733 S.3       1 <1>        -0.1713
     25 H1          6.2939   -4.2178    3.2589 H         1 <1>         0.1198
     26 H2          5.5885   -2.0915    4.3247 H         1 <1>         0.1199
     27 H3          6.0744   -4.5074    0.8038 H         1 <1>         0.1214
     28 H4         -2.0973    2.0306   -0.5730 H         1 <1>         0.1215
     29 H5          4.6670   -0.2603    2.9524 H         1 <1>         0.1353
     30 H6          5.1554   -2.6857   -0.5836 H         1 <1>         0.1468
     31 H7         -0.0569    0.5543   -1.3882 H         1 <1>         0.1320
     32 H8          2.4110   -0.2400    1.3063 H         1 <1>         0.1740
     33 H9         -1.3152    3.8655    1.1450 H         1 <1>         0.1784
     34 H10         6.4132    2.4923   -5.3304 H         1 <1>         0.1008
     35 H11         7.0637    2.9195   -3.7345 H         1 <1>         0.1113
     36 H12         6.8716    4.1281   -4.9762 H         1 <1>         0.1113
     37 H13         1.3407    3.4794   -2.0240 H         1 <1>         0.2547
     38 H14         2.2461    4.2308   -3.3103 H         1 <1>         0.2660
@<TRIPOS>BOND
     1    1    2 ar
     2    1    3 ar
     3    2    5 ar
     4    3    6 ar
     5    4    7 1
     6    4    9 2
     7    5   11 ar
     8    6   11 ar
     9    7   15 2
    10    8   12 ar
    11    8   14 ar
    12    9   24 1
    13   10   12 ar
    14   10   13 1
    15   10   17 ar
    16   11   14 1
    17   12   15 1
    18   13   16 2
    19   13   21 1
    20   14   20 ar
    21   15   24 1
    22   16   18 1
    23   16   23 1
    24   17   20 ar
    25   17   23 1
    26   18   19 1
    27   18   22 2
    28    1   25 1
    29    2   26 1
    30    3   27 1
    31    4   28 1
    32    5   29 1
    33    6   30 1
    34    7   31 1
    35    8   32 1
    36    9   33 1
    37   19   34 1
    38   19   35 1
    39   19   36 1
    40   21   37 1
    41   21   38 1
@<TRIPOS>Similarity
1.6446
@<TRIPOS>ShapeSim
0.9088
@<TRIPOS>PharmSim
0.7359
# END
# Name:		AN-329/05740035
# Created and modified by SHAFTS on Tue Sep 23 17:55:45 2014

# 

@<TRIPOS>MOLECULE
AN-329/05740035
   44    47     0
SMALL
USER_CHARGE


@<TRIPOS>ATOM
      1 C1          5.8664   -3.4447    2.6778 C.ar      1 <1>        -0.0960
      2 C2          4.9518   -2.5447    3.2248 C.ar      1 <1>        -0.0918
      3 C3          6.2737   -3.3056    1.3510 C.ar      1 <1>        -0.0900
      4 C4          4.4446   -1.5056    2.4447 C.ar      1 <1>        -0.0748
      5 C5          5.7665   -2.2665    0.5711 C.ar      1 <1>        -0.0713
      6 C6          0.1454    0.9681   -0.1544 C.ar      1 <1>        -0.0685
      7 C7          1.1162    3.1378    0.2783 C.ar      1 <1>        -0.0736
      8 C8         -1.1289    1.4976    0.0491 C.ar      1 <1>        -0.0583
      9 C9         -0.1581    3.6673    0.4818 C.ar      1 <1>        -0.0652
     10 C10         3.0553    0.2029    0.5501 C.ar      1 <1>        -0.0349
     11 C11         3.4237    1.7431   -1.2676 C.ar      1 <1>         0.0029
     12 C12         1.2679    1.7881   -0.0398 C.ar      1 <1>        -0.0626
     13 C13         4.8518   -1.3663    1.1178 C.ar      1 <1>        -0.0475
     14 C14         2.5873    1.2399   -0.2505 C.ar      1 <1>        -0.0318
     15 C15         3.2472    2.7796   -2.2395 C.2       1 <1>         0.0078
     16 C16        -1.2807    2.8473    0.3672 C.ar      1 <1>        -0.0372
     17 C17         4.3260   -0.2891    0.3098 C.ar      1 <1>        -0.0119
     18 C18         4.3481    2.9357   -3.0526 C.2       1 <1>         0.0607
     19 C19         4.6773    1.1539   -1.3968 C.ar      1 <1>         0.0434
     20 C20         4.5603    3.8515   -4.1289 C.2       1 <1>         0.0837
     21 C21        -3.6277    2.4694    0.4318 C.3       1 <1>         0.0115
     22 N1          5.1735    0.1485   -0.6458 N.ar      1 <1>        -0.3559
     23 N2          2.1305    3.5391   -2.3677 N.pl3     1 <1>        -0.3460
     24 N3          5.7853    3.8132   -4.8135 N.am      1 <1>        -0.3073
     25 O1          3.6976    4.6985   -4.4725 O.2       1 <1>        -0.5228
     26 O2         -2.5241    3.3638    0.5651 O.3       1 <1>        -0.4627
     27 S1          5.6000    1.8408   -2.6557 S.3       1 <1>        -0.0709
     28 H1          6.2626   -4.2528    3.2860 H         1 <1>         0.1193
     29 H2          4.6357   -2.6518    4.2582 H         1 <1>         0.1196
     30 H3          6.9870   -4.0053    0.9251 H         1 <1>         0.1208
     31 H4          3.7323   -0.8118    2.8856 H         1 <1>         0.1345
     32 H5          6.0937   -2.1702   -0.4615 H         1 <1>         0.1447
     33 H6          0.2474   -0.0859   -0.4017 H         1 <1>         0.1452
     34 H7          1.9813    3.7899    0.3711 H         1 <1>         0.1384
     35 H8         -1.9996    0.8540   -0.0417 H         1 <1>         0.1464
     36 H9         -0.2703    4.7194    0.7290 H         1 <1>         0.1298
     37 H10         2.4368   -0.2089    1.3436 H         1 <1>         0.1661
     38 H11        -4.5597    3.0097    0.6150 H         1 <1>         0.1098
     39 H12        -3.5223    1.6501    1.1472 H         1 <1>         0.1100
     40 H13        -3.6372    2.0653   -0.5833 H         1 <1>         0.1338
     41 H14         1.2984    3.3814   -1.7862 H         1 <1>         0.2479
     42 H15         2.0349    4.2398   -3.1127 H         1 <1>         0.2557
     43 H16         6.4850    3.1377   -4.5259 H         1 <1>         0.2768
     44 H17         5.9958    4.4370   -5.5858 H         1 <1>         0.2725
@<TRIPOS>BOND
     1    1    2 ar
     2    1    3 ar
     3    2    4 ar
     4    3    5 ar
     5    4   13 ar
     6    5   13 ar
     7    6    8 ar
     8    6   12 ar
     9    7    9 ar
    10    7   12 ar
    11    8   16 ar
    12    9   16 ar
    13   10   14 ar
    14   10   17 ar
    15   11   14 ar
    16   11   15 1
    17   11   19 ar
    18   12   14 1
    19   13   17 1
    20   15   18 2
    21   15   23 1
    22   16   26 1
    23   17   22 ar
    24   18   20 1
    25   18   27 1
    26   19   22 ar
    27   19   27 1
    28   20   24 am
    29   20   25 2
    30   21   26 1
    31    1   28 1
    32    2   29 1
    33    3   30 1
    34    4   31 1
    35    5   32 1
    36    6   33 1
    37    7   34 1
    38    8   35 1
    39    9   36 1
    40   10   37 1
    41   21   38 1
    42   21   39 1
    43   21   40 1
    44   23   41 1
    45   23   42 1
    46   24   43 1
    47   24   44 1
@<TRIPOS>Similarity
1.6263
@<TRIPOS>ShapeSim
0.8924
@<TRIPOS>PharmSim
0.7339
# END
# Name:		AG-205/32388062
# Created and modified by SHAFTS on Tue Sep 23 17:55:45 2014

# 

@<TRIPOS>MOLECULE
AG-205/32388062
   41    44     0
SMALL
USER_CHARGE


@<TRIPOS>ATOM
      1 C1          5.9426   -3.3585    2.5473 C.ar      1 <1>        -0.0981
      2 C2          7.4046    2.6259   -4.5260 C.ar      1 <1>        -0.0981
      3 C3          5.5671   -2.1580    3.1501 C.ar      1 <1>        -0.0923
      4 C4          5.8021   -3.5207    1.1690 C.ar      1 <1>        -0.0942
      5 C5          6.0274    2.7009   -4.7333 C.ar      1 <1>        -0.0942
      6 C6          7.9029    2.1015   -3.3332 C.ar      1 <1>        -0.0923
      7 C7          5.0512   -1.1196    2.3747 C.ar      1 <1>        -0.0754
      8 C8          5.2863   -2.4824    0.3936 C.ar      1 <1>        -0.0792
      9 C9          5.1482    2.2513   -3.7479 C.ar      1 <1>        -0.0792
     10 C10         7.0237    1.6519   -2.3479 C.ar      1 <1>        -0.0754
     11 C11         0.3076    1.0869    0.3117 C.ar      1 <1>        -0.0751
     12 C12         1.0933    3.2271   -0.4880 C.ar      1 <1>        -0.0751
     13 C13        -0.9642    1.6261    0.5053 C.ar      1 <1>        -0.0685
     14 C14        -0.1786    3.7663   -0.2945 C.ar      1 <1>        -0.0685
     15 C15         3.1050    0.2921    0.4247 C.ar      1 <1>        -0.0488
     16 C16         3.4809    1.8291   -1.3864 C.ar      1 <1>        -0.0488
     17 C17         1.3364    1.8874   -0.1849 C.ar      1 <1>        -0.0682
     18 C18         4.9107   -1.2818    0.9964 C.ar      1 <1>        -0.0555
     19 C19         5.6464    1.7269   -2.5552 C.ar      1 <1>        -0.0555
     20 C20         2.6558    1.3293   -0.3850 C.ar      1 <1>        -0.0530
     21 C21        -1.2072    2.9658    0.2020 C.ar      1 <1>        -0.0411
     22 C22         4.3768   -0.2067    0.1941 C.ar      1 <1>        -0.0289
     23 C23         4.7361    1.2617   -1.5359 C.ar      1 <1>        -0.0289
     24 N1          5.2069    0.2530   -0.7687 N.ar      1 <1>        -0.3878
     25 I1         -3.1020    3.7682    0.4893 I         1 <1>        -0.1315
     26 H1          6.3458   -4.1663    3.1511 H         1 <1>         0.1165
     27 H2          8.0889    2.9744   -5.2939 H         1 <1>         0.1165
     28 H3          5.6778   -2.0310    4.2231 H         1 <1>         0.1187
     29 H4          6.0956   -4.4546    0.6987 H         1 <1>         0.1176
     30 H5          5.6392    3.1075   -5.6625 H         1 <1>         0.1176
     31 H6          8.9752    2.0414   -3.1717 H         1 <1>         0.1187
     32 H7          4.7633   -0.1898    2.8595 H         1 <1>         0.1408
     33 H8          5.1832   -2.6230   -0.6798 H         1 <1>         0.1296
     34 H9          4.0772    2.3163   -3.9249 H         1 <1>         0.1296
     35 H10         7.4267    1.2450   -1.4235 H         1 <1>         0.1408
     36 H11         0.4821    0.0410    0.5532 H         1 <1>         0.1387
     37 H12         1.8853    3.8638   -0.8749 H         1 <1>         0.1387
     38 H13        -1.7507    0.9845    0.8936 H         1 <1>         0.1405
     39 H14        -0.3464    4.8126   -0.5371 H         1 <1>         0.1405
     40 H15         2.4785   -0.1141    1.2144 H         1 <1>         0.1545
     41 H16         3.1508    2.6384   -2.0318 H         1 <1>         0.1545
@<TRIPOS>BOND
     1    1    3 ar
     2    1    4 ar
     3    2    5 ar
     4    2    6 ar
     5    3    7 ar
     6    4    8 ar
     7    5    9 ar
     8    6   10 ar
     9    7   18 ar
    10    8   18 ar
    11    9   19 ar
    12   10   19 ar
    13   11   13 ar
    14   11   17 ar
    15   12   14 ar
    16   12   17 ar
    17   13   21 ar
    18   14   21 ar
    19   15   20 ar
    20   15   22 ar
    21   16   20 ar
    22   16   23 ar
    23   17   20 1
    24   18   22 1
    25   19   23 1
    26   21   25 1
    27   22   24 ar
    28   23   24 ar
    29    1   26 1
    30    2   27 1
    31    3   28 1
    32    4   29 1
    33    5   30 1
    34    6   31 1
    35    7   32 1
    36    8   33 1
    37    9   34 1
    38   10   35 1
    39   11   36 1
    40   12   37 1
    41   13   38 1
    42   14   39 1
    43   15   40 1
    44   16   41 1
@<TRIPOS>Similarity
1.6198
@<TRIPOS>ShapeSim
0.8722
@<TRIPOS>PharmSim
0.7476
# END
# Name:		AG-690/36427043
# Created and modified by SHAFTS on Tue Sep 23 17:55:45 2014

# 

@<TRIPOS>MOLECULE
AG-690/36427043
   39    41     0
SMALL
USER_CHARGE


@<TRIPOS>ATOM
      1 C1          3.1628    2.7421   -2.1467 C.1       1 <1>         0.0359
      2 C2         -1.1407    2.8252    0.3067 C.ar      1 <1>        -0.0969
      3 C3          5.8745   -3.5138    2.7499 C.ar      1 <1>        -0.0962
      4 C4         -0.9927    1.4745   -0.0086 C.ar      1 <1>        -0.0938
      5 C5         -0.0155    3.6411    0.4252 C.ar      1 <1>        -0.0943
      6 C6          5.5115   -2.2996    3.3328 C.ar      1 <1>        -0.0920
      7 C7          5.7539   -3.6892    1.3713 C.ar      1 <1>        -0.0908
      8 C8          0.2803    0.9396   -0.2050 C.ar      1 <1>        -0.0823
      9 C9          1.2576    3.1061    0.2287 C.ar      1 <1>        -0.0836
     10 C10         5.0280   -1.2609    2.5371 C.ar      1 <1>        -0.0756
     11 C11         5.2704   -2.6506    0.5756 C.ar      1 <1>        -0.0730
     12 C12         3.1412    0.1641    0.5384 C.ar      1 <1>        -0.0241
     13 C13         3.5773    1.6727   -1.2832 C.ar      1 <1>         0.0958
     14 C14         1.4057    1.7554   -0.0864 C.ar      1 <1>        -0.0567
     15 C15         4.9074   -1.4365    1.1586 C.ar      1 <1>        -0.0499
     16 C16         2.7260    1.2003   -0.2906 C.ar      1 <1>         0.0063
     17 C17         4.4072   -0.3613    0.3355 C.ar      1 <1>        -0.0137
     18 C18         4.8238    1.0799   -1.4045 C.ar      1 <1>         0.0485
     19 C19         4.4602    1.1567   -4.8552 C.3       1 <1>        -0.0418
     20 C20         5.5241    0.5061   -3.9917 C.3       1 <1>         0.0000
     21 N1          2.8278    3.6066   -2.8445 N.1       1 <1>        -0.3790
     22 N2          5.2623    0.0716   -0.6181 N.ar      1 <1>        -0.3599
     23 S1          6.0065    1.6054   -2.6444 S.3       1 <1>        -0.1567
     24 H1         -2.1322    3.2418    0.4579 H         1 <1>         0.1200
     25 H2          6.2525   -4.3217    3.3694 H         1 <1>         0.1192
     26 H3         -1.8688    0.8395   -0.1025 H         1 <1>         0.1209
     27 H4         -0.1301    4.6931    0.6692 H         1 <1>         0.1204
     28 H5          5.6069   -2.1623    4.4059 H         1 <1>         0.1197
     29 H6          6.0376   -4.6339    0.9166 H         1 <1>         0.1198
     30 H7          0.3791   -0.1152   -0.4504 H         1 <1>         0.1310
     31 H8          2.1255    3.7544    0.3239 H         1 <1>         0.1262
     32 H9          4.7494   -0.3204    3.0065 H         1 <1>         0.1346
     33 H10         5.1825   -2.8018   -0.4976 H         1 <1>         0.1421
     34 H11         2.4954   -0.2232    1.3217 H         1 <1>         0.1720
     35 H12         3.5634    1.3982   -4.2746 H         1 <1>         0.0485
     36 H13         4.8290    2.0749   -5.3248 H         1 <1>         0.0485
     37 H14         4.1608    0.4726   -5.6563 H         1 <1>         0.0552
     38 H15         6.4094    0.2737   -4.5914 H         1 <1>         0.0977
     39 H16         5.1470   -0.4287   -3.5658 H         1 <1>         0.0977
@<TRIPOS>BOND
     1    1   13 1
     2    1   21 3
     3    2    4 ar
     4    2    5 ar
     5    3    6 ar
     6    3    7 ar
     7    4    8 ar
     8    5    9 ar
     9    6   10 ar
    10    7   11 ar
    11    8   14 ar
    12    9   14 ar
    13   10   15 ar
    14   11   15 ar
    15   12   16 ar
    16   12   17 ar
    17   13   16 ar
    18   13   18 ar
    19   14   16 1
    20   15   17 1
    21   17   22 ar
    22   18   22 ar
    23   18   23 1
    24   19   20 1
    25   20   23 1
    26    2   24 1
    27    3   25 1
    28    4   26 1
    29    5   27 1
    30    6   28 1
    31    7   29 1
    32    8   30 1
    33    9   31 1
    34   10   32 1
    35   11   33 1
    36   12   34 1
    37   19   35 1
    38   19   36 1
    39   19   37 1
    40   20   38 1
    41   20   39 1
@<TRIPOS>Similarity
1.6152
@<TRIPOS>ShapeSim
0.9327
@<TRIPOS>PharmSim
0.6826
# END
# Name:		AG-205/33140043
# Created and modified by SHAFTS on Tue Sep 23 17:55:45 2014

# 

@<TRIPOS>MOLECULE
AG-205/33140043
   49    53     0
SMALL
USER_CHARGE


@<TRIPOS>ATOM
      1 C1          5.8669   -3.4444    2.6780 C.ar      1 <1>        -0.0958
      2 C2          5.4961   -2.2401    3.2763 C.ar      1 <1>        -0.0917
      3 C3          5.7303   -3.6096    1.2997 C.ar      1 <1>        -0.0898
      4 C4          4.9886   -1.2012    2.4962 C.ar      1 <1>        -0.0745
      5 C5          5.2227   -2.5705    0.5197 C.ar      1 <1>        -0.0709
      6 C6          0.1453    0.9680   -0.1542 C.ar      1 <1>        -0.0686
      7 C7          1.1161    3.1378    0.2782 C.ar      1 <1>        -0.0735
      8 C8         -1.1288    1.4977    0.0492 C.ar      1 <1>        -0.0583
      9 C9         -0.1581    3.6673    0.4816 C.ar      1 <1>        -0.0652
     10 C10         3.0554    0.2029    0.5501 C.ar      1 <1>        -0.0352
     11 C11         3.4237    1.7431   -1.2676 C.ar      1 <1>        -0.0005
     12 C12         1.2678    1.7882   -0.0399 C.ar      1 <1>        -0.0629
     13 C13         4.8519   -1.3662    1.1179 C.ar      1 <1>        -0.0471
     14 C14         2.5872    1.2400   -0.2505 C.ar      1 <1>        -0.0329
     15 C15         3.2472    2.7796   -2.2395 C.2       1 <1>        -0.0007
     16 C16        -1.2807    2.8472    0.3672 C.ar      1 <1>        -0.0371
     17 C17         4.3260   -0.2891    0.3099 C.ar      1 <1>        -0.0116
     18 C18         4.3480    2.9356   -3.0527 C.2       1 <1>         0.0456
     19 C19         4.6772    1.1539   -1.3968 C.ar      1 <1>         0.0416
     20 C20         4.5602    3.8513   -4.1291 C.2       1 <1>         0.0476
     21 C21         2.9611    5.7533   -4.8885 C.3       1 <1>        -0.0294
     22 C22         3.5759    5.1814   -6.1323 C.3       1 <1>        -0.0296
     23 C23         3.3612    4.3076   -4.9313 C.3       1 <1>         0.0121
     24 C24        -2.6071    4.7514    0.8873 C.3       1 <1>         0.0116
     25 N1          5.1736    0.1484   -0.6458 N.ar      1 <1>        -0.3557
     26 N2          2.1304    3.5390   -2.3678 N.pl3     1 <1>        -0.3488
     27 O1          5.6601    4.3198   -4.4854 O.2       1 <1>        -0.5266
     28 O2         -2.5241    3.3639    0.5650 O.3       1 <1>        -0.4626
     29 S1          5.5999    1.8408   -2.6558 S.3       1 <1>        -0.0779
     30 H1          6.2636   -4.2526    3.2853 H         1 <1>         0.1197
     31 H2          5.6041   -2.1107    4.3493 H         1 <1>         0.1196
     32 H3          6.0201   -4.5465    0.8330 H         1 <1>         0.1210
     33 H4          4.7042   -0.2682    2.9776 H         1 <1>         0.1347
     34 H5          5.1225   -2.7136   -0.5536 H         1 <1>         0.1450
     35 H6          0.2474   -0.0859   -0.4016 H         1 <1>         0.1451
     36 H7          1.9814    3.7899    0.3710 H         1 <1>         0.1388
     37 H8         -1.9996    0.8539   -0.0416 H         1 <1>         0.1463
     38 H9         -0.2704    4.7195    0.7289 H         1 <1>         0.1296
     39 H10         2.4370   -0.2088    1.3436 H         1 <1>         0.1657
     40 H11         3.5641    6.4286   -4.2938 H         1 <1>         0.0677
     41 H12         1.9071    6.0016   -4.9167 H         1 <1>         0.0670
     42 H13         2.9341    5.0486   -6.9948 H         1 <1>         0.0676
     43 H14         4.5923    5.4699   -6.3712 H         1 <1>         0.0661
     44 H15         2.5573    3.5820   -4.9934 H         1 <1>         0.0994
     45 H16        -3.6547    5.0335    1.0190 H         1 <1>         0.1339
     46 H17        -2.1585    5.3404    0.0836 H         1 <1>         0.1099
     47 H18        -2.0633    4.9336    1.8172 H         1 <1>         0.1100
     48 H19         1.2983    3.3814   -1.7862 H         1 <1>         0.2478
     49 H20         2.0347    4.2397   -3.1129 H         1 <1>         0.2532
@<TRIPOS>BOND
     1    1    2 ar
     2    1    3 ar
     3    2    4 ar
     4    3    5 ar
     5    4   13 ar
     6    5   13 ar
     7    6    8 ar
     8    6   12 ar
     9    7    9 ar
    10    7   12 ar
    11    8   16 ar
    12    9   16 ar
    13   10   14 ar
    14   10   17 ar
    15   11   14 ar
    16   11   15 1
    17   11   19 ar
    18   12   14 1
    19   13   17 1
    20   15   18 2
    21   15   26 1
    22   16   28 1
    23   17   25 ar
    24   18   20 1
    25   18   29 1
    26   19   25 ar
    27   19   29 1
    28   20   23 1
    29   20   27 2
    30   21   22 1
    31   21   23 1
    32   22   23 1
    33   24   28 1
    34    1   30 1
    35    2   31 1
    36    3   32 1
    37    4   33 1
    38    5   34 1
    39    6   35 1
    40    7   36 1
    41    8   37 1
    42    9   38 1
    43   10   39 1
    44   21   40 1
    45   21   41 1
    46   22   42 1
    47   22   43 1
    48   23   44 1
    49   24   45 1
    50   24   46 1
    51   24   47 1
    52   26   48 1
    53   26   49 1
@<TRIPOS>Similarity
1.6052
@<TRIPOS>ShapeSim
0.8660
@<TRIPOS>PharmSim
0.7392
# END
# Name:		AK-777/36504058
# Created and modified by SHAFTS on Tue Sep 23 17:55:45 2014

# 

@<TRIPOS>MOLECULE
AK-777/36504058
   45    49     0
SMALL
USER_CHARGE


@<TRIPOS>ATOM
      1 C1          5.8667   -3.4445    2.6779 C.ar      1 <1>        -0.0954
      2 C2          5.4958   -2.2404    3.2762 C.ar      1 <1>        -0.0895
      3 C3          5.7301   -3.6097    1.2996 C.ar      1 <1>        -0.0915
      4 C4          4.9884   -1.2013    2.4962 C.ar      1 <1>        -0.0707
      5 C5          5.2225   -2.5705    0.5196 C.ar      1 <1>        -0.0744
      6 C6          1.0892    2.8581    0.8370 C.ar      1 <1>        -0.0605
      7 C7          0.1724    1.2477   -0.7131 C.ar      1 <1>        -0.0608
      8 C8         -0.1851    3.3878    1.0405 C.ar      1 <1>        -0.0303
      9 C9         -1.1020    1.7772   -0.5097 C.ar      1 <1>        -0.0303
     10 C10         3.0553    0.2030    0.5500 C.ar      1 <1>        -0.0337
     11 C11         3.4238    1.7431   -1.2677 C.ar      1 <1>         0.0008
     12 C12         1.2678    1.7882   -0.0399 C.ar      1 <1>        -0.0569
     13 C13         4.8516   -1.3664    1.1179 C.ar      1 <1>        -0.0467
     14 C14         2.5872    1.2401   -0.2506 C.ar      1 <1>        -0.0305
     15 C15         3.2472    2.7796   -2.2394 C.2       1 <1>        -0.0002
     16 C16        -1.2807    2.8472    0.3673 C.ar      1 <1>         0.0472
     17 C17         4.3259   -0.2892    0.3098 C.ar      1 <1>        -0.0106
     18 C18         4.3482    2.9357   -3.0526 C.2       1 <1>         0.0468
     19 C19         4.6771    1.1538   -1.3968 C.ar      1 <1>         0.0430
     20 C20         4.5604    3.8514   -4.1290 C.2       1 <1>         0.0487
     21 C21         6.0602    2.8269   -5.9868 C.3       1 <1>        -0.0293
     22 C22         5.9499    4.2947   -6.2792 C.3       1 <1>        -0.0294
     23 C23         5.8828    3.8046   -4.8624 C.3       1 <1>         0.0125
     24 N1          5.1735    0.1485   -0.6458 N.ar      1 <1>        -0.3545
     25 N2          2.1306    3.5392   -2.3677 N.pl3     1 <1>        -0.3490
     26 O1          3.7482    4.7086   -4.5313 O.2       1 <1>        -0.5255
     27 F1         -2.5044    3.3558    0.5628 F         1 <1>        -0.3383
     28 S1          5.6000    1.8408   -2.6557 S.3       1 <1>        -0.0761
     29 H1          6.2633   -4.2529    3.2852 H         1 <1>         0.1202
     30 H2          5.6037   -2.1110    4.3492 H         1 <1>         0.1214
     31 H3          6.0199   -4.5466    0.8328 H         1 <1>         0.1200
     32 H4          4.7040   -0.2685    2.9776 H         1 <1>         0.1454
     33 H5          5.1224   -2.7137   -0.5537 H         1 <1>         0.1346
     34 H6          1.9332    3.2906    1.3692 H         1 <1>         0.1481
     35 H7          0.2953    0.4135   -1.3998 H         1 <1>         0.1475
     36 H8         -0.3246    4.2209    1.7230 H         1 <1>         0.1556
     37 H9         -1.9555    1.3569   -1.0333 H         1 <1>         0.1561
     38 H10         2.4368   -0.2089    1.3434 H         1 <1>         0.1672
     39 H11         5.2187    2.1970   -6.2481 H         1 <1>         0.0678
     40 H12         7.0279    2.3587   -6.1204 H         1 <1>         0.0672
     41 H13         6.8434    4.8096   -6.6108 H         1 <1>         0.0678
     42 H14         5.0336    4.6511   -6.7337 H         1 <1>         0.0664
     43 H15         6.7509    3.9925   -4.2398 H         1 <1>         0.0995
     44 H16         1.2985    3.3814   -1.7863 H         1 <1>         0.2464
     45 H17         2.0349    4.2398   -3.1129 H         1 <1>         0.2535
@<TRIPOS>BOND
     1    1    2 ar
     2    1    3 ar
     3    2    4 ar
     4    3    5 ar
     5    4   13 ar
     6    5   13 ar
     7    6    8 ar
     8    6   12 ar
     9    7    9 ar
    10    7   12 ar
    11    8   16 ar
    12    9   16 ar
    13   10   14 ar
    14   10   17 ar
    15   11   14 ar
    16   11   15 1
    17   11   19 ar
    18   12   14 1
    19   13   17 1
    20   15   18 2
    21   15   25 1
    22   16   27 1
    23   17   24 ar
    24   18   20 1
    25   18   28 1
    26   19   24 ar
    27   19   28 1
    28   20   23 1
    29   20   26 2
    30   21   22 1
    31   21   23 1
    32   22   23 1
    33    1   29 1
    34    2   30 1
    35    3   31 1
    36    4   32 1
    37    5   33 1
    38    6   34 1
    39    7   35 1
    40    8   36 1
    41    9   37 1
    42   10   38 1
    43   21   39 1
    44   21   40 1
    45   22   41 1
    46   22   42 1
    47   23   43 1
    48   25   44 1
    49   25   45 1
@<TRIPOS>Similarity
1.6030
@<TRIPOS>ShapeSim
0.8658
@<TRIPOS>PharmSim
0.7372
# END
# Name:		AM-807/41930361
# Created and modified by SHAFTS on Tue Sep 23 17:55:45 2014

# 

@<TRIPOS>MOLECULE
AM-807/41930361
   40    44     0
SMALL
USER_CHARGE


@<TRIPOS>ATOM
      1 C1          5.8513   -3.4421    2.6869 C.ar      1 <1>        -0.0990
      2 C2          5.4823   -2.2362    3.2826 C.ar      1 <1>        -0.0922
      3 C3          5.7170   -3.6090    1.3086 C.ar      1 <1>        -0.0943
      4 C4          4.9789   -1.1970    2.5000 C.ar      1 <1>        -0.0727
      5 C5          5.2137   -2.5699    0.5259 C.ar      1 <1>        -0.0765
      6 C6          1.0878    2.8592    0.8372 C.ar      1 <1>        -0.0704
      7 C7          0.1719    1.2481   -0.7129 C.ar      1 <1>        -0.0703
      8 C8         -0.1872    3.3862    1.0427 C.ar      1 <1>        -0.0563
      9 C9         -1.1031    1.7753   -0.5073 C.ar      1 <1>        -0.0572
     10 C10         3.0529    0.2083    0.5484 C.ar      1 <1>        -0.0375
     11 C11         3.4248    1.7460   -1.2711 C.ar      1 <1>         0.0085
     12 C12         1.2674    1.7901   -0.0406 C.ar      1 <1>        -0.0614
     13 C13         4.8446   -1.3639    1.1217 C.ar      1 <1>        -0.0494
     14 C14         2.5867    1.2451   -0.2539 C.ar      1 <1>        -0.0318
     15 C15         3.2753    2.7707   -2.2477 C.2       1 <1>         0.0195
     16 C16        -1.2826    2.8443    0.3705 C.ar      1 <1>        -0.0152
     17 C17         4.3230   -0.2865    0.3109 C.ar      1 <1>        -0.0143
     18 C18         4.3789    2.9162   -3.0537 C.2       1 <1>         0.0528
     19 C19         4.6810    1.1522   -1.3979 C.ar      1 <1>         0.0459
     20 C20         3.2217    4.7436   -4.2672 C.2       1 <1>        -0.0240
     21 C21         4.4539    3.8941   -4.1157 C.2       1 <1>         0.0435
     22 C22         2.1588    4.5586   -3.4435 C.2       1 <1>        -0.0342
     23 N1          5.1732    0.1470   -0.6440 N.ar      1 <1>        -0.3565
     24 N2          2.2006    3.5759   -2.4470 N.pl3     1 <1>        -0.3282
     25 O1          1.0528    5.1609   -3.4121 O.3       1 <1>        -0.5164
     26 O2          5.4111    4.0653   -4.8642 O.2       1 <1>        -0.5639
     27 S1          5.6169    1.8330   -2.6607 S.3       1 <1>        -0.0706
     28 Cl1        -2.8552    3.4963    0.6236 Cl        1 <1>        -0.1831
     29 H1          6.2449   -4.2504    3.2962 H         1 <1>         0.1139
     30 H2          5.5883   -2.1054    4.3556 H         1 <1>         0.1177
     31 H3          6.0057   -4.5473    0.8439 H         1 <1>         0.1160
     32 H4          4.6957   -0.2627    2.9794 H         1 <1>         0.1440
     33 H5          5.1154   -2.7144   -0.5472 H         1 <1>         0.1328
     34 H6          1.9319    3.2926    1.3685 H         1 <1>         0.1403
     35 H7          0.2958    0.4152   -1.4011 H         1 <1>         0.1420
     36 H8         -0.3126    4.2208    1.7283 H         1 <1>         0.1501
     37 H9         -1.9475    1.3438   -1.0388 H         1 <1>         0.1461
     38 H10         2.4335   -0.2015    1.3424 H         1 <1>         0.1615
     39 H11         3.2286    5.4932   -5.0521 H         1 <1>         0.1319
     40 H12         1.3563    3.5205   -1.8876 H         1 <1>         0.3086
@<TRIPOS>BOND
     1    1    2 ar
     2    1    3 ar
     3    2    4 ar
     4    3    5 ar
     5    4   13 ar
     6    5   13 ar
     7    6    8 ar
     8    6   12 ar
     9    7    9 ar
    10    7   12 ar
    11    8   16 ar
    12    9   16 ar
    13   10   14 ar
    14   10   17 ar
    15   11   14 ar
    16   11   15 1
    17   11   19 ar
    18   12   14 1
    19   13   17 1
    20   15   18 2
    21   15   24 1
    22   16   28 1
    23   17   23 ar
    24   18   21 1
    25   18   27 1
    26   19   23 ar
    27   19   27 1
    28   20   21 1
    29   20   22 2
    30   21   26 2
    31   22   24 1
    32   22   25 1
    33    1   29 1
    34    2   30 1
    35    3   31 1
    36    4   32 1
    37    5   33 1
    38    6   34 1
    39    7   35 1
    40    8   36 1
    41    9   37 1
    42   10   38 1
    43   20   39 1
    44   24   40 1
@<TRIPOS>Similarity
1.5975
@<TRIPOS>ShapeSim
0.8614
@<TRIPOS>PharmSim
0.7361
# END
# Name:		AI-211/36556008
# Created and modified by SHAFTS on Tue Sep 23 17:55:45 2014

# 

@<TRIPOS>MOLECULE
AI-211/36556008
   36    38     0
SMALL
USER_CHARGE


@<TRIPOS>ATOM
      1 C1          3.0946    2.9001   -2.2764 C.1       1 <1>         0.0471
      2 C2          0.2294    1.0603   -0.2997 C.ar      1 <1>        -0.0641
      3 C3          1.1898    3.2342    0.1343 C.ar      1 <1>        -0.0656
      4 C4          5.0362   -1.1075    2.3734 C.ar      1 <1>        -0.0576
      5 C5          5.2707   -2.4796    0.3988 C.ar      1 <1>        -0.0550
      6 C6         -1.0467    1.5814   -0.0864 C.ar      1 <1>        -0.0551
      7 C7         -0.0863    3.7555    0.3476 C.ar      1 <1>        -0.0556
      8 C8          5.5402   -2.1467    3.1555 C.ar      1 <1>        -0.0533
      9 C9          5.7748   -3.5189    1.1808 C.ar      1 <1>        -0.0521
     10 C10         3.1097    0.3103    0.4077 C.ar      1 <1>        -0.0191
     11 C11         3.5044    1.8343   -1.4105 C.ar      1 <1>         0.1215
     12 C12         1.3478    1.8866   -0.1893 C.ar      1 <1>        -0.0435
     13 C13         4.9014   -1.2739    0.9950 C.ar      1 <1>        -0.0375
     14 C14         2.6716    1.3460   -0.4100 C.ar      1 <1>         0.0197
     15 C15        -1.2046    2.9291    0.2371 C.ar      1 <1>        -0.0139
     16 C16         5.9095   -3.3523    2.5592 C.ar      1 <1>        -0.0132
     17 C17         4.3791   -0.1986    0.1858 C.ar      1 <1>        -0.0017
     18 C18         4.7564    1.2574   -1.5510 C.ar      1 <1>         0.0946
     19 C19         6.4981    2.7578   -2.1602 C.3       1 <1>         0.0347
     20 N1          2.7626    3.7632   -2.9776 N.1       1 <1>        -0.3782
     21 N2          5.2168    0.2500   -0.7760 N.ar      1 <1>        -0.3347
     22 O1          5.6158    1.7029   -2.5224 O.3       1 <1>        -0.4079
     23 Cl1        -2.7794    3.5711    0.5017 Cl        1 <1>        -0.1809
     24 Cl2         6.5300   -4.6347    3.5249 Cl        1 <1>        -0.1816
     25 H1          0.3363    0.0077   -0.5511 H         1 <1>         0.1471
     26 H2          2.0519    3.8911    0.2249 H         1 <1>         0.1418
     27 H3          4.7525   -0.1737    2.8529 H         1 <1>         0.1506
     28 H4          5.1708   -2.6250   -0.6743 H         1 <1>         0.1581
     29 H5         -1.9096    0.9257   -0.1739 H         1 <1>         0.1478
     30 H6         -0.1944    4.8073    0.6002 H         1 <1>         0.1473
     31 H7          5.6383   -2.0042    4.2288 H         1 <1>         0.1467
     32 H8          6.0575   -4.4534    0.7029 H         1 <1>         0.1468
     33 H9          2.4779   -0.0890    1.1966 H         1 <1>         0.1707
     34 H10         7.1257    3.0189   -3.0158 H         1 <1>         0.1256
     35 H11         7.1217    2.4403   -1.3207 H         1 <1>         0.1256
     36 H12         5.9083    3.6287   -1.8647 H         1 <1>         0.1450
@<TRIPOS>BOND
     1    1   11 1
     2    1   20 3
     3    2    6 ar
     4    2   12 ar
     5    3    7 ar
     6    3   12 ar
     7    4    8 ar
     8    4   13 ar
     9    5    9 ar
    10    5   13 ar
    11    6   15 ar
    12    7   15 ar
    13    8   16 ar
    14    9   16 ar
    15   10   14 ar
    16   10   17 ar
    17   11   14 ar
    18   11   18 ar
    19   12   14 1
    20   13   17 1
    21   15   23 1
    22   16   24 1
    23   17   21 ar
    24   18   21 ar
    25   18   22 1
    26   19   22 1
    27    2   25 1
    28    3   26 1
    29    4   27 1
    30    5   28 1
    31    6   29 1
    32    7   30 1
    33    8   31 1
    34    9   32 1
    35   10   33 1
    36   19   34 1
    37   19   35 1
    38   19   36 1
@<TRIPOS>Similarity
1.5830
@<TRIPOS>ShapeSim
0.9392
@<TRIPOS>PharmSim
0.6438
# END
# Name:		AS-980/15246972
# Created and modified by SHAFTS on Tue Sep 23 17:55:45 2014

# 

@<TRIPOS>MOLECULE
AS-980/15246972
   40    43     0
SMALL
USER_CHARGE


@<TRIPOS>ATOM
      1 C1         -1.7642    2.9296    0.5688 C.ar      1 <1>        -0.0954
      2 C2          5.9438   -3.0832    2.2606 C.ar      1 <1>        -0.0915
      3 C3         -1.5904    1.8431   -0.2884 C.ar      1 <1>        -0.0902
      4 C4         -0.6725    3.4533    1.2614 C.ar      1 <1>        -0.0898
      5 C5          6.1329   -2.7961    0.9088 C.ar      1 <1>        -0.0826
      6 C6          5.0097   -2.3608    3.0031 C.ar      1 <1>        -0.0818
      7 C7         -0.3247    1.2801   -0.4529 C.ar      1 <1>        -0.0709
      8 C8          0.5931    2.8902    1.0970 C.ar      1 <1>        -0.0705
      9 C9          5.3879   -1.7866    0.2994 C.ar      1 <1>        -0.0566
     10 C10         4.2647   -1.3511    2.3936 C.ar      1 <1>        -0.0556
     11 C11         4.4073    2.4846   -2.6229 C.ar      1 <1>        -0.0643
     12 C12         3.0522    1.5793   -0.8796 C.ar      1 <1>         0.0074
     13 C13         0.7669    1.8036    0.2397 C.ar      1 <1>        -0.0350
     14 C14         3.1999    2.4999   -1.9245 C.ar      1 <1>        -0.0580
     15 C15         4.4538   -1.0641    1.0418 C.ar      1 <1>        -0.0121
     16 C16         2.0746    1.2221    0.0701 C.2       1 <1>         0.0256
     17 C17         5.3877    1.5705   -2.2518 C.ar      1 <1>        -0.0483
     18 C18         4.1095    0.7230   -0.6142 C.ar      1 <1>         0.0349
     19 C19         2.1450    3.4799   -2.3195 C.3       1 <1>        -0.0241
     20 C20         6.6767    1.5657   -3.0102 C.3       1 <1>        -0.0103
     21 N1          2.4696    0.2272    0.8715 N.2       1 <1>        -0.3177
     22 N2          5.2923    0.6623   -1.2506 N.ar      1 <1>        -0.3742
     23 N3          3.7094   -0.0551    0.4318 N.pl3     1 <1>        -0.2876
     24 H1         -2.7493    3.3687    0.6962 H         1 <1>         0.1194
     25 H2          6.5223   -3.8702    2.7353 H         1 <1>         0.1191
     26 H3         -2.4399    1.4360   -0.8288 H         1 <1>         0.1214
     27 H4         -0.8080    4.3000    1.9278 H         1 <1>         0.1216
     28 H5          6.8593   -3.3593    0.3303 H         1 <1>         0.1277
     29 H6          4.8620   -2.5858    4.0554 H         1 <1>         0.1290
     30 H7         -0.2054    0.4333   -1.1248 H         1 <1>         0.1376
     31 H8          1.4339    3.3101    1.6441 H         1 <1>         0.1376
     32 H9          5.5445   -1.5735   -0.7552 H         1 <1>         0.1474
     33 H10         3.5393   -0.7962    2.9838 H         1 <1>         0.1498
     34 H11         4.5787    3.1769   -3.4424 H         1 <1>         0.1395
     35 H12         1.4862    3.0438   -3.0796 H         1 <1>         0.0762
     36 H13         1.5351    3.7755   -1.4568 H         1 <1>         0.0719
     37 H14         2.5883    4.3976   -2.7262 H         1 <1>         0.0743
     38 H15         7.3925    2.2506   -2.5429 H         1 <1>         0.0932
     39 H16         7.1159    0.5618   -3.0352 H         1 <1>         0.0917
     40 H17         6.5228    1.8747   -4.0509 H         1 <1>         0.0911
@<TRIPOS>BOND
     1    1    3 ar
     2    1    4 ar
     3    2    5 ar
     4    2    6 ar
     5    3    7 ar
     6    4    8 ar
     7    5    9 ar
     8    6   10 ar
     9    7   13 ar
    10    8   13 ar
    11    9   15 ar
    12   10   15 ar
    13   11   14 ar
    14   11   17 ar
    15   12   14 ar
    16   12   16 1
    17   12   18 ar
    18   13   16 1
    19   14   19 1
    20   15   23 1
    21   16   21 2
    22   17   20 1
    23   17   22 ar
    24   18   22 ar
    25   18   23 1
    26   21   23 1
    27    1   24 1
    28    2   25 1
    29    3   26 1
    30    4   27 1
    31    5   28 1
    32    6   29 1
    33    7   30 1
    34    8   31 1
    35    9   32 1
    36   10   33 1
    37   11   34 1
    38   19   35 1
    39   19   36 1
    40   19   37 1
    41   20   38 1
    42   20   39 1
    43   20   40 1
@<TRIPOS>Similarity
1.5824
@<TRIPOS>ShapeSim
0.9103
@<TRIPOS>PharmSim
0.6722
# END
# Name:		AI-211/36556006
# Created and modified by SHAFTS on Tue Sep 23 17:55:45 2014

# 

@<TRIPOS>MOLECULE
AI-211/36556006
   39    41     0
SMALL
USER_CHARGE


@<TRIPOS>ATOM
      1 C1          3.0945    2.9001   -2.2762 C.1       1 <1>         0.0466
      2 C2          0.2294    1.0603   -0.2995 C.ar      1 <1>        -0.0823
      3 C3          1.1899    3.2343    0.1342 C.ar      1 <1>        -0.0809
      4 C4          5.0358   -1.1076    2.3735 C.ar      1 <1>        -0.0600
      5 C5          5.2710   -2.4796    0.3987 C.ar      1 <1>        -0.0573
      6 C6         -1.0467    1.5816   -0.0866 C.ar      1 <1>        -0.0968
      7 C7         -0.0862    3.7557    0.3471 C.ar      1 <1>        -0.0963
      8 C8          5.5403   -2.1467    3.1554 C.ar      1 <1>        -0.0618
      9 C9          5.7755   -3.5187    1.1807 C.ar      1 <1>        -0.0606
     10 C10         3.1095    0.3102    0.4079 C.ar      1 <1>        -0.0200
     11 C11         3.5043    1.8342   -1.4103 C.ar      1 <1>         0.1205
     12 C12         1.3478    1.8867   -0.1891 C.ar      1 <1>        -0.0530
     13 C13         4.9010   -1.2742    0.9950 C.ar      1 <1>        -0.0379
     14 C14         2.6713    1.3460   -0.4098 C.ar      1 <1>         0.0169
     15 C15        -1.2046    2.9292    0.2368 C.ar      1 <1>        -0.1093
     16 C16         5.9102   -3.3522    2.5591 C.ar      1 <1>        -0.0349
     17 C17         4.3790   -0.1987    0.1858 C.ar      1 <1>        -0.0020
     18 C18         4.7562    1.2573   -1.5507 C.ar      1 <1>         0.0940
     19 C19        -2.5690    3.4865    0.4646 C.3       1 <1>        -0.0422
     20 C20         6.4980    2.7576   -2.1600 C.3       1 <1>         0.0344
     21 N1          2.7625    3.7633   -2.9772 N.1       1 <1>        -0.3790
     22 N2          5.2166    0.2498   -0.7759 N.ar      1 <1>        -0.3352
     23 O1          5.6156    1.7028   -2.5223 O.3       1 <1>        -0.4083
     24 Br1         6.5948   -4.7601    3.6178 Br        1 <1>        -0.1390
     25 H1          0.3361    0.0075   -0.5503 H         1 <1>         0.1284
     26 H2          2.0517    3.8914    0.2234 H         1 <1>         0.1334
     27 H3          4.7518   -0.1739    2.8529 H         1 <1>         0.1495
     28 H4          5.1727   -2.6245   -0.6744 H         1 <1>         0.1570
     29 H5         -1.9123    0.9303   -0.1737 H         1 <1>         0.1208
     30 H6         -0.2001    4.8070    0.5981 H         1 <1>         0.1214
     31 H7          5.6397   -2.0005    4.2280 H         1 <1>         0.1443
     32 H8          6.0590   -4.4515    0.7006 H         1 <1>         0.1443
     33 H9          2.4776   -0.0891    1.1968 H         1 <1>         0.1698
     34 H10        -2.8460    3.3980    1.5223 H         1 <1>         0.0617
     35 H11        -2.6198    4.5453    0.1792 H         1 <1>         0.0593
     36 H12        -3.3205    2.9591   -0.1371 H         1 <1>         0.0589
     37 H13         7.1256    3.0187   -3.0154 H         1 <1>         0.1252
     38 H14         7.1216    2.4401   -1.3204 H         1 <1>         0.1446
     39 H15         5.9082    3.6286   -1.8643 H         1 <1>         0.1252
@<TRIPOS>BOND
     1    1   11 1
     2    1   21 3
     3    2    6 ar
     4    2   12 ar
     5    3    7 ar
     6    3   12 ar
     7    4    8 ar
     8    4   13 ar
     9    5    9 ar
    10    5   13 ar
    11    6   15 ar
    12    7   15 ar
    13    8   16 ar
    14    9   16 ar
    15   10   14 ar
    16   10   17 ar
    17   11   14 ar
    18   11   18 ar
    19   12   14 1
    20   13   17 1
    21   15   19 1
    22   16   24 1
    23   17   22 ar
    24   18   22 ar
    25   18   23 1
    26   20   23 1
    27    2   25 1
    28    3   26 1
    29    4   27 1
    30    5   28 1
    31    6   29 1
    32    7   30 1
    33    8   31 1
    34    9   32 1
    35   10   33 1
    36   19   34 1
    37   19   35 1
    38   19   36 1
    39   20   37 1
    40   20   38 1
    41   20   39 1
@<TRIPOS>Similarity
1.5821
@<TRIPOS>ShapeSim
0.9383
@<TRIPOS>PharmSim
0.6438
# END
# Name:		AN-919/13952015
# Created and modified by SHAFTS on Tue Sep 23 17:55:45 2014

# 

@<TRIPOS>MOLECULE
AN-919/13952015
   39    41     0
SMALL
USER_CHARGE


@<TRIPOS>ATOM
      1 C1          3.1627    2.7422   -2.1467 C.1       1 <1>         0.0357
      2 C2          5.8741   -3.5138    2.7499 C.ar      1 <1>        -0.0963
      3 C3          4.9641   -2.5972    3.2766 C.ar      1 <1>        -0.0921
      4 C4          6.3009   -3.3916    1.4276 C.ar      1 <1>        -0.0908
      5 C5          4.4808   -1.5585    2.4809 C.ar      1 <1>        -0.0757
      6 C6          5.8176   -2.3529    0.6319 C.ar      1 <1>        -0.0730
      7 C7          0.2802    0.9396   -0.2053 C.ar      1 <1>        -0.0833
      8 C8          1.2578    3.1059    0.2288 C.ar      1 <1>        -0.0821
      9 C9         -0.9928    1.4745   -0.0085 C.ar      1 <1>        -0.0972
     10 C10        -0.0152    3.6409    0.4257 C.ar      1 <1>        -0.0967
     11 C11         3.1413    0.1640    0.5383 C.ar      1 <1>        -0.0242
     12 C12         3.5773    1.6727   -1.2833 C.ar      1 <1>         0.0956
     13 C13         1.4055    1.7552   -0.0866 C.ar      1 <1>        -0.0562
     14 C14         4.9075   -1.4363    1.1585 C.ar      1 <1>        -0.0500
     15 C15         2.7259    1.2002   -0.2907 C.ar      1 <1>         0.0063
     16 C16        -1.1406    2.8252    0.3070 C.ar      1 <1>        -0.1097
     17 C17         4.4073   -0.3612    0.3354 C.ar      1 <1>        -0.0139
     18 C18         4.8240    1.0802   -1.4045 C.ar      1 <1>         0.0484
     19 C19        -2.5016    3.3972    0.5178 C.3       1 <1>        -0.0424
     20 C20         5.0370    1.2765   -4.1302 C.3       1 <1>         0.0053
     21 N1          2.8277    3.6067   -2.8446 N.1       1 <1>        -0.3791
     22 N2          5.2623    0.0717   -0.6181 N.ar      1 <1>        -0.3602
     23 S1          6.0067    1.6056   -2.6443 S.3       1 <1>        -0.1546
     24 H1          6.2516   -4.3214    3.3702 H         1 <1>         0.1191
     25 H2          4.6329   -2.6912    4.3066 H         1 <1>         0.1197
     26 H3          7.0106   -4.1041    1.0173 H         1 <1>         0.1198
     27 H4          3.7718   -0.8518    2.9061 H         1 <1>         0.1345
     28 H5          6.1597   -2.2700   -0.3970 H         1 <1>         0.1422
     29 H6          0.3789   -0.1154   -0.4501 H         1 <1>         0.1274
     30 H7          2.1254    3.7547    0.3241 H         1 <1>         0.1322
     31 H8         -1.8639    0.8315   -0.1018 H         1 <1>         0.1206
     32 H9         -0.1210    4.6945    0.6705 H         1 <1>         0.1211
     33 H10         2.4954   -0.2231    1.3216 H         1 <1>         0.1718
     34 H11        -2.7908    3.3165    1.5728 H         1 <1>         0.0615
     35 H12        -2.5387    4.4552    0.2269 H         1 <1>         0.0591
     36 H13        -3.2520    2.8746   -0.0897 H         1 <1>         0.0589
     37 H14         5.6148    1.5446   -5.0180 H         1 <1>         0.0969
     38 H15         4.1176    1.8667   -4.1116 H         1 <1>         0.0969
     39 H16         4.7798    0.2155   -4.1780 H         1 <1>         0.1036
@<TRIPOS>BOND
     1    1   12 1
     2    1   21 3
     3    2    3 ar
     4    2    4 ar
     5    3    5 ar
     6    4    6 ar
     7    5   14 ar
     8    6   14 ar
     9    7    9 ar
    10    7   13 ar
    11    8   10 ar
    12    8   13 ar
    13    9   16 ar
    14   10   16 ar
    15   11   15 ar
    16   11   17 ar
    17   12   15 ar
    18   12   18 ar
    19   13   15 1
    20   14   17 1
    21   16   19 1
    22   17   22 ar
    23   18   22 ar
    24   18   23 1
    25   20   23 1
    26    2   24 1
    27    3   25 1
    28    4   26 1
    29    5   27 1
    30    6   28 1
    31    7   29 1
    32    8   30 1
    33    9   31 1
    34   10   32 1
    35   11   33 1
    36   19   34 1
    37   19   35 1
    38   19   36 1
    39   20   37 1
    40   20   38 1
    41   20   39 1
@<TRIPOS>Similarity
1.5780
@<TRIPOS>ShapeSim
0.9311
@<TRIPOS>PharmSim
0.6469
# END
# Name:		AG-401/43339472
# Created and modified by SHAFTS on Tue Sep 23 17:55:45 2014

# 

@<TRIPOS>MOLECULE
AG-401/43339472
   30    32     0
SMALL
USER_CHARGE


@<TRIPOS>ATOM
      1 C1          5.7900   -3.3473    2.6245 C.ar      1 <1>        -0.0942
      2 C2          6.2433   -3.2463    1.3092 C.ar      1 <1>        -0.0872
      3 C3          4.8875   -2.4089    3.1252 C.ar      1 <1>        -0.0870
      4 C4          5.7941   -2.2069    0.4947 C.ar      1 <1>        -0.0618
      5 C5          4.4384   -1.3696    2.3106 C.ar      1 <1>        -0.0613
      6 C6          1.2761    3.1215    0.2026 C.ar      1 <1>        -0.0457
      7 C7         -0.0060    3.6082    0.4573 C.ar      1 <1>        -0.0346
      8 C8          3.5611    1.8099   -1.4185 C.ar      1 <1>        -0.0293
      9 C9          0.3572    0.9309   -0.2378 C.ar      1 <1>        -0.0218
     10 C10         4.8106    1.2443   -1.5704 C.ar      1 <1>        -0.0123
     11 C11         4.8916   -1.2685    0.9953 C.ar      1 <1>        -0.0262
     12 C12         1.4577    1.7828   -0.1450 C.ar      1 <1>        -0.0257
     13 C13        -1.1065    2.7562    0.3645 C.ar      1 <1>         0.0275
     14 C14        -0.9250    1.4175    0.0170 C.ar      1 <1>         0.0307
     15 C15         2.7849    1.2801   -0.4080 C.ar      1 <1>        -0.0063
     16 C16         4.4258   -0.1907    0.1501 C.ar      1 <1>         0.0164
     17 N1          5.2770    0.2389   -0.8009 N.ar      1 <1>        -0.3670
     18 N2          3.1871    0.2757    0.3982 N.ar      1 <1>        -0.3590
     19 Cl1        -2.6688    3.4183    0.6955 Cl        1 <1>        -0.1546
     20 Cl2        -2.2488    0.3127   -0.1101 Cl        1 <1>        -0.1549
     21 H1          6.1385   -4.1577    3.2579 H         1 <1>         0.1200
     22 H2          6.9446   -3.9777    0.9186 H         1 <1>         0.1206
     23 H3          4.5331   -2.4879    4.1487 H         1 <1>         0.1210
     24 H4          6.1565   -2.1419   -0.5286 H         1 <1>         0.1481
     25 H5          3.7343   -0.6459    2.7146 H         1 <1>         0.1496
     26 H6          2.1239    3.7985    0.2767 H         1 <1>         0.1667
     27 H7         -0.1289    4.6545    0.7260 H         1 <1>         0.1618
     28 H8          3.2253    2.6163   -2.0584 H         1 <1>         0.1620
     29 H9          0.5006   -0.1130   -0.5102 H         1 <1>         0.1733
     30 H10         5.4920    1.5945   -2.3384 H         1 <1>         0.2314
@<TRIPOS>BOND
     1    1    2 ar
     2    1    3 ar
     3    2    4 ar
     4    3    5 ar
     5    4   11 ar
     6    5   11 ar
     7    6    7 ar
     8    6   12 ar
     9    7   13 ar
    10    8   10 ar
    11    8   15 ar
    12    9   12 ar
    13    9   14 ar
    14   10   17 ar
    15   11   16 1
    16   12   15 1
    17   13   14 ar
    18   13   19 1
    19   14   20 1
    20   15   18 ar
    21   16   17 ar
    22   16   18 ar
    23    1   21 1
    24    2   22 1
    25    3   23 1
    26    4   24 1
    27    5   25 1
    28    6   26 1
    29    7   27 1
    30    8   28 1
    31    9   29 1
    32   10   30 1
@<TRIPOS>Similarity
1.5737
@<TRIPOS>ShapeSim
0.8887
@<TRIPOS>PharmSim
0.6850
# END
# Name:		AM-879/15041697
# Created and modified by SHAFTS on Tue Sep 23 17:55:45 2014

# 

@<TRIPOS>MOLECULE
AM-879/15041697
   38    40     0
SMALL
USER_CHARGE


@<TRIPOS>ATOM
      1 C1          3.1899    2.8413   -2.2706 C.1       1 <1>         0.0251
      2 C2          5.9128   -3.4144    2.6231 C.ar      1 <1>        -0.0971
      3 C3          5.0020   -2.5006    3.1529 C.ar      1 <1>        -0.0924
      4 C4          6.3368   -3.2893    1.3000 C.ar      1 <1>        -0.0911
      5 C5         -0.0007    3.7380    0.3153 C.ar      1 <1>        -0.0826
      6 C6          4.5149   -1.4616    2.3597 C.ar      1 <1>        -0.0748
      7 C7          5.8499   -2.2503    0.5069 C.ar      1 <1>        -0.0719
      8 C8          1.2729    3.2051    0.1162 C.ar      1 <1>        -0.0769
      9 C9         -1.1249    2.9203    0.1984 C.ar      1 <1>        -0.0686
     10 C10         0.2983    1.0372   -0.3167 C.ar      1 <1>        -0.0485
     11 C11         3.1669    0.2636    0.4206 C.ar      1 <1>        -0.0271
     12 C12         3.5956    1.7750   -1.4005 C.ar      1 <1>         0.0885
     13 C13         4.9389   -1.3364    1.0367 C.ar      1 <1>        -0.0486
     14 C14         1.4225    1.8549   -0.1997 C.ar      1 <1>        -0.0424
     15 C15         2.7475    1.2995   -0.4066 C.ar      1 <1>         0.0081
     16 C16        -0.9753    1.5700   -0.1177 C.ar      1 <1>        -0.0355
     17 C17         4.4338   -0.2585    0.2145 C.ar      1 <1>        -0.0137
     18 C18         4.8432    1.1853   -1.5251 C.ar      1 <1>         0.0398
     19 C19        -1.8475   -0.5984   -0.5570 C.3       1 <1>         0.0106
     20 N1          2.8619    3.7038   -2.9744 N.1       1 <1>        -0.3928
     21 N2          5.2856    0.1771   -0.7405 N.ar      1 <1>        -0.3626
     22 N3          5.7230    1.6557   -2.5329 N.pl3     1 <1>        -0.3208
     23 O1         -2.0723    0.7725   -0.2316 O.3       1 <1>        -0.4631
     24 H1          6.2932   -4.2223    3.2413 H         1 <1>         0.1175
     25 H2          4.6729   -2.5969    4.1834 H         1 <1>         0.1184
     26 H3          7.0472   -3.9996    0.8873 H         1 <1>         0.1185
     27 H4         -0.1172    4.7894    0.5609 H         1 <1>         0.1287
     28 H5          3.8053   -0.7571    2.7874 H         1 <1>         0.1356
     29 H6          6.1900   -2.1650   -0.5224 H         1 <1>         0.1441
     30 H7          2.1394    3.8554    0.2110 H         1 <1>         0.1291
     31 H8         -2.1147    3.3407    0.3545 H         1 <1>         0.1274
     32 H9          0.4053   -0.0171   -0.5637 H         1 <1>         0.1506
     33 H10         2.5235   -0.1253    1.2052 H         1 <1>         0.1588
     34 H11        -2.8052   -1.1212   -0.6172 H         1 <1>         0.1327
     35 H12        -1.2173   -1.0569    0.2092 H         1 <1>         0.1088
     36 H13        -1.3423   -0.6560   -1.5240 H         1 <1>         0.1084
     37 H14         5.4044    2.3652   -3.1554 H         1 <1>         0.2793
     38 H15         6.6011    1.2012   -2.6537 H         1 <1>         0.2809
@<TRIPOS>BOND
     1    1   12 1
     2    1   20 3
     3    2    3 ar
     4    2    4 ar
     5    3    6 ar
     6    4    7 ar
     7    5    8 ar
     8    5    9 ar
     9    6   13 ar
    10    7   13 ar
    11    8   14 ar
    12    9   16 ar
    13   10   14 ar
    14   10   16 ar
    15   11   15 ar
    16   11   17 ar
    17   12   15 ar
    18   12   18 ar
    19   13   17 1
    20   14   15 1
    21   16   23 1
    22   17   21 ar
    23   18   21 ar
    24   18   22 1
    25   19   23 1
    26    2   24 1
    27    3   25 1
    28    4   26 1
    29    5   27 1
    30    6   28 1
    31    7   29 1
    32    8   30 1
    33    9   31 1
    34   10   32 1
    35   11   33 1
    36   19   34 1
    37   19   35 1
    38   19   36 1
    39   22   37 1
    40   22   38 1
@<TRIPOS>Similarity
1.5737
@<TRIPOS>ShapeSim
0.9217
@<TRIPOS>PharmSim
0.6520
# END
# Name:		AG-690/13704183
# Created and modified by SHAFTS on Tue Sep 23 17:55:45 2014

# 

@<TRIPOS>MOLECULE
AG-690/13704183
   48    51     0
SMALL
USER_CHARGE


@<TRIPOS>ATOM
      1 C1          5.8891   -3.4335    2.6565 C.ar      1 <1>        -0.0955
      2 C2          5.5194   -2.2278    3.2526 C.ar      1 <1>        -0.0915
      3 C3          5.7544   -3.6003    1.2783 C.ar      1 <1>        -0.0895
      4 C4          5.0148   -1.1889    2.4704 C.ar      1 <1>        -0.0744
      5 C5          5.2499   -2.5616    0.4960 C.ar      1 <1>        -0.0706
      6 C6          1.1247    2.8743    0.7993 C.ar      1 <1>        -0.0692
      7 C7          0.2077    1.2635   -0.7504 C.ar      1 <1>        -0.0690
      8 C8         -0.1491    3.4066    0.9997 C.ar      1 <1>        -0.0569
      9 C9         -1.0659    1.7956   -0.5500 C.ar      1 <1>        -0.0566
     10 C10         3.0869    0.2156    0.5192 C.ar      1 <1>        -0.0327
     11 C11         3.4608    1.7525   -1.3002 C.ar      1 <1>         0.0097
     12 C12         1.3030    1.8028   -0.0758 C.ar      1 <1>        -0.0592
     13 C13         4.8799   -1.3558    1.0921 C.ar      1 <1>        -0.0465
     14 C14         2.6219    1.2523   -0.2836 C.ar      1 <1>        -0.0281
     15 C15         3.2874    2.7880   -2.2737 C.2       1 <1>         0.0213
     16 C16        -1.2443    2.8671    0.3250 C.ar      1 <1>        -0.0146
     17 C17         4.3571   -0.2789    0.2817 C.ar      1 <1>        -0.0096
     18 C18         4.3899    2.9410   -3.0853 C.2       1 <1>         0.0968
     19 C19         4.7135    1.1611   -1.4265 C.ar      1 <1>         0.0533
     20 C20         4.6053    3.8550   -4.1626 C.2       1 <1>         0.1480
     21 C21         7.6814    4.8283   -5.8244 C.3       1 <1>        -0.0346
     22 C22         5.7265    3.9280   -7.1357 C.3       1 <1>        -0.0310
     23 C23         6.1826    4.5688   -5.8338 C.3       1 <1>         0.0237
     24 N1          5.2069    0.1560   -0.6733 N.ar      1 <1>        -0.3518
     25 N2          2.1722    3.5491   -2.4048 N.pl3     1 <1>        -0.3427
     26 O1          3.7825    4.7098   -4.5643 O.2       1 <1>        -0.4728
     27 O2          5.8468    3.7068   -4.7412 O.3       1 <1>        -0.3939
     28 S1          5.6393    1.8447   -2.6849 S.3       1 <1>        -0.0487
     29 Cl1        -2.8154    3.5252    0.5716 Cl        1 <1>        -0.1806
     30 H1          6.2836   -4.2416    3.2656 H         1 <1>         0.1201
     31 H2          5.6256   -2.0972    4.3255 H         1 <1>         0.1199
     32 H3          6.0434   -4.5383    0.8133 H         1 <1>         0.1214
     33 H4          4.7311   -0.2551    2.9499 H         1 <1>         0.1345
     34 H5          5.1511   -2.7060   -0.5773 H         1 <1>         0.1457
     35 H6          1.9685    3.3058    1.3323 H         1 <1>         0.1434
     36 H7          0.3308    0.4287   -1.4365 H         1 <1>         0.1440
     37 H8         -0.2737    4.2429    1.6831 H         1 <1>         0.1464
     38 H9         -1.9103    1.3661   -1.0833 H         1 <1>         0.1472
     39 H10         2.4665   -0.1941    1.3123 H         1 <1>         0.1680
     40 H11         8.2456    3.9024   -5.9725 H         1 <1>         0.0530
     41 H12         7.9509    5.5333   -6.6180 H         1 <1>         0.0572
     42 H13         7.9970    5.2837   -4.8792 H         1 <1>         0.0499
     43 H14         6.2442    2.9808   -7.3152 H         1 <1>         0.0572
     44 H15         5.9215    4.5988   -7.9795 H         1 <1>         0.0643
     45 H16         4.6471    3.7409   -7.1259 H         1 <1>         0.0591
     46 H17         5.6475    5.5121   -5.6837 H         1 <1>         0.1277
     47 H18         1.3389    3.3936   -1.8245 H         1 <1>         0.2499
     48 H19         2.0789    4.2489   -3.1510 H         1 <1>         0.2580
@<TRIPOS>BOND
     1    1    2 ar
     2    1    3 ar
     3    2    4 ar
     4    3    5 ar
     5    4   13 ar
     6    5   13 ar
     7    6    8 ar
     8    6   12 ar
     9    7    9 ar
    10    7   12 ar
    11    8   16 ar
    12    9   16 ar
    13   10   14 ar
    14   10   17 ar
    15   11   14 ar
    16   11   15 1
    17   11   19 ar
    18   12   14 1
    19   13   17 1
    20   15   18 2
    21   15   25 1
    22   16   29 1
    23   17   24 ar
    24   18   20 1
    25   18   28 1
    26   19   24 ar
    27   19   28 1
    28   20   26 2
    29   20   27 1
    30   21   23 1
    31   22   23 1
    32   23   27 1
    33    1   30 1
    34    2   31 1
    35    3   32 1
    36    4   33 1
    37    5   34 1
    38    6   35 1
    39    7   36 1
    40    8   37 1
    41    9   38 1
    42   10   39 1
    43   21   40 1
    44   21   41 1
    45   21   42 1
    46   22   43 1
    47   22   44 1
    48   22   45 1
    49   23   46 1
    50   25   47 1
    51   25   48 1
@<TRIPOS>Similarity
1.5660
@<TRIPOS>ShapeSim
0.8568
@<TRIPOS>PharmSim
0.7092
# END
# Name:		AG-690/11481224
# Created and modified by SHAFTS on Tue Sep 23 17:55:45 2014

# 

@<TRIPOS>MOLECULE
AG-690/11481224
   42    44     0
SMALL
USER_CHARGE


@<TRIPOS>ATOM
      1 C1          3.0944    2.9002   -2.2760 C.1       1 <1>         0.0465
      2 C2          5.9103   -3.3522    2.5591 C.ar      1 <1>        -0.0957
      3 C3          5.5404   -2.1465    3.1554 C.ar      1 <1>        -0.0914
      4 C4          5.7756   -3.5188    1.1808 C.ar      1 <1>        -0.0902
      5 C5          5.0358   -1.1076    2.3733 C.ar      1 <1>        -0.0745
      6 C6          5.2709   -2.4799    0.3988 C.ar      1 <1>        -0.0718
      7 C7          0.2295    1.0603   -0.2994 C.ar      1 <1>        -0.0678
      8 C8          1.1899    3.2344    0.1342 C.ar      1 <1>        -0.0664
      9 C9         -1.0467    1.5816   -0.0867 C.ar      1 <1>        -0.0641
     10 C10        -0.0863    3.7557    0.3469 C.ar      1 <1>        -0.0635
     11 C11         3.1094    0.3101    0.4078 C.ar      1 <1>        -0.0200
     12 C12         3.5042    1.8343   -1.4103 C.ar      1 <1>         0.1215
     13 C13         1.3479    1.8867   -0.1889 C.ar      1 <1>        -0.0437
     14 C14         4.9010   -1.2742    0.9950 C.ar      1 <1>        -0.0473
     15 C15         2.6714    1.3459   -0.4097 C.ar      1 <1>         0.0198
     16 C16        -1.2046    2.9292    0.2365 C.ar      1 <1>        -0.0354
     17 C17         4.3790   -0.1988    0.1858 C.ar      1 <1>        -0.0045
     18 C18         4.7562    1.2574   -1.5508 C.ar      1 <1>         0.0945
     19 C19         7.4816    1.4118   -4.7082 C.3       1 <1>        -0.0564
     20 C20         7.7882    2.1564   -3.4211 C.3       1 <1>        -0.0315
     21 C21         7.0059    1.5961   -2.2433 C.3       1 <1>         0.0258
     22 N1          2.7625    3.7635   -2.9770 N.1       1 <1>        -0.3791
     23 N2          5.2166    0.2498   -0.7759 N.ar      1 <1>        -0.3352
     24 O1          5.6155    1.7028   -2.5222 O.3       1 <1>        -0.4104
     25 Br1        -2.9334    3.6364    0.5240 Br        1 <1>        -0.1381
     26 H1          6.3048   -4.1603    3.1680 H         1 <1>         0.1198
     27 H2          5.6468   -2.0161    4.2283 H         1 <1>         0.1203
     28 H3          6.0647   -4.4567    0.7157 H         1 <1>         0.1202
     29 H4          4.7520   -0.1738    2.8529 H         1 <1>         0.1359
     30 H5          5.1722   -2.6241   -0.6745 H         1 <1>         0.1435
     31 H6          0.3365    0.0077   -0.5507 H         1 <1>         0.1409
     32 H7          2.0516    3.8916    0.2232 H         1 <1>         0.1461
     33 H8         -1.9078    0.9242   -0.1773 H         1 <1>         0.1449
     34 H9         -0.1921    4.8077    0.5980 H         1 <1>         0.1455
     35 H10         2.4776   -0.0891    1.1967 H         1 <1>         0.1697
     36 H11         7.7058    0.3451   -4.6069 H         1 <1>         0.0371
     37 H12         6.4218    1.5134   -4.9622 H         1 <1>         0.0371
     38 H13         8.0701    1.8094   -5.5410 H         1 <1>         0.0405
     39 H14         7.5573    3.2214   -3.5431 H         1 <1>         0.0618
     40 H15         8.8626    2.1039   -3.2076 H         1 <1>         0.0618
     41 H16         7.2483    0.5414   -2.0790 H         1 <1>         0.1273
     42 H17         7.2217    2.1574   -1.3284 H         1 <1>         0.1273
@<TRIPOS>BOND
     1    1   12 1
     2    1   22 3
     3    2    3 ar
     4    2    4 ar
     5    3    5 ar
     6    4    6 ar
     7    5   14 ar
     8    6   14 ar
     9    7    9 ar
    10    7   13 ar
    11    8   10 ar
    12    8   13 ar
    13    9   16 ar
    14   10   16 ar
    15   11   15 ar
    16   11   17 ar
    17   12   15 ar
    18   12   18 ar
    19   13   15 1
    20   14   17 1
    21   16   25 1
    22   17   23 ar
    23   18   23 ar
    24   18   24 1
    25   19   20 1
    26   20   21 1
    27   21   24 1
    28    2   26 1
    29    3   27 1
    30    4   28 1
    31    5   29 1
    32    6   30 1
    33    7   31 1
    34    8   32 1
    35    9   33 1
    36   10   34 1
    37   11   35 1
    38   19   36 1
    39   19   37 1
    40   19   38 1
    41   20   39 1
    42   20   40 1
    43   21   41 1
    44   21   42 1
@<TRIPOS>Similarity
1.5641
@<TRIPOS>ShapeSim
0.9203
@<TRIPOS>PharmSim
0.6437
# END
# Name:		AI-211/36556007
# Created and modified by SHAFTS on Tue Sep 23 17:55:45 2014

# 

@<TRIPOS>MOLECULE
AI-211/36556007
   36    38     0
SMALL
USER_CHARGE


@<TRIPOS>ATOM
      1 C1          3.0956    2.9007   -2.2766 C.1       1 <1>         0.0471
      2 C2          5.9121   -3.3543    2.5602 C.ar      1 <1>        -0.0955
      3 C3          4.9976   -2.4525    3.1043 C.ar      1 <1>        -0.0912
      4 C4          6.3222   -3.2172    1.2341 C.ar      1 <1>        -0.0900
      5 C5          4.4932   -1.4135    2.3221 C.ar      1 <1>        -0.0743
      6 C6          5.8177   -2.1782    0.4519 C.ar      1 <1>        -0.0716
      7 C7          1.1871    3.2358    0.1339 C.ar      1 <1>        -0.0554
      8 C8         -0.0888    3.7577    0.3470 C.ar      1 <1>        -0.0382
      9 C9          0.2257    1.0622   -0.2999 C.ar      1 <1>        -0.0269
     10 C10         3.1104    0.3102    0.4067 C.ar      1 <1>        -0.0186
     11 C11         3.5054    1.8347   -1.4109 C.ar      1 <1>         0.1223
     12 C12         4.9033   -1.2763    0.9960 C.ar      1 <1>        -0.0470
     13 C13         1.3444    1.8881   -0.1896 C.ar      1 <1>        -0.0290
     14 C14         2.6723    1.3460   -0.4107 C.ar      1 <1>         0.0236
     15 C15        -1.2074    2.9319    0.2367 C.ar      1 <1>         0.0268
     16 C16        -1.0502    1.5840   -0.0867 C.ar      1 <1>         0.0295
     17 C17         4.3801   -0.1985    0.1851 C.ar      1 <1>        -0.0039
     18 C18         4.7575    1.2580   -1.5511 C.ar      1 <1>         0.0948
     19 C19         6.4990    2.7589   -2.1594 C.3       1 <1>         0.0347
     20 N1          2.7639    3.7639   -2.9776 N.1       1 <1>        -0.3783
     21 N2          5.2178    0.2505   -0.7762 N.ar      1 <1>        -0.3349
     22 O1          5.6171    1.7040   -2.5222 O.3       1 <1>        -0.4078
     23 Cl1        -2.7608    3.6370    0.5160 Cl        1 <1>        -0.1541
     24 Cl2        -2.3974    0.5105   -0.2337 Cl        1 <1>        -0.1537
     25 H1          6.3060   -4.1623    3.1699 H         1 <1>         0.1201
     26 H2          4.6795   -2.5581    4.1373 H         1 <1>         0.1205
     27 H3          7.0352   -3.9183    0.8103 H         1 <1>         0.1205
     28 H4          3.7813   -0.7183    2.7608 H         1 <1>         0.1361
     29 H5          6.1471   -2.0836   -0.5801 H         1 <1>         0.1437
     30 H6          2.0494    3.8928    0.2212 H         1 <1>         0.1506
     31 H7         -0.1925    4.8107    0.5975 H         1 <1>         0.1614
     32 H8          0.3501    0.0111   -0.5536 H         1 <1>         0.1714
     33 H9          2.4784   -0.0894    1.1954 H         1 <1>         0.1709
     34 H10         7.1269    3.0203   -3.0148 H         1 <1>         0.1256
     35 H11         7.1225    2.4413   -1.3198 H         1 <1>         0.1256
     36 H12         5.9091    3.6296   -1.8637 H         1 <1>         0.1450
@<TRIPOS>BOND
     1    1   11 1
     2    1   20 3
     3    2    3 ar
     4    2    4 ar
     5    3    5 ar
     6    4    6 ar
     7    5   12 ar
     8    6   12 ar
     9    7    8 ar
    10    7   13 ar
    11    8   15 ar
    12    9   13 ar
    13    9   16 ar
    14   10   14 ar
    15   10   17 ar
    16   11   14 ar
    17   11   18 ar
    18   12   17 1
    19   13   14 1
    20   15   16 ar
    21   15   23 1
    22   16   24 1
    23   17   21 ar
    24   18   21 ar
    25   18   22 1
    26   19   22 1
    27    2   25 1
    28    3   26 1
    29    4   27 1
    30    5   28 1
    31    6   29 1
    32    7   30 1
    33    8   31 1
    34    9   32 1
    35   10   33 1
    36   19   34 1
    37   19   35 1
    38   19   36 1
@<TRIPOS>Similarity
1.5625
@<TRIPOS>ShapeSim
0.9244
@<TRIPOS>PharmSim
0.6381
# END
# Name:		AG-690/40749446
# Created and modified by SHAFTS on Tue Sep 23 17:55:45 2014

# 

@<TRIPOS>MOLECULE
AG-690/40749446
   42    44     0
SMALL
USER_CHARGE


@<TRIPOS>ATOM
      1 C1          3.1631    2.7421   -2.1468 C.1       1 <1>         0.0366
      2 C2          5.8743   -3.5138    2.7499 C.ar      1 <1>        -0.0961
      3 C3          5.5112   -2.2997    3.3327 C.ar      1 <1>        -0.0919
      4 C4          5.7540   -3.6892    1.3714 C.ar      1 <1>        -0.0907
      5 C5          5.0277   -1.2610    2.5371 C.ar      1 <1>        -0.0755
      6 C6          5.2705   -2.6505    0.5757 C.ar      1 <1>        -0.0727
      7 C7          0.2801    0.9396   -0.2057 C.ar      1 <1>        -0.0667
      8 C8          1.2577    3.1058    0.2288 C.ar      1 <1>        -0.0653
      9 C9         -0.9929    1.4747   -0.0086 C.ar      1 <1>        -0.0561
     10 C10        -0.0152    3.6409    0.4259 C.ar      1 <1>        -0.0556
     11 C11         3.1412    0.1641    0.5382 C.ar      1 <1>        -0.0228
     12 C12         3.5774    1.6728   -1.2834 C.ar      1 <1>         0.0974
     13 C13         1.4055    1.7552   -0.0869 C.ar      1 <1>        -0.0467
     14 C14         4.9074   -1.4364    1.1586 C.ar      1 <1>        -0.0494
     15 C15         2.7260    1.2001   -0.2909 C.ar      1 <1>         0.0095
     16 C16        -1.1406    2.8253    0.3073 C.ar      1 <1>        -0.0143
     17 C17         4.4072   -0.3612    0.3354 C.ar      1 <1>        -0.0124
     18 C18         4.8240    1.0800   -1.4044 C.ar      1 <1>         0.0501
     19 C19         6.8059    2.8559   -0.3567 C.3       1 <1>        -0.0445
     20 C20         8.1575    0.8786   -1.1339 C.3       1 <1>        -0.0428
     21 C21         7.3612    2.1056   -1.5614 C.3       1 <1>        -0.0050
     22 N1          2.8281    3.6067   -2.8447 N.1       1 <1>        -0.3783
     23 N2          5.2624    0.0717   -0.6179 N.ar      1 <1>        -0.3579
     24 S1          6.0070    1.6056   -2.6442 S.3       1 <1>        -0.1573
     25 Cl1        -2.7116    3.4844    0.5520 Cl        1 <1>        -0.1813
     26 H1          6.2522   -4.3217    3.3694 H         1 <1>         0.1193
     27 H2          5.6063   -2.1622    4.4059 H         1 <1>         0.1199
     28 H3          6.0378   -4.6337    0.9166 H         1 <1>         0.1199
     29 H4          4.7490   -0.3204    3.0065 H         1 <1>         0.1345
     30 H5          5.1828   -2.8017   -0.4976 H         1 <1>         0.1427
     31 H6          0.3790   -0.1150   -0.4511 H         1 <1>         0.1407
     32 H7          2.1255    3.7544    0.3258 H         1 <1>         0.1460
     33 H8         -1.8613    0.8274   -0.1023 H         1 <1>         0.1469
     34 H9         -0.1153    4.6950    0.6727 H         1 <1>         0.1475
     35 H10         2.4954   -0.2232    1.3215 H         1 <1>         0.1727
     36 H11         6.1509    2.2022    0.2300 H         1 <1>         0.0442
     37 H12         7.6092    3.1934    0.3077 H         1 <1>         0.0470
     38 H13         6.2162    3.7300   -0.6556 H         1 <1>         0.0537
     39 H14         7.5232    0.1944   -0.5590 H         1 <1>         0.0492
     40 H15         9.0026    1.1547   -0.4937 H         1 <1>         0.0558
     41 H16         8.5453    0.3224   -1.9950 H         1 <1>         0.0492
     42 H17         8.0119    2.7754   -2.1335 H         1 <1>         0.1002
@<TRIPOS>BOND
     1    1   12 1
     2    1   22 3
     3    2    3 ar
     4    2    4 ar
     5    3    5 ar
     6    4    6 ar
     7    5   14 ar
     8    6   14 ar
     9    7    9 ar
    10    7   13 ar
    11    8   10 ar
    12    8   13 ar
    13    9   16 ar
    14   10   16 ar
    15   11   15 ar
    16   11   17 ar
    17   12   15 ar
    18   12   18 ar
    19   13   15 1
    20   14   17 1
    21   16   25 1
    22   17   23 ar
    23   18   23 ar
    24   18   24 1
    25   19   21 1
    26   20   21 1
    27   21   24 1
    28    2   26 1
    29    3   27 1
    30    4   28 1
    31    5   29 1
    32    6   30 1
    33    7   31 1
    34    8   32 1
    35    9   33 1
    36   10   34 1
    37   11   35 1
    38   19   36 1
    39   19   37 1
    40   19   38 1
    41   20   39 1
    42   20   40 1
    43   20   41 1
    44   21   42 1
@<TRIPOS>Similarity
1.5574
@<TRIPOS>ShapeSim
0.9046
@<TRIPOS>PharmSim
0.6529
# END
# Name:		AG-205/08567008
# Created and modified by SHAFTS on Tue Sep 23 17:55:45 2014

# 

@<TRIPOS>MOLECULE
AG-205/08567008
   43    45     0
SMALL
USER_CHARGE


@<TRIPOS>ATOM
      1 C1          3.1625    2.7422   -2.1466 C.1       1 <1>         0.0349
      2 C2          5.8744   -3.5137    2.7498 C.ar      1 <1>        -0.0963
      3 C3          5.5114   -2.2997    3.3328 C.ar      1 <1>        -0.0921
      4 C4          5.7540   -3.6891    1.3712 C.ar      1 <1>        -0.0909
      5 C5          5.0278   -1.2610    2.5371 C.ar      1 <1>        -0.0756
      6 C6          5.2704   -2.6505    0.5756 C.ar      1 <1>        -0.0731
      7 C7          0.2802    0.9395   -0.2052 C.ar      1 <1>        -0.0712
      8 C8          1.2581    3.1057    0.2286 C.ar      1 <1>        -0.0645
      9 C9         -0.9928    1.4748   -0.0084 C.ar      1 <1>        -0.0645
     10 C10        -0.0149    3.6410    0.4254 C.ar      1 <1>        -0.0568
     11 C11         3.1411    0.1640    0.5384 C.ar      1 <1>        -0.0247
     12 C12         3.5770    1.6727   -1.2831 C.ar      1 <1>         0.0950
     13 C13         1.4056    1.7550   -0.0865 C.ar      1 <1>        -0.0500
     14 C14         4.9073   -1.4364    1.1585 C.ar      1 <1>        -0.0500
     15 C15         2.7257    1.2001   -0.2906 C.ar      1 <1>         0.0066
     16 C16        -1.1404    2.8254    0.3067 C.ar      1 <1>        -0.0365
     17 C17         4.4071   -0.3611    0.3356 C.ar      1 <1>        -0.0142
     18 C18         4.8236    1.0802   -1.4044 C.ar      1 <1>         0.0479
     19 C19         7.9834   -0.1937   -2.0666 C.3       1 <1>        -0.0420
     20 C20        -2.4612    4.7359    0.8177 C.3       1 <1>         0.0113
     21 C21         7.5367    1.2246   -1.7672 C.3       1 <1>        -0.0002
     22 N1          2.8274    3.6068   -2.8443 N.1       1 <1>        -0.3800
     23 N2          5.2622    0.0717   -0.6179 N.ar      1 <1>        -0.3604
     24 O1         -2.3824    3.3477    0.4980 O.3       1 <1>        -0.4626
     25 S1          6.0065    1.6056   -2.6442 S.3       1 <1>        -0.1571
     26 H1          6.2526   -4.3217    3.3693 H         1 <1>         0.1189
     27 H2          5.6066   -2.1624    4.4058 H         1 <1>         0.1196
     28 H3          6.0379   -4.6336    0.9165 H         1 <1>         0.1196
     29 H4          4.7491   -0.3204    3.0066 H         1 <1>         0.1348
     30 H5          5.1827   -2.8017   -0.4977 H         1 <1>         0.1420
     31 H6          0.3788   -0.1152   -0.4505 H         1 <1>         0.1354
     32 H7          2.1255    3.7544    0.3246 H         1 <1>         0.1478
     33 H8         -1.8658    0.8346   -0.1024 H         1 <1>         0.1302
     34 H9         -0.1238    4.6939    0.6705 H         1 <1>         0.1473
     35 H10         2.4953   -0.2232    1.3217 H         1 <1>         0.1714
     36 H11         7.2264   -0.9258   -1.7653 H         1 <1>         0.0551
     37 H12         8.1971   -0.3319   -3.1319 H         1 <1>         0.0484
     38 H13         8.9009   -0.4202   -1.5131 H         1 <1>         0.0483
     39 H14        -3.5081    5.0226    0.9441 H         1 <1>         0.1096
     40 H15        -2.0062    5.3220    0.0153 H         1 <1>         0.1095
     41 H16        -1.9210    4.9173    1.7500 H         1 <1>         0.1335
     42 H17         8.3070    1.9380   -2.0758 H         1 <1>         0.0976
     43 H18         7.3680    1.3500   -0.6934 H         1 <1>         0.0976
@<TRIPOS>BOND
     1    1   12 1
     2    1   22 3
     3    2    3 ar
     4    2    4 ar
     5    3    5 ar
     6    4    6 ar
     7    5   14 ar
     8    6   14 ar
     9    7    9 ar
    10    7   13 ar
    11    8   10 ar
    12    8   13 ar
    13    9   16 ar
    14   10   16 ar
    15   11   15 ar
    16   11   17 ar
    17   12   15 ar
    18   12   18 ar
    19   13   15 1
    20   14   17 1
    21   16   24 1
    22   17   23 ar
    23   18   23 ar
    24   18   25 1
    25   19   21 1
    26   20   24 1
    27   21   25 1
    28    2   26 1
    29    3   27 1
    30    4   28 1
    31    5   29 1
    32    6   30 1
    33    7   31 1
    34    8   32 1
    35    9   33 1
    36   10   34 1
    37   11   35 1
    38   19   36 1
    39   19   37 1
    40   19   38 1
    41   20   39 1
    42   20   40 1
    43   20   41 1
    44   21   42 1
    45   21   43 1
@<TRIPOS>Similarity
1.5571
@<TRIPOS>ShapeSim
0.9108
@<TRIPOS>PharmSim
0.6463
# END
# Name:		AE-848/34408043
# Created and modified by SHAFTS on Tue Sep 23 17:55:45 2014

# 

@<TRIPOS>MOLECULE
AE-848/34408043
   40    42     0
SMALL
USER_CHARGE


@<TRIPOS>ATOM
      1 C1          3.1625    2.7423   -2.1465 C.1       1 <1>         0.0353
      2 C2          5.8742   -3.5138    2.7499 C.ar      1 <1>        -0.0964
      3 C3          4.9642   -2.5972    3.2765 C.ar      1 <1>        -0.0922
      4 C4          6.3010   -3.3916    1.4275 C.ar      1 <1>        -0.0909
      5 C5          4.4807   -1.5585    2.4809 C.ar      1 <1>        -0.0757
      6 C6          5.8175   -2.3528    0.6319 C.ar      1 <1>        -0.0730
      7 C7          0.2803    0.9394   -0.2052 C.ar      1 <1>        -0.0658
      8 C8          1.2581    3.1057    0.2286 C.ar      1 <1>        -0.0699
      9 C9         -0.9928    1.4747   -0.0084 C.ar      1 <1>        -0.0573
     10 C10        -0.0149    3.6409    0.4254 C.ar      1 <1>        -0.0639
     11 C11         3.1412    0.1640    0.5384 C.ar      1 <1>        -0.0248
     12 C12         3.5770    1.6727   -1.2832 C.ar      1 <1>         0.0951
     13 C13         1.4056    1.7550   -0.0865 C.ar      1 <1>        -0.0500
     14 C14         4.9075   -1.4363    1.1584 C.ar      1 <1>        -0.0501
     15 C15         2.7257    1.2001   -0.2906 C.ar      1 <1>         0.0066
     16 C16        -1.1403    2.8253    0.3068 C.ar      1 <1>        -0.0365
     17 C17         4.4072   -0.3611    0.3355 C.ar      1 <1>        -0.0143
     18 C18         4.8236    1.0802   -1.4045 C.ar      1 <1>         0.0481
     19 C19        -2.4613    4.7358    0.8178 C.3       1 <1>         0.0113
     20 C20         5.5242    0.5066   -3.9916 C.3       1 <1>         0.0053
     21 N1          2.8274    3.6068   -2.8444 N.1       1 <1>        -0.3793
     22 N2          5.2622    0.0717   -0.6180 N.ar      1 <1>        -0.3605
     23 O1         -2.3824    3.3476    0.4981 O.3       1 <1>        -0.4626
     24 S1          6.0064    1.6058   -2.6443 S.3       1 <1>        -0.1547
     25 H1          6.2517   -4.3214    3.3701 H         1 <1>         0.1189
     26 H2          4.6330   -2.6913    4.3066 H         1 <1>         0.1194
     27 H3          7.0106   -4.1040    1.0172 H         1 <1>         0.1197
     28 H4          3.7718   -0.8519    2.9061 H         1 <1>         0.1345
     29 H5          6.1597   -2.2700   -0.3970 H         1 <1>         0.1422
     30 H6          0.3789   -0.1153   -0.4504 H         1 <1>         0.1426
     31 H7          2.1254    3.7544    0.3245 H         1 <1>         0.1405
     32 H8         -1.8658    0.8345   -0.1024 H         1 <1>         0.1468
     33 H9         -0.1238    4.6939    0.6705 H         1 <1>         0.1308
     34 H10         2.4953   -0.2232    1.3217 H         1 <1>         0.1711
     35 H11        -3.5081    5.0225    0.9442 H         1 <1>         0.1095
     36 H12        -2.0063    5.3219    0.0153 H         1 <1>         0.1098
     37 H13        -1.9210    4.9172    1.7501 H         1 <1>         0.1333
     38 H14         6.1568    0.6879   -4.8639 H         1 <1>         0.0969
     39 H15         4.4815    0.6883   -4.2637 H         1 <1>         0.1035
     40 H16         5.6358   -0.5346   -3.6792 H         1 <1>         0.0969
@<TRIPOS>BOND
     1    1   12 1
     2    1   21 3
     3    2    3 ar
     4    2    4 ar
     5    3    5 ar
     6    4    6 ar
     7    5   14 ar
     8    6   14 ar
     9    7    9 ar
    10    7   13 ar
    11    8   10 ar
    12    8   13 ar
    13    9   16 ar
    14   10   16 ar
    15   11   15 ar
    16   11   17 ar
    17   12   15 ar
    18   12   18 ar
    19   13   15 1
    20   14   17 1
    21   16   23 1
    22   17   22 ar
    23   18   22 ar
    24   18   24 1
    25   19   23 1
    26   20   24 1
    27    2   25 1
    28    3   26 1
    29    4   27 1
    30    5   28 1
    31    6   29 1
    32    7   30 1
    33    8   31 1
    34    9   32 1
    35   10   33 1
    36   11   34 1
    37   19   35 1
    38   19   36 1
    39   19   37 1
    40   20   38 1
    41   20   39 1
    42   20   40 1
@<TRIPOS>Similarity
1.5554
@<TRIPOS>ShapeSim
0.9151
@<TRIPOS>PharmSim
0.6404
# END
# Name:		AM-807/12426015
# Created and modified by SHAFTS on Tue Sep 23 17:55:45 2014

# 

@<TRIPOS>MOLECULE
AM-807/12426015
   45    48     0
SMALL
USER_CHARGE


@<TRIPOS>ATOM
      1 C1          5.6226   -2.6525    2.8863 C.2       1 <1>        -0.0733
      2 C2          0.1455    0.9681   -0.1546 C.ar      1 <1>        -0.0598
      3 C3          1.1161    3.1378    0.2784 C.ar      1 <1>        -0.0600
      4 C4         -1.1288    1.4975    0.0492 C.ar      1 <1>        -0.0299
      5 C5         -0.1583    3.6672    0.4820 C.ar      1 <1>        -0.0299
      6 C6          5.0756   -1.4043    2.4704 C.2       1 <1>        -0.0582
      7 C7          3.0550    0.2030    0.5499 C.ar      1 <1>        -0.0262
      8 C8          5.8016   -3.5172    1.8290 C.2       1 <1>        -0.0418
      9 C9          3.4238    1.7431   -1.2678 C.ar      1 <1>         0.0119
     10 C10         1.2680    1.7882   -0.0400 C.ar      1 <1>        -0.0551
     11 C11         2.5872    1.2402   -0.2508 C.ar      1 <1>        -0.0251
     12 C12         3.2475    2.7797   -2.2396 C.2       1 <1>         0.0220
     13 C13        -1.2807    2.8470    0.3675 C.ar      1 <1>         0.0476
     14 C14         4.3257   -0.2891    0.3097 C.ar      1 <1>         0.0085
     15 C15         4.8577   -1.3624    1.1106 C.2       1 <1>        -0.0082
     16 C16         4.3486    2.9358   -3.0526 C.2       1 <1>         0.0988
     17 C17         4.6773    1.1540   -1.3968 C.ar      1 <1>         0.0579
     18 C18         4.5607    3.8517   -4.1290 C.2       1 <1>         0.1494
     19 C19         7.9215    4.7562   -5.1572 C.3       1 <1>        -0.0346
     20 C20         5.9728    4.9928   -6.7377 C.3       1 <1>        -0.0310
     21 C21         6.4100    4.8669   -5.2863 C.3       1 <1>         0.0237
     22 N1          5.1735    0.1484   -0.6457 N.ar      1 <1>        -0.3428
     23 N2          2.1308    3.5391   -2.3678 N.pl3     1 <1>        -0.3436
     24 O1          3.7358    4.7056   -4.5281 O.2       1 <1>        -0.4717
     25 O2          5.8015    3.7063   -4.7097 O.3       1 <1>        -0.3936
     26 F1         -2.5044    3.3553    0.5632 F         1 <1>        -0.3380
     27 S1          5.3115   -2.8237    0.3420 S.3       1 <1>        -0.1516
     28 S2          5.6003    1.8407   -2.6555 S.3       1 <1>        -0.0447
     29 H1          5.8726   -2.9037    3.9088 H         1 <1>         0.1212
     30 H2          0.2474   -0.0860   -0.4019 H         1 <1>         0.1489
     31 H3          1.9811    3.7901    0.3711 H         1 <1>         0.1482
     32 H4         -2.0029    0.8591   -0.0398 H         1 <1>         0.1559
     33 H5         -0.2773    4.7178    0.7297 H         1 <1>         0.1566
     34 H6          4.8573   -0.5826    3.1413 H         1 <1>         0.1437
     35 H7          2.4363   -0.2086    1.3433 H         1 <1>         0.1711
     36 H8          6.1973   -4.5226    1.8585 H         1 <1>         0.1814
     37 H9          8.3054    3.8945   -5.7117 H         1 <1>         0.0529
     38 H10         8.4040    5.6620   -5.5399 H         1 <1>         0.0571
     39 H11         8.2218    4.6597   -4.1079 H         1 <1>         0.0498
     40 H12         6.3102    4.1368   -7.3300 H         1 <1>         0.0571
     41 H13         6.3809    5.9076   -7.1807 H         1 <1>         0.0643
     42 H14         4.8824    5.0650   -6.8160 H         1 <1>         0.0590
     43 H15         6.0578    5.7365   -4.7218 H         1 <1>         0.1277
     44 H16         1.2988    3.3813   -1.7863 H         1 <1>         0.2483
     45 H17         2.0350    4.2399   -3.1128 H         1 <1>         0.2556
@<TRIPOS>BOND
     1    1    6 1
     2    1    8 2
     3    2    4 ar
     4    2   10 ar
     5    3    5 ar
     6    3   10 ar
     7    4   13 ar
     8    5   13 ar
     9    6   15 2
    10    7   11 ar
    11    7   14 ar
    12    8   27 1
    13    9   11 ar
    14    9   12 1
    15    9   17 ar
    16   10   11 1
    17   12   16 2
    18   12   23 1
    19   13   26 1
    20   14   15 1
    21   14   22 ar
    22   15   27 1
    23   16   18 1
    24   16   28 1
    25   17   22 ar
    26   17   28 1
    27   18   24 2
    28   18   25 1
    29   19   21 1
    30   20   21 1
    31   21   25 1
    32    1   29 1
    33    2   30 1
    34    3   31 1
    35    4   32 1
    36    5   33 1
    37    6   34 1
    38    7   35 1
    39    8   36 1
    40   19   37 1
    41   19   38 1
    42   19   39 1
    43   20   40 1
    44   20   41 1
    45   20   42 1
    46   21   43 1
    47   23   44 1
    48   23   45 1
@<TRIPOS>Similarity
1.5541
@<TRIPOS>ShapeSim
0.8670
@<TRIPOS>PharmSim
0.6872
# END
# Name:		AG-205/36992102
# Created and modified by SHAFTS on Tue Sep 23 17:55:45 2014

# 

@<TRIPOS>MOLECULE
AG-205/36992102
   42    45     0
SMALL
USER_CHARGE


@<TRIPOS>ATOM
      1 C1          5.3277   -2.8174    2.8612 C.2       1 <1>        -0.0733
      2 C2          0.1455    0.9681   -0.1546 C.ar      1 <1>        -0.0598
      3 C3          1.1161    3.1379    0.2783 C.ar      1 <1>        -0.0601
      4 C4         -1.1288    1.4975    0.0492 C.ar      1 <1>        -0.0299
      5 C5         -0.1583    3.6673    0.4821 C.ar      1 <1>        -0.0299
      6 C6          4.5947   -1.6756    2.4263 C.2       1 <1>        -0.0582
      7 C7          3.0549    0.2031    0.5499 C.ar      1 <1>        -0.0261
      8 C8          6.1228   -3.3335    1.8617 C.2       1 <1>        -0.0417
      9 C9          3.4239    1.7431   -1.2678 C.ar      1 <1>         0.0120
     10 C10         1.2679    1.7882   -0.0400 C.ar      1 <1>        -0.0551
     11 C11         2.5871    1.2401   -0.2508 C.ar      1 <1>        -0.0250
     12 C12         3.2475    2.7797   -2.2397 C.2       1 <1>         0.0220
     13 C13        -1.2807    2.8470    0.3675 C.ar      1 <1>         0.0476
     14 C14         4.3256   -0.2891    0.3098 C.ar      1 <1>         0.0086
     15 C15         4.8577   -1.3624    1.1107 C.2       1 <1>        -0.0081
     16 C16         4.3485    2.9357   -3.0527 C.2       1 <1>         0.0985
     17 C17         4.6773    1.1539   -1.3968 C.ar      1 <1>         0.0579
     18 C18         4.5607    3.8516   -4.1291 C.2       1 <1>         0.1490
     19 C19         2.3463    4.1534   -6.3949 C.3       1 <1>        -0.0295
     20 C20         3.2446    5.1391   -5.6783 C.3       1 <1>         0.0293
     21 N1          5.1735    0.1484   -0.6457 N.ar      1 <1>        -0.3428
     22 N2          2.1308    3.5391   -2.3678 N.pl3     1 <1>        -0.3436
     23 O1          5.6009    3.9274   -4.8228 O.2       1 <1>        -0.4722
     24 O2          3.4766    4.6740   -4.3443 O.3       1 <1>        -0.3922
     25 F1         -2.5044    3.3554    0.5631 F         1 <1>        -0.3379
     26 S1          5.9839   -2.4426    0.4059 S.3       1 <1>        -0.1516
     27 S2          5.6003    1.8407   -2.6556 S.3       1 <1>        -0.0447
     28 H1          5.2753   -3.2388    3.8567 H         1 <1>         0.1213
     29 H2          0.2474   -0.0860   -0.4019 H         1 <1>         0.1489
     30 H3          1.9812    3.7901    0.3711 H         1 <1>         0.1481
     31 H4         -2.0029    0.8591   -0.0397 H         1 <1>         0.1560
     32 H5         -0.2773    4.7179    0.7296 H         1 <1>         0.1566
     33 H6          3.9115   -1.1166    3.0539 H         1 <1>         0.1438
     34 H7          2.4362   -0.2085    1.3433 H         1 <1>         0.1713
     35 H8          6.7789   -4.1907    1.9171 H         1 <1>         0.1814
     36 H9          2.8132    3.1657   -6.4459 H         1 <1>         0.0585
     37 H10         1.3840    4.0635   -5.8804 H         1 <1>         0.0585
     38 H11         2.1323    4.4960   -7.4127 H         1 <1>         0.0653
     39 H12         2.7718    6.1246   -5.6308 H         1 <1>         0.1216
     40 H13         4.2059    5.2270   -6.1931 H         1 <1>         0.1216
     41 H14         1.2987    3.3813   -1.7863 H         1 <1>         0.2555
     42 H15         2.0349    4.2398   -3.1128 H         1 <1>         0.2484
@<TRIPOS>BOND
     1    1    6 1
     2    1    8 2
     3    2    4 ar
     4    2   10 ar
     5    3    5 ar
     6    3   10 ar
     7    4   13 ar
     8    5   13 ar
     9    6   15 2
    10    7   11 ar
    11    7   14 ar
    12    8   26 1
    13    9   11 ar
    14    9   12 1
    15    9   17 ar
    16   10   11 1
    17   12   16 2
    18   12   22 1
    19   13   25 1
    20   14   15 1
    21   14   21 ar
    22   15   26 1
    23   16   18 1
    24   16   27 1
    25   17   21 ar
    26   17   27 1
    27   18   23 2
    28   18   24 1
    29   19   20 1
    30   20   24 1
    31    1   28 1
    32    2   29 1
    33    3   30 1
    34    4   31 1
    35    5   32 1
    36    6   33 1
    37    7   34 1
    38    8   35 1
    39   19   36 1
    40   19   37 1
    41   19   38 1
    42   20   39 1
    43   20   40 1
    44   22   41 1
    45   22   42 1
@<TRIPOS>Similarity
1.5540
@<TRIPOS>ShapeSim
0.8717
@<TRIPOS>PharmSim
0.6823
# END
# Name:		AG-690/40639050
# Created and modified by SHAFTS on Tue Sep 23 17:55:45 2014

# 

@<TRIPOS>MOLECULE
AG-690/40639050
   36    38     0
SMALL
USER_CHARGE


@<TRIPOS>ATOM
      1 C1          3.1194    2.8082   -2.2862 C.1       1 <1>         0.0470
      2 C2          5.6562   -2.5258    2.9062 C.2       1 <1>        -0.0743
      3 C3          1.1912    2.9525    0.6780 C.ar      1 <1>        -0.0805
      4 C4          0.2660    1.3059   -0.8284 C.ar      1 <1>        -0.0818
      5 C5         -0.0818    3.4873    0.8754 C.ar      1 <1>        -0.0961
      6 C6         -1.0070    1.8405   -0.6310 C.ar      1 <1>        -0.0966
      7 C7          5.1197   -1.2863    2.4527 C.2       1 <1>        -0.0598
      8 C8          3.1170    0.2915    0.4667 C.ar      1 <1>        -0.0148
      9 C9          5.8311   -3.4223    1.8750 C.2       1 <1>        -0.0422
     10 C10         3.5224    1.7637   -1.3915 C.ar      1 <1>         0.1222
     11 C11         1.3652    1.8619   -0.1741 C.ar      1 <1>        -0.0520
     12 C12         2.6857    1.3075   -0.3790 C.ar      1 <1>         0.0192
     13 C13        -1.1810    2.9313    0.2211 C.ar      1 <1>        -0.1092
     14 C14         4.3837   -0.2305    0.2596 C.ar      1 <1>         0.0123
     15 C15         4.9051   -1.2825    1.0917 C.2       1 <1>        -0.0094
     16 C16         4.7709    1.1758   -1.5153 C.ar      1 <1>         0.0970
     17 C17        -2.5421    3.5030    0.4320 C.3       1 <1>        -0.0422
     18 C18         6.8950    0.9359   -2.5574 C.3       1 <1>         0.0347
     19 N1          2.7932    3.6542   -3.0107 N.1       1 <1>        -0.3791
     20 N2          5.2247    0.1869   -0.7129 N.ar      1 <1>        -0.3282
     21 O1          5.6336    1.5897   -2.4978 O.3       1 <1>        -0.4073
     22 S1          5.3494   -2.7691    0.3672 S.3       1 <1>        -0.1521
     23 H1          5.9022   -2.7489    3.9362 H         1 <1>         0.1196
     24 H2          2.0383    3.3976    1.1948 H         1 <1>         0.1337
     25 H3          0.3852    0.4551   -1.4952 H         1 <1>         0.1288
     26 H4         -0.2078    4.3378    1.5402 H         1 <1>         0.1216
     27 H5         -1.8581    1.4007   -1.1444 H         1 <1>         0.1210
     28 H6          4.9061   -0.4437    3.0987 H         1 <1>         0.1411
     29 H7          2.4825   -0.0825    1.2657 H         1 <1>         0.1717
     30 H8          6.2191   -4.4293    1.9350 H         1 <1>         0.1806
     31 H9         -2.7441    4.2903   -0.3046 H         1 <1>         0.0616
     32 H10        -3.3174    2.7316    0.3382 H         1 <1>         0.0593
     33 H11        -2.6421    3.9332    1.4371 H         1 <1>         0.0589
     34 H12         7.4846    1.3540   -3.3769 H         1 <1>         0.1254
     35 H13         6.7442   -0.1354   -2.7124 H         1 <1>         0.1448
     36 H14         7.4227    1.0948   -1.6140 H         1 <1>         0.1254
@<TRIPOS>BOND
     1    1   10 1
     2    1   19 3
     3    2    7 1
     4    2    9 2
     5    3    5 ar
     6    3   11 ar
     7    4    6 ar
     8    4   11 ar
     9    5   13 ar
    10    6   13 ar
    11    7   15 2
    12    8   12 ar
    13    8   14 ar
    14    9   22 1
    15   10   12 ar
    16   10   16 ar
    17   11   12 1
    18   13   17 1
    19   14   15 1
    20   14   20 ar
    21   15   22 1
    22   16   20 ar
    23   16   21 1
    24   18   21 1
    25    2   23 1
    26    3   24 1
    27    4   25 1
    28    5   26 1
    29    6   27 1
    30    7   28 1
    31    8   29 1
    32    9   30 1
    33   17   31 1
    34   17   32 1
    35   17   33 1
    36   18   34 1
    37   18   35 1
    38   18   36 1
@<TRIPOS>Similarity
1.5539
@<TRIPOS>ShapeSim
0.9228
@<TRIPOS>PharmSim
0.6311
# END
# Name:		AG-690/11481222
# Created and modified by SHAFTS on Tue Sep 23 17:55:45 2014

# 

@<TRIPOS>MOLECULE
AG-690/11481222
   39    41     0
SMALL
USER_CHARGE


@<TRIPOS>ATOM
      1 C1          3.1074    2.9060   -2.2942 C.1       1 <1>         0.0464
      2 C2          6.0718   -3.3405    2.4589 C.ar      1 <1>        -0.0957
      3 C3          5.1537   -2.4541    3.0219 C.ar      1 <1>        -0.0914
      4 C4          6.4610   -3.1898    1.1280 C.ar      1 <1>        -0.0902
      5 C5          4.6249   -1.4167    2.2539 C.ar      1 <1>        -0.0745
      6 C6          5.9321   -2.1524    0.3599 C.ar      1 <1>        -0.0718
      7 C7          0.2948    1.0155   -0.2904 C.ar      1 <1>        -0.0678
      8 C8          1.2326    3.1992    0.1444 C.ar      1 <1>        -0.0663
      9 C9         -0.9850    1.5186   -0.0564 C.ar      1 <1>        -0.0641
     10 C10        -0.0472    3.7023    0.3785 C.ar      1 <1>        -0.0635
     11 C11         3.1939    0.2987    0.3716 C.ar      1 <1>        -0.0200
     12 C12         3.5432    1.8399   -1.4414 C.ar      1 <1>         0.1213
     13 C13         1.4036    1.8558   -0.1899 C.ar      1 <1>        -0.0437
     14 C14         5.0141   -1.2659    0.9229 C.ar      1 <1>        -0.0474
     15 C15         2.7309    1.3340   -0.4328 C.ar      1 <1>         0.0197
     16 C16        -1.1560    2.8618    0.2781 C.ar      1 <1>        -0.0354
     17 C17         4.4667   -0.1919    0.1284 C.ar      1 <1>        -0.0047
     18 C18         4.8005    1.2804   -1.6033 C.ar      1 <1>         0.0941
     19 C19         7.8423    0.8431   -2.3453 C.3       1 <1>        -0.0295
     20 C20         6.5534    0.8052   -3.1386 C.3       1 <1>         0.0259
     21 N1          2.7545    3.7694   -2.9847 N.1       1 <1>        -0.3792
     22 N2          5.2848    0.2739   -0.8417 N.ar      1 <1>        -0.3355
     23 O1          5.6403    1.7436   -2.5836 O.3       1 <1>        -0.4109
     24 Br1        -2.8897    3.5443    0.5944 Br        1 <1>        -0.1381
     25 H1          6.4847   -4.1472    3.0577 H         1 <1>         0.1198
     26 H2          4.8518   -2.5704    4.0587 H         1 <1>         0.1202
     27 H3          7.1768   -3.8787    0.6894 H         1 <1>         0.1203
     28 H4          3.9103   -0.7337    2.7073 H         1 <1>         0.1359
     29 H5          6.2455   -2.0468   -0.6760 H         1 <1>         0.1435
     30 H6          0.4119   -0.0339   -0.5502 H         1 <1>         0.1409
     31 H7          2.0869    3.8670    0.2259 H         1 <1>         0.1462
     32 H8         -1.8386    0.8506   -0.1395 H         1 <1>         0.1449
     33 H9         -0.1632    4.7510    0.6381 H         1 <1>         0.1455
     34 H10         2.5784   -0.1141    1.1665 H         1 <1>         0.1696
     35 H11         8.2960    1.8372   -2.3854 H         1 <1>         0.0671
     36 H12         7.6591    0.5799   -1.2984 H         1 <1>         0.0582
     37 H13         8.5577    0.1121   -2.7366 H         1 <1>         0.0582
     38 H14         6.1049   -0.1918   -3.0944 H         1 <1>         0.1260
     39 H15         6.7382    1.0690   -4.1842 H         1 <1>         0.1260
@<TRIPOS>BOND
     1    1   12 1
     2    1   21 3
     3    2    3 ar
     4    2    4 ar
     5    3    5 ar
     6    4    6 ar
     7    5   14 ar
     8    6   14 ar
     9    7    9 ar
    10    7   13 ar
    11    8   10 ar
    12    8   13 ar
    13    9   16 ar
    14   10   16 ar
    15   11   15 ar
    16   11   17 ar
    17   12   15 ar
    18   12   18 ar
    19   13   15 1
    20   14   17 1
    21   16   24 1
    22   17   22 ar
    23   18   22 ar
    24   18   23 1
    25   19   20 1
    26   20   23 1
    27    2   25 1
    28    3   26 1
    29    4   27 1
    30    5   28 1
    31    6   29 1
    32    7   30 1
    33    8   31 1
    34    9   32 1
    35   10   33 1
    36   11   34 1
    37   19   35 1
    38   19   36 1
    39   19   37 1
    40   20   38 1
    41   20   39 1
@<TRIPOS>Similarity
1.5521
@<TRIPOS>ShapeSim
0.9148
@<TRIPOS>PharmSim
0.6374
# END
# Name:		AG-205/36992071
# Created and modified by SHAFTS on Tue Sep 23 17:55:45 2014

# 

@<TRIPOS>MOLECULE
AG-205/36992071
   42    45     0
SMALL
USER_CHARGE


@<TRIPOS>ATOM
      1 C1          5.3272   -2.8175    2.8613 C.2       1 <1>        -0.0732
      2 C2          0.1454    0.9682   -0.1549 C.ar      1 <1>        -0.0682
      3 C3          1.1160    3.1378    0.2784 C.ar      1 <1>        -0.0685
      4 C4         -1.1288    1.4974    0.0491 C.ar      1 <1>        -0.0564
      5 C5         -0.1582    3.6671    0.4824 C.ar      1 <1>        -0.0564
      6 C6          4.5943   -1.6757    2.4263 C.2       1 <1>        -0.0582
      7 C7          3.0548    0.2030    0.5498 C.ar      1 <1>        -0.0258
      8 C8          6.1225   -3.3335    1.8619 C.2       1 <1>        -0.0417
      9 C9          3.4239    1.7432   -1.2679 C.ar      1 <1>         0.0123
     10 C10         1.2679    1.7882   -0.0403 C.ar      1 <1>        -0.0578
     11 C11         2.5871    1.2402   -0.2509 C.ar      1 <1>        -0.0248
     12 C12         3.2477    2.7798   -2.2397 C.2       1 <1>         0.0222
     13 C13        -1.2807    2.8470    0.3678 C.ar      1 <1>        -0.0143
     14 C14         4.3255   -0.2891    0.3098 C.ar      1 <1>         0.0088
     15 C15         4.8576   -1.3624    1.1107 C.2       1 <1>        -0.0081
     16 C16         4.3489    2.9357   -3.0525 C.2       1 <1>         0.0986
     17 C17         4.6774    1.1539   -1.3968 C.ar      1 <1>         0.0582
     18 C18         4.5612    3.8517   -4.1290 C.2       1 <1>         0.1491
     19 C19         2.3470    4.1535   -6.3950 C.3       1 <1>        -0.0295
     20 C20         3.2452    5.1391   -5.6783 C.3       1 <1>         0.0293
     21 N1          5.1734    0.1484   -0.6457 N.ar      1 <1>        -0.3426
     22 N2          2.1310    3.5392   -2.3680 N.pl3     1 <1>        -0.3435
     23 O1          5.6014    3.9274   -4.8226 O.2       1 <1>        -0.4721
     24 O2          3.4772    4.6742   -4.3444 O.3       1 <1>        -0.3922
     25 S1          5.9838   -2.4427    0.4060 S.3       1 <1>        -0.1515
     26 S2          5.6004    1.8406   -2.6553 S.3       1 <1>        -0.0446
     27 Cl1        -2.8532    3.4990    0.6210 Cl        1 <1>        -0.1804
     28 H1          5.2747   -3.2388    3.8567 H         1 <1>         0.1213
     29 H2          0.2475   -0.0857   -0.4025 H         1 <1>         0.1450
     30 H3          1.9814    3.7897    0.3723 H         1 <1>         0.1442
     31 H4         -1.9950    0.8466   -0.0415 H         1 <1>         0.1466
     32 H5         -0.2615    4.7202    0.7315 H         1 <1>         0.1473
     33 H6          3.9111   -1.1167    3.0538 H         1 <1>         0.1439
     34 H7          2.4360   -0.2085    1.3431 H         1 <1>         0.1715
     35 H8          6.7786   -4.1907    1.9172 H         1 <1>         0.1815
     36 H9          2.8138    3.1659   -6.4460 H         1 <1>         0.0585
     37 H10         1.3847    4.0637   -5.8806 H         1 <1>         0.0585
     38 H11         2.1331    4.4961   -7.4128 H         1 <1>         0.0653
     39 H12         2.7725    6.1248   -5.6308 H         1 <1>         0.1216
     40 H13         4.2066    5.2272   -6.1930 H         1 <1>         0.1216
     41 H14         1.2989    3.3814   -1.7866 H         1 <1>         0.2557
     42 H15         2.0353    4.2399   -3.1130 H         1 <1>         0.2486
@<TRIPOS>BOND
     1    1    6 1
     2    1    8 2
     3    2    4 ar
     4    2   10 ar
     5    3    5 ar
     6    3   10 ar
     7    4   13 ar
     8    5   13 ar
     9    6   15 2
    10    7   11 ar
    11    7   14 ar
    12    8   25 1
    13    9   11 ar
    14    9   12 1
    15    9   17 ar
    16   10   11 1
    17   12   16 2
    18   12   22 1
    19   13   27 1
    20   14   15 1
    21   14   21 ar
    22   15   25 1
    23   16   18 1
    24   16   26 1
    25   17   21 ar
    26   17   26 1
    27   18   23 2
    28   18   24 1
    29   19   20 1
    30   20   24 1
    31    1   28 1
    32    2   29 1
    33    3   30 1
    34    4   31 1
    35    5   32 1
    36    6   33 1
    37    7   34 1
    38    8   35 1
    39   19   36 1
    40   19   37 1
    41   19   38 1
    42   20   39 1
    43   20   40 1
    44   22   41 1
    45   22   42 1
@<TRIPOS>Similarity
1.5505
@<TRIPOS>ShapeSim
0.8682
@<TRIPOS>PharmSim
0.6823
# END
# Name:		AO-081/15246973
# Created and modified by SHAFTS on Tue Sep 23 17:55:45 2014

# 

@<TRIPOS>MOLECULE
AO-081/15246973
   43    46     0
SMALL
USER_CHARGE


@<TRIPOS>ATOM
      1 C1          5.9441   -3.0837    2.2603 C.ar      1 <1>        -0.0915
      2 C2          6.1332   -2.7965    0.9084 C.ar      1 <1>        -0.0819
      3 C3          5.0102   -2.3614    3.0029 C.ar      1 <1>        -0.0826
      4 C4         -0.3240    1.2795   -0.4523 C.ar      1 <1>        -0.0703
      5 C5          0.5930    2.8907    1.0970 C.ar      1 <1>        -0.0706
      6 C6         -1.5897    1.8426   -0.2888 C.ar      1 <1>        -0.0927
      7 C7         -0.6727    3.4538    1.2605 C.ar      1 <1>        -0.0930
      8 C8          5.3881   -1.7869    0.2993 C.ar      1 <1>        -0.0556
      9 C9          4.2652   -1.3517    2.3936 C.ar      1 <1>        -0.0565
     10 C10         4.4073    2.4847   -2.6223 C.ar      1 <1>        -0.0643
     11 C11         3.0524    1.5792   -0.8791 C.ar      1 <1>         0.0072
     12 C12         0.7672    1.8036    0.2406 C.ar      1 <1>        -0.0345
     13 C13        -1.7640    2.9297    0.5676 C.ar      1 <1>        -0.1081
     14 C14         3.1999    2.4999   -1.9239 C.ar      1 <1>        -0.0581
     15 C15         4.4541   -1.0644    1.0418 C.ar      1 <1>        -0.0122
     16 C16         2.0749    1.2220    0.0708 C.2       1 <1>         0.0255
     17 C17         5.3877    1.5705   -2.2516 C.ar      1 <1>        -0.0481
     18 C18         4.1096    0.7228   -0.6139 C.ar      1 <1>         0.0348
     19 C19        -3.1174    3.5318    0.7407 C.3       1 <1>        -0.0425
     20 C20         2.1450    3.4800   -2.3186 C.3       1 <1>        -0.0243
     21 C21         6.6765    1.5658   -3.0102 C.3       1 <1>        -0.0102
     22 N1          2.4699    0.2270    0.8719 N.2       1 <1>        -0.3180
     23 N2          5.2923    0.6622   -1.2505 N.ar      1 <1>        -0.3741
     24 N3          3.7096   -0.0553    0.4320 N.pl3     1 <1>        -0.2878
     25 H1          6.5228   -3.8709    2.7347 H         1 <1>         0.1190
     26 H2          6.8593   -3.3597    0.3298 H         1 <1>         0.1289
     27 H3          4.8626   -2.5865    4.0553 H         1 <1>         0.1277
     28 H4         -0.2051    0.4319   -1.1231 H         1 <1>         0.1389
     29 H5          1.4337    3.3107    1.6442 H         1 <1>         0.1389
     30 H6         -2.4344    1.4288   -0.8329 H         1 <1>         0.1218
     31 H7         -0.8002    4.3008    1.9295 H         1 <1>         0.1217
     32 H8          5.5445   -1.5737   -0.7554 H         1 <1>         0.1497
     33 H9          3.5399   -0.7968    2.9840 H         1 <1>         0.1475
     34 H10         4.5786    3.1771   -3.4419 H         1 <1>         0.1393
     35 H11        -3.6509    3.0421    1.5645 H         1 <1>         0.0611
     36 H12        -3.0510    4.6056    0.9590 H         1 <1>         0.0586
     37 H13        -3.7185    3.4300   -0.1724 H         1 <1>         0.0585
     38 H14         1.4862    3.0442   -3.0787 H         1 <1>         0.0758
     39 H15         1.5353    3.7757   -1.4558 H         1 <1>         0.0716
     40 H16         2.5883    4.3978   -2.7252 H         1 <1>         0.0742
     41 H17         7.3924    2.2506   -2.5428 H         1 <1>         0.0934
     42 H18         7.1157    0.5617   -3.0354 H         1 <1>         0.0912
     43 H19         6.5226    1.8750   -4.0507 H         1 <1>         0.0919
@<TRIPOS>BOND
     1    1    2 ar
     2    1    3 ar
     3    2    8 ar
     4    3    9 ar
     5    4    6 ar
     6    4   12 ar
     7    5    7 ar
     8    5   12 ar
     9    6   13 ar
    10    7   13 ar
    11    8   15 ar
    12    9   15 ar
    13   10   14 ar
    14   10   17 ar
    15   11   14 ar
    16   11   16 1
    17   11   18 ar
    18   12   16 1
    19   13   19 1
    20   14   20 1
    21   15   24 1
    22   16   22 2
    23   17   21 1
    24   17   23 ar
    25   18   23 ar
    26   18   24 1
    27   22   24 1
    28    1   25 1
    29    2   26 1
    30    3   27 1
    31    4   28 1
    32    5   29 1
    33    6   30 1
    34    7   31 1
    35    8   32 1
    36    9   33 1
    37   10   34 1
    38   19   35 1
    39   19   36 1
    40   19   37 1
    41   20   38 1
    42   20   39 1
    43   20   40 1
    44   21   41 1
    45   21   42 1
    46   21   43 1
@<TRIPOS>Similarity
1.5424
@<TRIPOS>ShapeSim
0.8970
@<TRIPOS>PharmSim
0.6454
# END
# Name:		AG-690/40750128
# Created and modified by SHAFTS on Tue Sep 23 17:55:45 2014

# 

@<TRIPOS>MOLECULE
AG-690/40750128
   39    41     0
SMALL
USER_CHARGE


@<TRIPOS>ATOM
      1 C1          3.1629    2.7419   -2.1470 C.1       1 <1>         0.0362
      2 C2          4.4810   -1.5584    2.4811 C.ar      1 <1>        -0.0724
      3 C3          5.8174   -2.3527    0.6318 C.ar      1 <1>        -0.0751
      4 C4          0.2801    0.9396   -0.2055 C.ar      1 <1>        -0.0653
      5 C5          1.2578    3.1059    0.2287 C.ar      1 <1>        -0.0667
      6 C6          4.9642   -2.5974    3.2766 C.ar      1 <1>        -0.0934
      7 C7          6.3007   -3.3917    1.4273 C.ar      1 <1>        -0.0946
      8 C8         -0.9929    1.4746   -0.0084 C.ar      1 <1>        -0.0556
      9 C9         -0.0152    3.6409    0.4258 C.ar      1 <1>        -0.0561
     10 C10         3.1413    0.1641    0.5382 C.ar      1 <1>        -0.0230
     11 C11         3.5774    1.6726   -1.2834 C.ar      1 <1>         0.0965
     12 C12         1.4055    1.7552   -0.0869 C.ar      1 <1>        -0.0468
     13 C13         4.9076   -1.4362    1.1588 C.ar      1 <1>        -0.0490
     14 C14         2.7260    1.2001   -0.2909 C.ar      1 <1>         0.0092
     15 C15         5.8740   -3.5140    2.7498 C.ar      1 <1>        -0.1086
     16 C16        -1.1405    2.8252    0.3073 C.ar      1 <1>        -0.0143
     17 C17         4.4073   -0.3611    0.3355 C.ar      1 <1>        -0.0130
     18 C18         4.8240    1.0800   -1.4045 C.ar      1 <1>         0.0492
     19 C19         6.3904   -4.6250    3.6001 C.3       1 <1>        -0.0424
     20 C20         5.0372    1.2759   -4.1302 C.3       1 <1>         0.0057
     21 N1          2.8279    3.6064   -2.8450 N.1       1 <1>        -0.3784
     22 N2          5.2625    0.0717   -0.6180 N.ar      1 <1>        -0.3595
     23 S1          6.0069    1.6053   -2.6444 S.3       1 <1>        -0.1538
     24 Cl1        -2.7116    3.4844    0.5519 Cl        1 <1>        -0.1813
     25 H1          3.7717   -0.8523    2.9062 H         1 <1>         0.1438
     26 H2          6.1600   -2.2705   -0.3969 H         1 <1>         0.1361
     27 H3          0.3790   -0.1151   -0.4508 H         1 <1>         0.1460
     28 H4          2.1254    3.7544    0.3255 H         1 <1>         0.1407
     29 H5          4.6255   -2.6855    4.3055 H         1 <1>         0.1204
     30 H6          7.0098   -4.1011    1.0088 H         1 <1>         0.1203
     31 H7         -1.8612    0.8272   -0.1020 H         1 <1>         0.1475
     32 H8         -0.1153    4.6949    0.6725 H         1 <1>         0.1470
     33 H9          2.4954   -0.2230    1.3217 H         1 <1>         0.1729
     34 H10         5.7437   -5.5064    3.5112 H         1 <1>         0.0616
     35 H11         7.4094   -4.9101    3.3077 H         1 <1>         0.0588
     36 H12         6.4341   -4.3305    4.6569 H         1 <1>         0.0587
     37 H13         5.6151    1.5440   -5.0182 H         1 <1>         0.1040
     38 H14         4.1178    1.8663   -4.1117 H         1 <1>         0.0973
     39 H15         4.7801    0.2151   -4.1780 H         1 <1>         0.0974
@<TRIPOS>BOND
     1    1   11 1
     2    1   21 3
     3    2    6 ar
     4    2   13 ar
     5    3    7 ar
     6    3   13 ar
     7    4    8 ar
     8    4   12 ar
     9    5    9 ar
    10    5   12 ar
    11    6   15 ar
    12    7   15 ar
    13    8   16 ar
    14    9   16 ar
    15   10   14 ar
    16   10   17 ar
    17   11   14 ar
    18   11   18 ar
    19   12   14 1
    20   13   17 1
    21   15   19 1
    22   16   24 1
    23   17   22 ar
    24   18   22 ar
    25   18   23 1
    26   20   23 1
    27    2   25 1
    28    3   26 1
    29    4   27 1
    30    5   28 1
    31    6   29 1
    32    7   30 1
    33    8   31 1
    34    9   32 1
    35   10   33 1
    36   19   34 1
    37   19   35 1
    38   19   36 1
    39   20   37 1
    40   20   38 1
    41   20   39 1
@<TRIPOS>Similarity
1.5388
@<TRIPOS>ShapeSim
0.9189
@<TRIPOS>PharmSim
0.6200
# END
# Name:		AO-476/42129205
# Created and modified by SHAFTS on Tue Sep 23 17:55:45 2014

# 

@<TRIPOS>MOLECULE
AO-476/42129205
   37    39     0
SMALL
USER_CHARGE


@<TRIPOS>ATOM
      1 C1          3.1317    2.9031   -2.3006 C.1       1 <1>         0.0240
      2 C2          1.2107    2.9606    0.6587 C.ar      1 <1>        -0.0839
      3 C3          0.2945    1.3511   -0.8927 C.ar      1 <1>        -0.0823
      4 C4          4.5192   -1.4071    2.3006 C.ar      1 <1>        -0.0496
      5 C5          5.8459   -2.1784    0.4347 C.ar      1 <1>        -0.0468
      6 C6         -0.0647    3.4846    0.8685 C.ar      1 <1>        -0.0980
      7 C7         -0.9812    1.8749   -0.6828 C.ar      1 <1>        -0.0973
      8 C8          5.0191   -2.4461    3.0856 C.ar      1 <1>        -0.0278
      9 C9          6.3459   -3.2174    1.2197 C.ar      1 <1>        -0.0265
     10 C10         3.1462    0.3143    0.3801 C.ar      1 <1>        -0.0290
     11 C11         3.5511    1.8362   -1.4378 C.ar      1 <1>         0.0864
     12 C12         1.3905    1.8939   -0.2220 C.ar      1 <1>        -0.0573
     13 C13         4.9326   -1.2733    0.9751 C.ar      1 <1>        -0.0364
     14 C14         2.7135    1.3507   -0.4397 C.ar      1 <1>         0.0026
     15 C15        -1.1607    2.9419    0.1978 C.ar      1 <1>        -0.1104
     16 C16         5.9325   -3.3511    2.5451 C.ar      1 <1>         0.0472
     17 C17         4.4151   -0.1981    0.1626 C.ar      1 <1>        -0.0120
     18 C18         4.8020    1.2558   -1.5736 C.ar      1 <1>         0.0390
     19 C19        -2.5245    3.5021    0.4220 C.3       1 <1>        -0.0428
     20 N1          2.7924    3.7662   -2.9983 N.1       1 <1>        -0.3938
     21 N2          5.2571    0.2476   -0.7965 N.ar      1 <1>        -0.3629
     22 N3          5.6712    1.7366   -2.5858 N.pl3     1 <1>        -0.3209
     23 F1          6.4125   -4.3489    3.2990 F         1 <1>        -0.3400
     24 H1          2.0552    3.3952    1.1884 H         1 <1>         0.1266
     25 H2          0.4183    0.5191   -1.5817 H         1 <1>         0.1324
     26 H3          3.8076   -0.7098    2.7363 H         1 <1>         0.1540
     27 H4          6.1781   -2.0874   -0.5967 H         1 <1>         0.1624
     28 H5         -0.1952    4.3166    1.5555 H         1 <1>         0.1190
     29 H6         -1.8295    1.4455   -1.2091 H         1 <1>         0.1200
     30 H7          4.6972   -2.5506    4.1175 H         1 <1>         0.1542
     31 H8          7.0572   -3.9224    0.7997 H         1 <1>         0.1544
     32 H9          2.5111   -0.0824    1.1676 H         1 <1>         0.1569
     33 H10        -2.7288    4.3079   -0.2936 H         1 <1>         0.0572
     34 H11        -3.2964    2.7302    0.3065 H         1 <1>         0.0606
     35 H12        -2.6278    3.9048    1.4382 H         1 <1>         0.0603
     36 H13         5.3431    2.4463   -3.2031 H         1 <1>         0.2795
     37 H14         6.5516    1.2889   -2.7147 H         1 <1>         0.2811
@<TRIPOS>BOND
     1    1   11 1
     2    1   20 3
     3    2    6 ar
     4    2   12 ar
     5    3    7 ar
     6    3   12 ar
     7    4    8 ar
     8    4   13 ar
     9    5    9 ar
    10    5   13 ar
    11    6   15 ar
    12    7   15 ar
    13    8   16 ar
    14    9   16 ar
    15   10   14 ar
    16   10   17 ar
    17   11   14 ar
    18   11   18 ar
    19   12   14 1
    20   13   17 1
    21   15   19 1
    22   16   23 1
    23   17   21 ar
    24   18   21 ar
    25   18   22 1
    26    2   24 1
    27    3   25 1
    28    4   26 1
    29    5   27 1
    30    6   28 1
    31    7   29 1
    32    8   30 1
    33    9   31 1
    34   10   32 1
    35   19   33 1
    36   19   34 1
    37   19   35 1
    38   22   36 1
    39   22   37 1
@<TRIPOS>Similarity
1.5364
@<TRIPOS>ShapeSim
0.9145
@<TRIPOS>PharmSim
0.6219
# END
# Name:		AM-807/14956052
# Created and modified by SHAFTS on Tue Sep 23 17:55:45 2014

# 

@<TRIPOS>MOLECULE
AM-807/14956052
   34    37     0
SMALL
USER_CHARGE


@<TRIPOS>ATOM
      1 C1          4.4779    3.8082   -4.2287 C.1       1 <1>         0.0456
      2 C2          5.6527   -2.5466    2.9303 C.2       1 <1>        -0.0736
      3 C3          1.1137    2.9131    0.7648 C.ar      1 <1>        -0.0685
      4 C4          0.1878    1.2642   -0.7390 C.ar      1 <1>        -0.0684
      5 C5         -0.1592    3.4483    0.9619 C.ar      1 <1>        -0.0568
      6 C6         -1.0852    1.7995   -0.5419 C.ar      1 <1>        -0.0564
      7 C7          5.1051   -1.3089    2.4851 C.2       1 <1>        -0.0586
      8 C8          3.0767    0.2508    0.5346 C.ar      1 <1>        -0.0253
      9 C9          5.8257   -3.4381    1.8946 C.2       1 <1>        -0.0421
     10 C10         4.3526    2.8890   -3.1438 C.2       1 <1>         0.1241
     11 C11         3.4368    1.7434   -1.3241 C.ar      1 <1>         0.0166
     12 C12         1.2872    1.8210   -0.0857 C.ar      1 <1>        -0.0576
     13 C13         2.6053    1.2674   -0.2901 C.ar      1 <1>        -0.0237
     14 C14         3.2559    2.7548   -2.3212 C.2       1 <1>         0.0299
     15 C15        -1.2587    2.8914    0.3085 C.ar      1 <1>        -0.0146
     16 C16         4.3457   -0.2482    0.3003 C.ar      1 <1>         0.0091
     17 C17         4.8806   -1.3015    1.1259 C.2       1 <1>        -0.0084
     18 C18         4.6891    1.1501   -1.4446 C.ar      1 <1>         0.0649
     19 N1          4.5797    4.5553   -5.1109 N.1       1 <1>        -0.3792
     20 N2          5.1887    0.1639   -0.6707 N.ar      1 <1>        -0.3406
     21 N3          2.1336    3.5075   -2.4551 N.pl3     1 <1>        -0.3453
     22 S1          5.3290   -2.7825    0.3926 S.3       1 <1>        -0.1521
     23 S2          5.6058    1.8037   -2.7255 S.3       1 <1>        -0.0292
     24 Cl1        -2.8289    3.5532    0.5509 Cl        1 <1>        -0.1807
     25 H1          5.9075   -2.7718    3.9576 H         1 <1>         0.1210
     26 H2          1.9609    3.3581    1.2810 H         1 <1>         0.1447
     27 H3          0.3070    0.4135   -1.4059 H         1 <1>         0.1445
     28 H4         -0.2800    4.3006    1.6259 H         1 <1>         0.1461
     29 H5         -1.9328    1.3562   -1.0585 H         1 <1>         0.1473
     30 H6          4.8909   -0.4700    3.1358 H         1 <1>         0.1433
     31 H7          2.4625   -0.1402    1.3416 H         1 <1>         0.1723
     32 H8          6.2205   -4.4431    1.9479 H         1 <1>         0.1811
     33 H9          2.0645    4.2551   -3.1554 H         1 <1>         0.2451
     34 H10         1.3461    3.4239   -1.8018 H         1 <1>         0.2453
@<TRIPOS>BOND
     1    1   10 1
     2    1   19 3
     3    2    7 1
     4    2    9 2
     5    3    5 ar
     6    3   12 ar
     7    4    6 ar
     8    4   12 ar
     9    5   15 ar
    10    6   15 ar
    11    7   17 2
    12    8   13 ar
    13    8   16 ar
    14    9   22 1
    15   10   14 2
    16   10   23 1
    17   11   13 ar
    18   11   14 1
    19   11   18 ar
    20   12   13 1
    21   14   21 1
    22   15   24 1
    23   16   17 1
    24   16   20 ar
    25   17   22 1
    26   18   20 ar
    27   18   23 1
    28    2   25 1
    29    3   26 1
    30    4   27 1
    31    5   28 1
    32    6   29 1
    33    7   30 1
    34    8   31 1
    35    9   32 1
    36   21   33 1
    37   21   34 1
@<TRIPOS>Similarity
1.5361
@<TRIPOS>ShapeSim
0.9104
@<TRIPOS>PharmSim
0.6257
# END
# Name:		AG-690/40749447
# Created and modified by SHAFTS on Tue Sep 23 17:55:45 2014

# 

@<TRIPOS>MOLECULE
AG-690/40749447
   37    39     0
SMALL
USER_CHARGE


@<TRIPOS>ATOM
      1 C1          3.1631    2.7421   -2.1468 C.1       1 <1>         0.0397
      2 C2          8.0180    2.3290   -0.9678 C.1       1 <1>        -0.0055
      3 C3          5.8743   -3.5138    2.7499 C.ar      1 <1>        -0.0956
      4 C4          5.5112   -2.2997    3.3327 C.ar      1 <1>        -0.0902
      5 C5          5.7540   -3.6892    1.3714 C.ar      1 <1>        -0.0915
      6 C6          5.0277   -1.2610    2.5371 C.ar      1 <1>        -0.0723
      7 C7          5.2705   -2.6505    0.5757 C.ar      1 <1>        -0.0750
      8 C8          0.2801    0.9396   -0.2057 C.ar      1 <1>        -0.0648
      9 C9          1.2577    3.1058    0.2288 C.ar      1 <1>        -0.0663
     10 C10        -0.9929    1.4747   -0.0086 C.ar      1 <1>        -0.0552
     11 C11        -0.0152    3.6409    0.4259 C.ar      1 <1>        -0.0558
     12 C12         3.1412    0.1641    0.5382 C.ar      1 <1>        -0.0207
     13 C13         3.5774    1.6728   -1.2834 C.ar      1 <1>         0.1042
     14 C14         1.4055    1.7552   -0.0869 C.ar      1 <1>        -0.0458
     15 C15         4.9074   -1.4364    1.1586 C.ar      1 <1>        -0.0488
     16 C16         2.7260    1.2001   -0.2909 C.ar      1 <1>         0.0120
     17 C17        -1.1406    2.8253    0.3073 C.ar      1 <1>        -0.0138
     18 C18         4.4072   -0.3612    0.3354 C.ar      1 <1>        -0.0107
     19 C19         4.8240    1.0800   -1.4044 C.ar      1 <1>         0.0740
     20 C20         6.8738    2.8757   -1.7000 C.3       1 <1>         0.1319
     21 N1          2.8281    3.6067   -2.8447 N.1       1 <1>        -0.3759
     22 N2          8.9258    1.9010   -0.3851 N.1       1 <1>        -0.4029
     23 N3          5.2624    0.0717   -0.6179 N.ar      1 <1>        -0.3528
     24 S1          6.0070    1.6056   -2.6442 S.3       1 <1>        -0.0768
     25 Cl1        -2.7116    3.4844    0.5520 Cl        1 <1>        -0.1806
     26 H1          6.2522   -4.3217    3.3694 H         1 <1>         0.1200
     27 H2          5.6063   -2.1622    4.4059 H         1 <1>         0.1207
     28 H3          6.0378   -4.6337    0.9166 H         1 <1>         0.1204
     29 H4          4.7490   -0.3204    3.0065 H         1 <1>         0.1431
     30 H5          5.1828   -2.8017   -0.4976 H         1 <1>         0.1351
     31 H6          0.3790   -0.1150   -0.4511 H         1 <1>         0.1466
     32 H7          2.1255    3.7544    0.3258 H         1 <1>         0.1411
     33 H8         -1.8613    0.8274   -0.1023 H         1 <1>         0.1479
     34 H9         -0.1153    4.6950    0.6727 H         1 <1>         0.1473
     35 H10         2.4954   -0.2232    1.3215 H         1 <1>         0.1765
     36 H11         7.2037    3.6555   -2.3930 H         1 <1>         0.2205
     37 H12         6.1626    3.3301   -1.0035 H         1 <1>         0.2205
@<TRIPOS>BOND
     1    1   13 1
     2    1   21 3
     3    2   20 1
     4    2   22 3
     5    3    4 ar
     6    3    5 ar
     7    4    6 ar
     8    5    7 ar
     9    6   15 ar
    10    7   15 ar
    11    8   10 ar
    12    8   14 ar
    13    9   11 ar
    14    9   14 ar
    15   10   17 ar
    16   11   17 ar
    17   12   16 ar
    18   12   18 ar
    19   13   16 ar
    20   13   19 ar
    21   14   16 1
    22   15   18 1
    23   17   25 1
    24   18   23 ar
    25   19   23 ar
    26   19   24 1
    27   20   24 1
    28    3   26 1
    29    4   27 1
    30    5   28 1
    31    6   29 1
    32    7   30 1
    33    8   31 1
    34    9   32 1
    35   10   33 1
    36   11   34 1
    37   12   35 1
    38   20   36 1
    39   20   37 1
@<TRIPOS>Similarity
1.5331
@<TRIPOS>ShapeSim
0.9074
@<TRIPOS>PharmSim
0.6257
# END
# Name:		AG-205/12125110
# Created and modified by SHAFTS on Tue Sep 23 17:55:45 2014

# 

@<TRIPOS>MOLECULE
AG-205/12125110
   37    39     0
SMALL
USER_CHARGE


@<TRIPOS>ATOM
      1 C1          3.1315    2.9031   -2.3006 C.1       1 <1>         0.0259
      2 C2          4.5193   -1.4071    2.3006 C.ar      1 <1>        -0.0713
      3 C3          5.8460   -2.1784    0.4347 C.ar      1 <1>        -0.0742
      4 C4          1.2106    2.9606    0.6588 C.ar      1 <1>        -0.0654
      5 C5          0.2943    1.3512   -0.8927 C.ar      1 <1>        -0.0671
      6 C6          5.0192   -2.4460    3.0856 C.ar      1 <1>        -0.0934
      7 C7          6.3460   -3.2174    1.2196 C.ar      1 <1>        -0.0948
      8 C8         -0.0648    3.4848    0.8684 C.ar      1 <1>        -0.0561
      9 C9         -0.9812    1.8752   -0.6831 C.ar      1 <1>        -0.0569
     10 C10         3.1462    0.3143    0.3802 C.ar      1 <1>        -0.0269
     11 C11         3.5510    1.8361   -1.4377 C.ar      1 <1>         0.0885
     12 C12         1.3903    1.8938   -0.2217 C.ar      1 <1>        -0.0475
     13 C13         4.9327   -1.2733    0.9751 C.ar      1 <1>        -0.0476
     14 C14         2.7136    1.3505   -0.4396 C.ar      1 <1>         0.0065
     15 C15         5.9326   -3.3512    2.5451 C.ar      1 <1>        -0.1090
     16 C16        -1.1608    2.9421    0.1975 C.ar      1 <1>        -0.0153
     17 C17         4.4151   -0.1981    0.1627 C.ar      1 <1>        -0.0126
     18 C18         4.8019    1.2557   -1.5736 C.ar      1 <1>         0.0403
     19 C19         6.4670   -4.4623    3.3843 C.3       1 <1>        -0.0428
     20 N1          2.7923    3.7661   -2.9983 N.1       1 <1>        -0.3916
     21 N2          5.2571    0.2476   -0.7964 N.ar      1 <1>        -0.3612
     22 N3          5.6710    1.7366   -2.5858 N.pl3     1 <1>        -0.3238
     23 Cl1        -2.7341    3.5904    0.4555 Cl        1 <1>        -0.1828
     24 H1          3.8074   -0.7100    2.7363 H         1 <1>         0.1457
     25 H2          6.1784   -2.0870   -0.5967 H         1 <1>         0.1371
     26 H3          2.0550    3.3946    1.1889 H         1 <1>         0.1463
     27 H4          0.4184    0.5201   -1.5831 H         1 <1>         0.1401
     28 H5          4.6908   -2.5433    4.1168 H         1 <1>         0.1195
     29 H6          7.0578   -3.9178    0.7905 H         1 <1>         0.1193
     30 H7         -0.1905    4.3175    1.5559 H         1 <1>         0.1466
     31 H8         -1.8260    1.4432   -1.2136 H         1 <1>         0.1455
     32 H9          2.5112   -0.0824    1.1678 H         1 <1>         0.1604
     33 H10         5.8276   -5.3491    3.2960 H         1 <1>         0.0611
     34 H11         7.4858   -4.7364    3.0809 H         1 <1>         0.0584
     35 H12         6.5176   -4.1737    4.4422 H         1 <1>         0.0582
     36 H13         5.3429    2.4462   -3.2032 H         1 <1>         0.2696
     37 H14         6.5515    1.2889   -2.7148 H         1 <1>         0.2707
@<TRIPOS>BOND
     1    1   11 1
     2    1   20 3
     3    2    6 ar
     4    2   13 ar
     5    3    7 ar
     6    3   13 ar
     7    4    8 ar
     8    4   12 ar
     9    5    9 ar
    10    5   12 ar
    11    6   15 ar
    12    7   15 ar
    13    8   16 ar
    14    9   16 ar
    15   10   14 ar
    16   10   17 ar
    17   11   14 ar
    18   11   18 ar
    19   12   14 1
    20   13   17 1
    21   15   19 1
    22   16   23 1
    23   17   21 ar
    24   18   21 ar
    25   18   22 1
    26    2   24 1
    27    3   25 1
    28    4   26 1
    29    5   27 1
    30    6   28 1
    31    7   29 1
    32    8   30 1
    33    9   31 1
    34   10   32 1
    35   19   33 1
    36   19   34 1
    37   19   35 1
    38   22   36 1
    39   22   37 1
@<TRIPOS>Similarity
1.5322
@<TRIPOS>ShapeSim
0.9103
@<TRIPOS>PharmSim
0.6219
# END
# Name:		AM-807/12740324
# Created and modified by SHAFTS on Tue Sep 23 17:55:45 2014

# 

@<TRIPOS>MOLECULE
AM-807/12740324
   46    49     0
SMALL
USER_CHARGE


@<TRIPOS>ATOM
      1 C1          5.6230   -2.6526    2.8861 C.2       1 <1>        -0.0738
      2 C2          1.0892    2.8578    0.8373 C.ar      1 <1>        -0.0685
      3 C3          0.1724    1.2477   -0.7132 C.ar      1 <1>        -0.0687
      4 C4         -0.1850    3.3876    1.0407 C.ar      1 <1>        -0.0566
      5 C5         -1.1020    1.7774   -0.5098 C.ar      1 <1>        -0.0565
      6 C6          5.0760   -1.4044    2.4703 C.2       1 <1>        -0.0589
      7 C7          3.0551    0.2029    0.5500 C.ar      1 <1>        -0.0265
      8 C8          5.8021   -3.5172    1.8288 C.2       1 <1>        -0.0422
      9 C9          3.4238    1.7431   -1.2677 C.ar      1 <1>         0.0075
     10 C10         1.2679    1.7879   -0.0398 C.ar      1 <1>        -0.0581
     11 C11         2.5871    1.2399   -0.2507 C.ar      1 <1>        -0.0260
     12 C12         3.2473    2.7797   -2.2394 C.2       1 <1>         0.0114
     13 C13        -1.2806    2.8474    0.3671 C.ar      1 <1>        -0.0144
     14 C14         4.3258   -0.2892    0.3097 C.ar      1 <1>         0.0073
     15 C15         4.8580   -1.3625    1.1106 C.2       1 <1>        -0.0090
     16 C16         4.3483    2.9358   -3.0524 C.2       1 <1>         0.0672
     17 C17         4.6772    1.1540   -1.3968 C.ar      1 <1>         0.0496
     18 C18         4.5603    3.8518   -4.1289 C.2       1 <1>         0.0873
     19 C19         7.1061    3.9248   -6.8353 C.3       1 <1>        -0.0471
     20 C20         6.8229    5.9226   -5.3272 C.3       1 <1>        -0.0493
     21 C21         6.1695    4.6720   -5.8972 C.3       1 <1>        -0.0115
     22 N1          5.1735    0.1484   -0.6457 N.ar      1 <1>        -0.3458
     23 N2          2.1305    3.5391   -2.3675 N.pl3     1 <1>        -0.3455
     24 N3          5.7973    3.8001   -4.8064 N.am      1 <1>        -0.3367
     25 O1          3.6867    4.6942   -4.4557 O.2       1 <1>        -0.5144
     26 S1          5.3118   -2.8237    0.3418 S.3       1 <1>        -0.1523
     27 S2          5.6001    1.8409   -2.6555 S.3       1 <1>        -0.0644
     28 Cl1        -2.8523    3.5025    0.6175 Cl        1 <1>        -0.1807
     29 H1          5.8732   -2.9038    3.9085 H         1 <1>         0.1208
     30 H2          1.9333    3.2900    1.3693 H         1 <1>         0.1443
     31 H3          0.2956    0.4142   -1.4007 H         1 <1>         0.1438
     32 H4         -0.3098    4.2227    1.7255 H         1 <1>         0.1467
     33 H5         -1.9464    1.3474   -1.0423 H         1 <1>         0.1472
     34 H6          4.8576   -0.5828    3.1413 H         1 <1>         0.1427
     35 H7          2.4364   -0.2088    1.3434 H         1 <1>         0.1710
     36 H8          6.1978   -4.5225    1.8583 H         1 <1>         0.1808
     37 H9          8.0272    3.6362   -6.3185 H         1 <1>         0.0476
     38 H10         6.6367    3.0162   -7.2290 H         1 <1>         0.0542
     39 H11         7.3797    4.5511   -7.6915 H         1 <1>         0.0481
     40 H12         7.7398    5.6685   -4.7842 H         1 <1>         0.0485
     41 H13         6.1479    6.4332   -4.6325 H         1 <1>         0.0435
     42 H14         7.0949    6.6288   -6.1196 H         1 <1>         0.0456
     43 H15         5.2564    4.9502   -6.4347 H         1 <1>         0.1038
     44 H16         1.2984    3.3811   -1.7860 H         1 <1>         0.2565
     45 H17         2.0346    4.2398   -3.1125 H         1 <1>         0.2466
     46 H18         6.5021    3.1500   -4.4740 H         1 <1>         0.2846
@<TRIPOS>BOND
     1    1    6 1
     2    1    8 2
     3    2    4 ar
     4    2   10 ar
     5    3    5 ar
     6    3   10 ar
     7    4   13 ar
     8    5   13 ar
     9    6   15 2
    10    7   11 ar
    11    7   14 ar
    12    8   26 1
    13    9   11 ar
    14    9   12 1
    15    9   17 ar
    16   10   11 1
    17   12   16 2
    18   12   23 1
    19   13   28 1
    20   14   15 1
    21   14   22 ar
    22   15   26 1
    23   16   18 1
    24   16   27 1
    25   17   22 ar
    26   17   27 1
    27   18   24 am
    28   18   25 2
    29   19   21 1
    30   20   21 1
    31   21   24 1
    32    1   29 1
    33    2   30 1
    34    3   31 1
    35    4   32 1
    36    5   33 1
    37    6   34 1
    38    7   35 1
    39    8   36 1
    40   19   37 1
    41   19   38 1
    42   19   39 1
    43   20   40 1
    44   20   41 1
    45   20   42 1
    46   21   43 1
    47   23   44 1
    48   23   45 1
    49   24   46 1
@<TRIPOS>Similarity
1.5308
@<TRIPOS>ShapeSim
0.8490
@<TRIPOS>PharmSim
0.6818
# END
# Name:		AO-081/14337023
# Created and modified by SHAFTS on Tue Sep 23 17:55:45 2014

# 

@<TRIPOS>MOLECULE
AO-081/14337023
   42    45     0
SMALL
USER_CHARGE


@<TRIPOS>ATOM
      1 C1          1.4187    3.0652    0.3927 C.ar      1 <1>        -0.0651
      2 C2          0.5347    1.0034   -0.5045 C.ar      1 <1>        -0.0652
      3 C3          5.8383   -2.4033    0.7820 C.ar      1 <1>        -0.0433
      4 C4          4.3165   -1.8371    2.5709 C.ar      1 <1>        -0.0433
      5 C5          0.1227    3.5644    0.5227 C.ar      1 <1>        -0.0569
      6 C6         -0.7613    1.5026   -0.3745 C.ar      1 <1>        -0.0578
      7 C7          6.4461   -3.3553    1.6003 C.ar      1 <1>        -0.0522
      8 C8          4.9243   -2.7891    3.3895 C.ar      1 <1>        -0.0523
      9 C9          1.6247    1.7848   -0.1208 C.ar      1 <1>        -0.0352
     10 C10         4.7734   -1.6442    1.2673 C.ar      1 <1>         0.0069
     11 C11        -0.9673    2.7831    0.1391 C.ar      1 <1>        -0.0164
     12 C12         5.9892   -3.5482    2.9040 C.ar      1 <1>        -0.0274
     13 C13         4.0671   -0.7686   -0.9622 C.2       1 <1>         0.1361
     14 C14         3.5657    0.5080    0.9005 C.2       1 <1>         0.1409
     15 C15         3.4490    2.8684   -2.2345 C.2       1 <1>         0.1269
     16 C16         3.3491    0.4269   -1.4782 C.3       1 <1>         0.1346
     17 C17         3.9139    1.8095   -1.3206 C.3       1 <1>         0.1342
     18 C18         3.0090    1.2516   -0.2594 C.3       1 <1>         0.1369
     19 C19         3.3579    2.6105   -5.0679 C.3       1 <1>        -0.0290
     20 C20         4.0917    3.7188   -4.3435 C.3       1 <1>         0.0286
     21 N1          4.1483   -0.6659    0.4258 N.am      1 <1>        -0.2365
     22 O1          4.4301   -1.6466   -1.7273 O.2       1 <1>        -0.4663
     23 O2          3.5018    0.9788    2.0241 O.2       1 <1>        -0.4605
     24 O3          2.3099    3.3149   -2.2428 O.2       1 <1>        -0.4723
     25 O4          4.4751    3.2534   -3.0457 O.3       1 <1>        -0.3992
     26 Cl1        -2.5661    3.3992    0.2992 Cl        1 <1>        -0.1852
     27 Br1         6.8128   -4.8381    4.0128 Br        1 <1>        -0.1323
     28 H1          2.2615    3.6821    0.6934 H         1 <1>         0.1416
     29 H2          0.6848    0.0041   -0.9046 H         1 <1>         0.1447
     30 H3          6.2024   -2.2610   -0.2321 H         1 <1>         0.1590
     31 H4          3.4875   -1.2510    2.9593 H         1 <1>         0.1588
     32 H5         -0.0227    4.5644    0.9230 H         1 <1>         0.1446
     33 H6         -1.6013    0.8822   -0.6763 H         1 <1>         0.1434
     34 H7          7.2745   -3.9388    1.2075 H         1 <1>         0.1545
     35 H8          4.5567   -2.9274    4.4028 H         1 <1>         0.1545
     36 H9          2.5828    0.2527   -2.2242 H         1 <1>         0.2064
     37 H10         4.9693    1.8870   -1.0764 H         1 <1>         0.2072
     38 H11         3.9978    1.7318   -5.1873 H         1 <1>         0.0672
     39 H12         2.4572    2.3196   -4.5172 H         1 <1>         0.0592
     40 H13         3.0311    2.9466   -6.0575 H         1 <1>         0.0594
     41 H14         3.4460    4.5944   -4.2274 H         1 <1>         0.1251
     42 H15         4.9916    4.0076   -4.8945 H         1 <1>         0.1251
@<TRIPOS>BOND
     1    1    5 ar
     2    1    9 ar
     3    2    6 ar
     4    2    9 ar
     5    3    7 ar
     6    3   10 ar
     7    4    8 ar
     8    4   10 ar
     9    5   11 ar
    10    6   11 ar
    11    7   12 ar
    12    8   12 ar
    13    9   18 1
    14   10   21 1
    15   11   26 1
    16   12   27 1
    17   13   16 1
    18   13   21 am
    19   13   22 2
    20   14   18 1
    21   14   21 am
    22   14   23 2
    23   15   17 1
    24   15   24 2
    25   15   25 1
    26   16   17 1
    27   16   18 1
    28   17   18 1
    29   19   20 1
    30   20   25 1
    31    1   28 1
    32    2   29 1
    33    3   30 1
    34    4   31 1
    35    5   32 1
    36    6   33 1
    37    7   34 1
    38    8   35 1
    39   16   36 1
    40   17   37 1
    41   19   38 1
    42   19   39 1
    43   19   40 1
    44   20   41 1
    45   20   42 1
@<TRIPOS>Similarity
1.5299
@<TRIPOS>ShapeSim
0.8087
@<TRIPOS>PharmSim
0.7212
# END
# Name:		AG-205/33125019
# Created and modified by SHAFTS on Tue Sep 23 17:55:45 2014

# 

@<TRIPOS>MOLECULE
AG-205/33125019
   40    42     0
SMALL
USER_CHARGE


@<TRIPOS>ATOM
      1 C1          3.1627    2.7422   -2.1467 C.1       1 <1>         0.0371
      2 C2          5.8744   -3.5138    2.7499 C.ar      1 <1>        -0.0959
      3 C3          5.5113   -2.2996    3.3328 C.ar      1 <1>        -0.0917
      4 C4          5.7539   -3.6892    1.3713 C.ar      1 <1>        -0.0905
      5 C5          5.0279   -1.2610    2.5371 C.ar      1 <1>        -0.0754
      6 C6          5.2705   -2.6505    0.5756 C.ar      1 <1>        -0.0727
      7 C7          0.2803    0.9395   -0.2052 C.ar      1 <1>        -0.0687
      8 C8          1.2578    3.1060    0.2287 C.ar      1 <1>        -0.0672
      9 C9         -0.9928    1.4745   -0.0085 C.ar      1 <1>        -0.0643
     10 C10        -0.0153    3.6410    0.4253 C.ar      1 <1>        -0.0637
     11 C11         3.1412    0.1641    0.5384 C.ar      1 <1>        -0.0223
     12 C12         3.5772    1.6727   -1.2832 C.ar      1 <1>         0.0983
     13 C13         1.4056    1.7553   -0.0865 C.ar      1 <1>        -0.0466
     14 C14         4.9074   -1.4365    1.1585 C.ar      1 <1>        -0.0494
     15 C15         2.7258    1.2001   -0.2906 C.ar      1 <1>         0.0102
     16 C16        -1.1405    2.8253    0.3067 C.ar      1 <1>        -0.0355
     17 C17         4.4072   -0.3612    0.3355 C.ar      1 <1>        -0.0125
     18 C18         4.8238    1.0801   -1.4045 C.ar      1 <1>         0.0531
     19 C19         8.9903   -0.2171   -4.0248 C.2       1 <1>        -0.1177
     20 C20         8.5060    0.7048   -3.1850 C.2       1 <1>        -0.1053
     21 C21         7.3543    0.4681   -2.2618 C.3       1 <1>         0.0138
     22 N1          2.8277    3.6068   -2.8444 N.1       1 <1>        -0.3777
     23 N2          5.2622    0.0717   -0.6180 N.ar      1 <1>        -0.3580
     24 S1          6.0066    1.6056   -2.6442 S.3       1 <1>        -0.1459
     25 Br1        -2.8652    3.5510    0.5724 Br        1 <1>        -0.1379
     26 H1          6.2524   -4.3217    3.3694 H         1 <1>         0.1197
     27 H2          5.6066   -2.1623    4.4059 H         1 <1>         0.1201
     28 H3          6.0377   -4.6338    0.9166 H         1 <1>         0.1203
     29 H4          4.7494   -0.3203    3.0064 H         1 <1>         0.1347
     30 H5          5.1826   -2.8017   -0.4976 H         1 <1>         0.1423
     31 H6          0.3793   -0.1153   -0.4503 H         1 <1>         0.1400
     32 H7          2.1251    3.7548    0.3238 H         1 <1>         0.1453
     33 H8         -1.8594    0.8256   -0.1053 H         1 <1>         0.1449
     34 H9         -0.1131    4.6952    0.6705 H         1 <1>         0.1455
     35 H10         2.4953   -0.2231    1.3218 H         1 <1>         0.1737
     36 H11         9.8287   -0.0048   -4.6789 H         1 <1>         0.0885
     37 H12         8.5479   -1.2064   -4.0688 H         1 <1>         0.0852
     38 H13         8.9598    1.6932   -3.1854 H         1 <1>         0.0973
     39 H14         7.6371    0.6033   -1.2129 H         1 <1>         0.1131
     40 H15         6.9942   -0.5584   -2.3812 H         1 <1>         0.1158
@<TRIPOS>BOND
     1    1   12 1
     2    1   22 3
     3    2    3 ar
     4    2    4 ar
     5    3    5 ar
     6    4    6 ar
     7    5   14 ar
     8    6   14 ar
     9    7    9 ar
    10    7   13 ar
    11    8   10 ar
    12    8   13 ar
    13    9   16 ar
    14   10   16 ar
    15   11   15 ar
    16   11   17 ar
    17   12   15 ar
    18   12   18 ar
    19   13   15 1
    20   14   17 1
    21   16   25 1
    22   17   23 ar
    23   18   23 ar
    24   18   24 1
    25   19   20 2
    26   20   21 1
    27   21   24 1
    28    2   26 1
    29    3   27 1
    30    4   28 1
    31    5   29 1
    32    6   30 1
    33    7   31 1
    34    8   32 1
    35    9   33 1
    36   10   34 1
    37   11   35 1
    38   19   36 1
    39   19   37 1
    40   20   38 1
    41   21   39 1
    42   21   40 1
@<TRIPOS>Similarity
1.5259
@<TRIPOS>ShapeSim
0.9002
@<TRIPOS>PharmSim
0.6257
# END
# Name:		AF-826/30392059
# Created and modified by SHAFTS on Tue Sep 23 17:55:45 2014

# 

@<TRIPOS>MOLECULE
AF-826/30392059
   38    40     0
SMALL
USER_CHARGE


@<TRIPOS>ATOM
      1 C1          1.0231    3.1663    0.5823 C.ar      1 <1>        -0.0527
      2 C2          0.0952    1.5539   -0.9593 C.ar      1 <1>        -0.0509
      3 C3         -0.2250    3.3040    1.1895 C.ar      1 <1>        -0.0504
      4 C4         -1.1529    1.6916   -0.3519 C.ar      1 <1>        -0.0489
      5 C5          3.4181    1.2087   -0.7051 C.ar      1 <1>         0.0395
      6 C6          1.1832    2.2913   -0.4923 C.ar      1 <1>        -0.0256
      7 C7          3.4227    0.2192    0.3278 C.2       1 <1>         0.0350
      8 C8         -1.3130    2.5666    0.7226 C.ar      1 <1>        -0.0098
      9 C9          2.4699    2.1498   -1.1188 C.ar      1 <1>         0.0262
     10 C10         4.5998   -0.4961    0.3680 C.2       1 <1>         0.1060
     11 C11         4.6150    1.1937   -1.4095 C.ar      1 <1>         0.0760
     12 C12         3.9440    2.8532   -2.7410 C.ar      1 <1>         0.0658
     13 C13         4.9894   -1.5561    1.2436 C.2       1 <1>         0.1524
     14 C14         3.0850   -3.0923    4.0058 C.3       1 <1>        -0.0293
     15 C15         5.9284    3.4328   -4.5409 C.3       1 <1>         0.0229
     16 C16         4.2840   -2.9174    3.0984 C.3       1 <1>         0.0297
     17 N1          2.7402    2.9796   -2.1490 N.ar      1 <1>        -0.3290
     18 N2          4.9370    1.9963   -2.4427 N.ar      1 <1>        -0.3154
     19 N3          2.3953   -0.0073    1.1837 N.pl3     1 <1>        -0.3394
     20 O1          6.0879   -2.1572    1.2115 O.2       1 <1>        -0.4703
     21 O2          4.0115   -1.8690    2.1623 O.3       1 <1>        -0.3914
     22 S1          5.7040    0.0160   -0.8339 S.3       1 <1>        -0.0340
     23 S2          4.2618    3.9685   -4.0984 S.3       1 <1>        -0.1154
     24 Cl1        -2.8530    2.7382    1.4714 Cl        1 <1>        -0.1770
     25 H1          1.8616    3.7480    0.9575 H         1 <1>         0.1539
     26 H2          0.2038    0.8683   -1.7966 H         1 <1>         0.1579
     27 H3         -0.3362    3.9909    2.0249 H         1 <1>         0.1494
     28 H4         -1.9923    1.1116   -0.7271 H         1 <1>         0.1515
     29 H5          2.8788   -2.1734    4.5615 H         1 <1>         0.0586
     30 H6          2.1967   -3.3608    3.4244 H         1 <1>         0.0585
     31 H7          3.2562   -3.9055    4.7190 H         1 <1>         0.0656
     32 H8          6.2980    4.0245   -5.3819 H         1 <1>         0.1074
     33 H9          5.9156    2.3779   -4.8257 H         1 <1>         0.1075
     34 H10         6.5992    3.5650   -3.6886 H         1 <1>         0.1195
     35 H11         4.4848   -3.8401    2.5456 H         1 <1>         0.1221
     36 H12         5.1703   -2.6484    3.6807 H         1 <1>         0.1221
     37 H13         1.5430    0.5666    1.1714 H         1 <1>         0.2596
     38 H14         2.4631   -0.6985    1.9410 H         1 <1>         0.2523
@<TRIPOS>BOND
     1    1    3 ar
     2    1    6 ar
     3    2    4 ar
     4    2    6 ar
     5    3    8 ar
     6    4    8 ar
     7    5    7 1
     8    5    9 ar
     9    5   11 ar
    10    6    9 1
    11    7   10 2
    12    7   19 1
    13    8   24 1
    14    9   17 ar
    15   10   13 1
    16   10   22 1
    17   11   18 ar
    18   11   22 1
    19   12   17 ar
    20   12   18 ar
    21   12   23 1
    22   13   20 2
    23   13   21 1
    24   14   16 1
    25   15   23 1
    26   16   21 1
    27    1   25 1
    28    2   26 1
    29    3   27 1
    30    4   28 1
    31   14   29 1
    32   14   30 1
    33   14   31 1
    34   15   32 1
    35   15   33 1
    36   15   34 1
    37   16   35 1
    38   16   36 1
    39   19   37 1
    40   19   38 1
@<TRIPOS>Similarity
1.5255
@<TRIPOS>ShapeSim
0.8447
@<TRIPOS>PharmSim
0.6809
# END
# Name:		AO-476/14976017
# Created and modified by SHAFTS on Tue Sep 23 17:55:45 2014

# 

@<TRIPOS>MOLECULE
AO-476/14976017
   28    30     0
SMALL
USER_CHARGE


@<TRIPOS>ATOM
      1 C1          5.5843   -3.2512    2.6474 C.ar      1 <1>        -0.0823
      2 C2          4.7114   -2.2436    3.0579 C.ar      1 <1>        -0.0744
      3 C3          6.1224   -3.2263    1.3607 C.ar      1 <1>        -0.0752
      4 C4          4.3767   -1.2112    2.1819 C.ar      1 <1>        -0.0492
      5 C5          5.7875   -2.1939    0.4846 C.ar      1 <1>        -0.0508
      6 C6          4.8061    1.2277   -1.5507 C.2       1 <1>         0.0688
      7 C7          1.3724    1.2170    0.4940 C.ar      1 <1>         0.0967
      8 C8          3.5159    1.4608   -1.0285 C.ar      1 <1>         0.0849
      9 C9          4.9147   -1.1863    0.8951 C.ar      1 <1>        -0.0017
     10 C10         3.4045    0.5363   -0.0020 C.ar      1 <1>         0.0995
     11 C11         2.4526    2.3175   -1.2892 C.ar      1 <1>         0.0722
     12 N1          5.4573    0.2473   -0.9164 N.2       1 <1>        -0.2964
     13 N2          2.3532    0.3524    0.8114 N.ar      1 <1>        -0.2800
     14 N3          4.5797   -0.1539    0.0201 N.pl3     1 <1>        -0.2632
     15 N4          1.4041    2.1358   -0.4788 N.ar      1 <1>        -0.3110
     16 N5          2.4603    3.2839   -2.3053 N.pl3     1 <1>        -0.2957
     17 N6          0.2075    2.9804   -0.6500 N.pl3     1 <1>        -0.2948
     18 H1          5.8467   -4.0544    3.3298 H         1 <1>         0.1351
     19 H2          4.2934   -2.2621    4.0601 H         1 <1>         0.1396
     20 H3          6.8032   -4.0106    1.0422 H         1 <1>         0.1390
     21 H4          3.6957   -0.4316    2.5148 H         1 <1>         0.1573
     22 H5          6.2147   -2.1863   -0.5153 H         1 <1>         0.1527
     23 H6          5.3008    1.7323   -2.3685 H         1 <1>         0.2955
     24 H7          0.4681    1.1605    1.0908 H         1 <1>         0.3932
     25 H8          3.2866    3.4133   -2.8603 H         1 <1>         0.3155
     26 H9          1.6755    3.9016   -2.4077 H         1 <1>         0.3032
     27 H10        -0.5980    2.4252   -0.3847 H         1 <1>         0.3058
     28 H11         0.1366    3.2120   -1.6344 H         1 <1>         0.3157
@<TRIPOS>BOND
     1    1    2 ar
     2    1    3 ar
     3    2    4 ar
     4    3    5 ar
     5    4    9 ar
     6    5    9 ar
     7    6    8 1
     8    6   12 2
     9    7   13 ar
    10    7   15 ar
    11    8   10 ar
    12    8   11 ar
    13    9   14 1
    14   10   13 ar
    15   10   14 1
    16   11   15 ar
    17   11   16 1
    18   12   14 1
    19   15   17 1
    20    1   18 1
    21    2   19 1
    22    3   20 1
    23    4   21 1
    24    5   22 1
    25    6   23 1
    26    7   24 1
    27   16   25 1
    28   16   26 1
    29   17   27 1
    30   17   28 1
@<TRIPOS>Similarity
1.5233
@<TRIPOS>ShapeSim
0.8188
@<TRIPOS>PharmSim
0.7046
# END
# Name:		AN-989/42063253
# Created and modified by SHAFTS on Tue Sep 23 17:55:45 2014

# 

@<TRIPOS>MOLECULE
AN-989/42063253
   36    39     0
SMALL
USER_CHARGE


@<TRIPOS>ATOM
      1 C1          4.4645   -1.4340    2.3623 C.ar      1 <1>        -0.0653
      2 C2          5.8180   -2.2529    0.5362 C.ar      1 <1>        -0.0693
      3 C3          0.1496    1.0287   -0.2253 C.ar      1 <1>        -0.0419
      4 C4          1.1023    3.1980    0.2476 C.ar      1 <1>        -0.0455
      5 C5          4.9209   -2.4769    3.1682 C.ar      1 <1>        -0.0896
      6 C6          6.2743   -3.2959    1.3422 C.ar      1 <1>        -0.0917
      7 C7         -1.1298    1.5471   -0.0255 C.ar      1 <1>        -0.0232
      8 C8         -0.1771    3.7164    0.4473 C.ar      1 <1>        -0.0240
      9 C9          4.3794    2.8148   -2.8863 C.2       1 <1>         0.0662
     10 C10         1.2657    1.8542   -0.0886 C.ar      1 <1>        -0.0228
     11 C11         4.9130   -1.3220    1.0463 C.ar      1 <1>        -0.0340
     12 C12         5.8258   -3.4078    2.6582 C.ar      1 <1>        -0.1060
     13 C13        -1.2932    2.8909    0.3108 C.ar      1 <1>         0.0520
     14 C14         4.7331    1.2600   -1.5214 C.2       1 <1>         0.0944
     15 C15         3.0477    0.2965    0.4759 C.2       1 <1>         0.0052
     16 C16         2.6181    1.3067   -0.2997 C.2       1 <1>         0.0289
     17 C17         4.4276   -0.2103    0.1863 C.2       1 <1>         0.0229
     18 C18         6.3144   -4.5223    3.5209 C.3       1 <1>        -0.0411
     19 N1          5.3100    1.8976   -2.5201 N.2       1 <1>        -0.3036
     20 N2          3.2480    2.8041   -2.1883 N.2       1 <1>        -0.3042
     21 N3          5.2059    0.2370   -0.7568 N.2       1 <1>        -0.3118
     22 N4          3.4618    1.7965   -1.3028 N.pl3     1 <1>        -0.2567
     23 F1         -2.5218    3.3893    0.5010 F         1 <1>        -0.3349
     24 H1          3.7596   -0.7138    2.7694 H         1 <1>         0.1516
     25 H2          6.1742   -2.1755   -0.4877 H         1 <1>         0.1399
     26 H3          0.2611   -0.0208   -0.4873 H         1 <1>         0.1715
     27 H4          1.9625    3.8542    0.3577 H         1 <1>         0.1575
     28 H5          4.5664   -2.5563    4.1924 H         1 <1>         0.1243
     29 H6          6.9798   -4.0165    0.9368 H         1 <1>         0.1230
     30 H7         -1.9990    0.9049   -0.1319 H         1 <1>         0.1591
     31 H8         -0.3045    4.7628    0.7089 H         1 <1>         0.1600
     32 H9          4.5288    3.5191   -3.6911 H         1 <1>         0.3274
     33 H10         2.4642   -0.1452    1.2750 H         1 <1>         0.1986
     34 H11         5.6569   -5.3950    3.4257 H         1 <1>         0.0631
     35 H12         7.3334   -4.8224    3.2447 H         1 <1>         0.0601
     36 H13         6.3463   -4.2239    4.5769 H         1 <1>         0.0602
@<TRIPOS>BOND
     1    1    5 ar
     2    1   11 ar
     3    2    6 ar
     4    2   11 ar
     5    3    7 ar
     6    3   10 ar
     7    4    8 ar
     8    4   10 ar
     9    5   12 ar
    10    6   12 ar
    11    7   13 ar
    12    8   13 ar
    13    9   19 1
    14    9   20 2
    15   10   16 1
    16   11   17 1
    17   12   18 1
    18   13   23 1
    19   14   19 2
    20   14   21 1
    21   14   22 1
    22   15   16 2
    23   15   17 1
    24   16   22 1
    25   17   21 2
    26   20   22 1
    27    1   24 1
    28    2   25 1
    29    3   26 1
    30    4   27 1
    31    5   28 1
    32    6   29 1
    33    7   30 1
    34    8   31 1
    35    9   32 1
    36   15   33 1
    37   18   34 1
    38   18   35 1
    39   18   36 1
@<TRIPOS>Similarity
1.5228
@<TRIPOS>ShapeSim
0.9347
@<TRIPOS>PharmSim
0.5881
# END
# Name:		AG-690/40749964
# Created and modified by SHAFTS on Tue Sep 23 17:55:45 2014

# 

@<TRIPOS>MOLECULE
AG-690/40749964
   45    47     0
SMALL
USER_CHARGE


@<TRIPOS>ATOM
      1 C1          3.0716    2.9063   -2.2631 C.1       1 <1>         0.0363
      2 C2          5.0341   -1.1063    2.3728 C.ar      1 <1>        -0.0724
      3 C3          5.2693   -2.4800    0.3993 C.ar      1 <1>        -0.0752
      4 C4          0.2312    1.0593   -0.3011 C.ar      1 <1>        -0.0667
      5 C5          1.1897    3.2334    0.1366 C.ar      1 <1>        -0.0653
      6 C6          5.5378   -2.1450    3.1558 C.ar      1 <1>        -0.0935
      7 C7          5.7729   -3.5187    1.1823 C.ar      1 <1>        -0.0947
      8 C8         -1.0453    1.5789   -0.0859 C.ar      1 <1>        -0.0562
      9 C9         -0.0866    3.7529    0.3517 C.ar      1 <1>        -0.0556
     10 C10         3.1090    0.3108    0.4049 C.ar      1 <1>        -0.0230
     11 C11         3.5076    1.8360   -1.4115 C.ar      1 <1>         0.0971
     12 C12         1.3488    1.8866   -0.1897 C.ar      1 <1>        -0.0468
     13 C13         4.8999   -1.2738    0.9946 C.ar      1 <1>        -0.0489
     14 C14         2.6729    1.3476   -0.4125 C.ar      1 <1>         0.0093
     15 C15         5.9072   -3.3511    2.5606 C.ar      1 <1>        -0.1087
     16 C16        -1.2043    2.9257    0.2405 C.ar      1 <1>        -0.0144
     17 C17         4.3783   -0.1990    0.1843 C.ar      1 <1>        -0.0124
     18 C18         4.7592    1.2581   -1.5506 C.ar      1 <1>         0.0499
     19 C19         6.4455   -4.4618    3.3977 C.3       1 <1>        -0.0425
     20 C20         6.7332    3.0491   -0.5139 C.3       1 <1>        -0.0445
     21 C21         8.0975    1.0919   -1.3195 C.3       1 <1>        -0.0429
     22 C22         7.2828    2.3128   -1.7298 C.3       1 <1>        -0.0051
     23 N1          2.7191    3.7716   -2.9513 N.1       1 <1>        -0.3786
     24 N2          5.2177    0.2495   -0.7759 N.ar      1 <1>        -0.3581
     25 S1          5.9219    1.8047   -2.8003 S.3       1 <1>        -0.1575
     26 Cl1        -2.7796    3.5656    0.5074 Cl        1 <1>        -0.1814
     27 H1          4.7499   -0.1723    2.8517 H         1 <1>         0.1440
     28 H2          5.1712   -2.6257   -0.6739 H         1 <1>         0.1359
     29 H3          0.3389    0.0074   -0.5546 H         1 <1>         0.1407
     30 H4          2.0513    3.8909    0.2279 H         1 <1>         0.1459
     31 H5          5.6379   -2.0060    4.2290 H         1 <1>         0.1201
     32 H6          6.0589   -4.4549    0.7101 H         1 <1>         0.1201
     33 H7         -1.9076    0.9225   -0.1741 H         1 <1>         0.1468
     34 H8         -0.1956    4.8042    0.6066 H         1 <1>         0.1474
     35 H9          2.4765   -0.0887    1.1930 H         1 <1>         0.1724
     36 H10         5.6297   -5.1056    3.7485 H         1 <1>         0.0615
     37 H11         7.1568   -5.0781    2.8327 H         1 <1>         0.0588
     38 H12         6.9850   -4.0758    4.2727 H         1 <1>         0.0586
     39 H13         6.0922    2.3843    0.0760 H         1 <1>         0.0470
     40 H14         7.5402    3.3912    0.1435 H         1 <1>         0.0538
     41 H15         6.1304    3.9184   -0.8003 H         1 <1>         0.0442
     42 H16         7.4775    0.3971   -0.7420 H         1 <1>         0.0492
     43 H17         8.9468    1.3733   -0.6871 H         1 <1>         0.0558
     44 H18         8.4815    0.5458   -2.1886 H         1 <1>         0.0492
     45 H19         7.9196    2.9935   -2.3048 H         1 <1>         0.1002
@<TRIPOS>BOND
     1    1   11 1
     2    1   23 3
     3    2    6 ar
     4    2   13 ar
     5    3    7 ar
     6    3   13 ar
     7    4    8 ar
     8    4   12 ar
     9    5    9 ar
    10    5   12 ar
    11    6   15 ar
    12    7   15 ar
    13    8   16 ar
    14    9   16 ar
    15   10   14 ar
    16   10   17 ar
    17   11   14 ar
    18   11   18 ar
    19   12   14 1
    20   13   17 1
    21   15   19 1
    22   16   26 1
    23   17   24 ar
    24   18   24 ar
    25   18   25 1
    26   20   22 1
    27   21   22 1
    28   22   25 1
    29    2   27 1
    30    3   28 1
    31    4   29 1
    32    5   30 1
    33    6   31 1
    34    7   32 1
    35    8   33 1
    36    9   34 1
    37   10   35 1
    38   19   36 1
    39   19   37 1
    40   19   38 1
    41   20   39 1
    42   20   40 1
    43   20   41 1
    44   21   42 1
    45   21   43 1
    46   21   44 1
    47   22   45 1
@<TRIPOS>Similarity
1.5222
@<TRIPOS>ShapeSim
0.9050
@<TRIPOS>PharmSim
0.6172
# END
# Name:		AG-690/40750127
# Created and modified by SHAFTS on Tue Sep 23 17:55:45 2014

# 

@<TRIPOS>MOLECULE
AG-690/40750127
   42    44     0
SMALL
USER_CHARGE


@<TRIPOS>ATOM
      1 C1          3.0716    2.9063   -2.2631 C.1       1 <1>         0.0363
      2 C2          4.4897   -1.4095    2.3209 C.ar      1 <1>        -0.0751
      3 C3          5.8136   -2.1768    0.4513 C.ar      1 <1>        -0.0725
      4 C4          0.2311    1.0593   -0.3010 C.ar      1 <1>        -0.0667
      5 C5          1.1897    3.2334    0.1365 C.ar      1 <1>        -0.0652
      6 C6          4.9934   -2.4482    3.1038 C.ar      1 <1>        -0.0946
      7 C7          6.3174   -3.2155    1.2342 C.ar      1 <1>        -0.0934
      8 C8         -1.0453    1.5789   -0.0859 C.ar      1 <1>        -0.0561
      9 C9         -0.0866    3.7530    0.3516 C.ar      1 <1>        -0.0556
     10 C10         3.1090    0.3108    0.4050 C.ar      1 <1>        -0.0231
     11 C11         3.5076    1.8360   -1.4115 C.ar      1 <1>         0.0967
     12 C12         1.3488    1.8866   -0.1898 C.ar      1 <1>        -0.0468
     13 C13         4.8999   -1.2738    0.9946 C.ar      1 <1>        -0.0490
     14 C14         2.6729    1.3475   -0.4125 C.ar      1 <1>         0.0092
     15 C15         5.9073   -3.3512    2.5606 C.ar      1 <1>        -0.1086
     16 C16        -1.2043    2.9257    0.2404 C.ar      1 <1>        -0.0143
     17 C17         4.3783   -0.1990    0.1843 C.ar      1 <1>        -0.0130
     18 C18         4.7592    1.2579   -1.5507 C.ar      1 <1>         0.0491
     19 C19         6.4455   -4.4619    3.3976 C.3       1 <1>        -0.0424
     20 C20         5.6871    1.3713   -5.4906 C.3       1 <1>        -0.0417
     21 C21         5.4365    0.7086   -4.1493 C.3       1 <1>         0.0003
     22 N1          2.7191    3.7715   -2.9515 N.1       1 <1>        -0.3784
     23 N2          5.2177    0.2495   -0.7759 N.ar      1 <1>        -0.3593
     24 S1          5.9219    1.8045   -2.8003 S.3       1 <1>        -0.1561
     25 Cl1        -2.7795    3.5657    0.5073 Cl        1 <1>        -0.1813
     26 H1          3.7776   -0.7140    2.7587 H         1 <1>         0.1361
     27 H2          6.1435   -2.0839   -0.5807 H         1 <1>         0.1437
     28 H3          0.3389    0.0074   -0.5546 H         1 <1>         0.1408
     29 H4          2.0513    3.8909    0.2277 H         1 <1>         0.1460
     30 H5          4.6675   -2.5469    4.1359 H         1 <1>         0.1203
     31 H6          7.0294   -3.9142    0.8030 H         1 <1>         0.1204
     32 H7         -1.9076    0.9225   -0.1740 H         1 <1>         0.1470
     33 H8         -0.1956    4.8042    0.6065 H         1 <1>         0.1475
     34 H9          2.4765   -0.0886    1.1931 H         1 <1>         0.1726
     35 H10         5.8077   -5.3499    3.3102 H         1 <1>         0.0616
     36 H11         7.4642   -4.7338    3.0917 H         1 <1>         0.0588
     37 H12         6.4981   -4.1740    4.4558 H         1 <1>         0.0587
     38 H13         5.1225    2.3046   -5.5896 H         1 <1>         0.0485
     39 H14         6.7500    1.5896   -5.6393 H         1 <1>         0.0553
     40 H15         5.3695    0.7056   -6.3001 H         1 <1>         0.0485
     41 H16         6.0094   -0.2203   -4.0724 H         1 <1>         0.0980
     42 H17         4.3757    0.4638   -4.0399 H         1 <1>         0.0980
@<TRIPOS>BOND
     1    1   11 1
     2    1   22 3
     3    2    6 ar
     4    2   13 ar
     5    3    7 ar
     6    3   13 ar
     7    4    8 ar
     8    4   12 ar
     9    5    9 ar
    10    5   12 ar
    11    6   15 ar
    12    7   15 ar
    13    8   16 ar
    14    9   16 ar
    15   10   14 ar
    16   10   17 ar
    17   11   14 ar
    18   11   18 ar
    19   12   14 1
    20   13   17 1
    21   15   19 1
    22   16   25 1
    23   17   23 ar
    24   18   23 ar
    25   18   24 1
    26   20   21 1
    27   21   24 1
    28    2   26 1
    29    3   27 1
    30    4   28 1
    31    5   29 1
    32    6   30 1
    33    7   31 1
    34    8   32 1
    35    9   33 1
    36   10   34 1
    37   19   35 1
    38   19   36 1
    39   19   37 1
    40   20   38 1
    41   20   39 1
    42   20   40 1
    43   21   41 1
    44   21   42 1
@<TRIPOS>Similarity
1.5205
@<TRIPOS>ShapeSim
0.9090
@<TRIPOS>PharmSim
0.6115
# END
# Name:		AG-690/40749461
# Created and modified by SHAFTS on Tue Sep 23 17:55:45 2014

# 

@<TRIPOS>MOLECULE
AG-690/40749461
   40    42     0
SMALL
USER_CHARGE


@<TRIPOS>ATOM
      1 C1          3.0868    2.7707   -2.1326 C.1       1 <1>         0.0355
      2 C2          5.0242   -1.2389    2.5168 C.ar      1 <1>        -0.0549
      3 C3          5.2610   -2.6167    0.5464 C.ar      1 <1>        -0.0628
      4 C4          1.1754    2.8269    0.8185 C.ar      1 <1>        -0.0654
      5 C5          0.2590    1.2179   -0.7333 C.ar      1 <1>        -0.0667
      6 C6          5.5228   -2.2775    3.3030 C.ar      1 <1>        -0.0534
      7 C7          5.7596   -3.6554    1.3327 C.ar      1 <1>        -0.0617
      8 C8         -0.1001    3.3513    1.0281 C.ar      1 <1>        -0.0557
      9 C9         -1.0165    1.7421   -0.5237 C.ar      1 <1>        -0.0561
     10 C10         3.1089    0.1804    0.5406 C.ar      1 <1>        -0.0239
     11 C11         3.5172    1.7008   -1.2776 C.ar      1 <1>         0.0960
     12 C12         1.3551    1.7602   -0.0622 C.ar      1 <1>        -0.0469
     13 C13         4.8932   -1.4085    1.1385 C.ar      1 <1>        -0.0427
     14 C14         2.6782    1.2168   -0.2801 C.ar      1 <1>         0.0086
     15 C15         5.8905   -3.4857    2.7110 C.ar      1 <1>        -0.0353
     16 C16        -1.1959    2.8089    0.3570 C.ar      1 <1>        -0.0145
     17 C17         4.3773   -0.3337    0.3246 C.ar      1 <1>        -0.0128
     18 C18         4.7674    1.1188   -1.4122 C.ar      1 <1>         0.0487
     19 C19         6.4856   -4.2573    4.8804 C.3       1 <1>         0.0114
     20 C20         7.2955    0.5314   -2.2938 C.3       1 <1>         0.0057
     21 N1          2.7388    3.6357   -2.8236 N.1       1 <1>        -0.3790
     22 N2          5.2207    0.1105   -0.6341 N.ar      1 <1>        -0.3602
     23 O1          6.3775   -4.4987    3.4783 O.3       1 <1>        -0.4624
     24 S1          5.9353    1.6595   -2.6595 S.3       1 <1>        -0.1540
     25 Cl1        -2.7691    3.4573    0.6151 Cl        1 <1>        -0.1816
     26 H1          4.7419   -0.3028    2.9928 H         1 <1>         0.1592
     27 H2          5.1649   -2.7644   -0.5266 H         1 <1>         0.1445
     28 H3          2.0199    3.2608    1.3489 H         1 <1>         0.1459
     29 H4          0.3829    0.3868   -1.4238 H         1 <1>         0.1409
     30 H5          5.6227   -2.1393    4.3761 H         1 <1>         0.1466
     31 H6          6.0446   -4.5943    0.8659 H         1 <1>         0.1300
     32 H7         -0.2254    4.1838    1.7159 H         1 <1>         0.1473
     33 H8         -1.8613    1.3103   -1.0544 H         1 <1>         0.1469
     34 H9          2.4729   -0.2156    1.3276 H         1 <1>         0.1714
     35 H10         6.8872   -5.1456    5.3739 H         1 <1>         0.1098
     36 H11         5.5000   -4.0160    5.2866 H         1 <1>         0.1332
     37 H12         7.1615   -3.4148    5.0450 H         1 <1>         0.1098
     38 H13         8.1274    0.7182   -2.9772 H         1 <1>         0.0974
     39 H14         6.9622   -0.5025   -2.4125 H         1 <1>         0.0974
     40 H15         7.6360    0.6816   -1.2665 H         1 <1>         0.1038
@<TRIPOS>BOND
     1    1   11 1
     2    1   21 3
     3    2    6 ar
     4    2   13 ar
     5    3    7 ar
     6    3   13 ar
     7    4    8 ar
     8    4   12 ar
     9    5    9 ar
    10    5   12 ar
    11    6   15 ar
    12    7   15 ar
    13    8   16 ar
    14    9   16 ar
    15   10   14 ar
    16   10   17 ar
    17   11   14 ar
    18   11   18 ar
    19   12   14 1
    20   13   17 1
    21   15   23 1
    22   16   25 1
    23   17   22 ar
    24   18   22 ar
    25   18   24 1
    26   19   23 1
    27   20   24 1
    28    2   26 1
    29    3   27 1
    30    4   28 1
    31    5   29 1
    32    6   30 1
    33    7   31 1
    34    8   32 1
    35    9   33 1
    36   10   34 1
    37   19   35 1
    38   19   36 1
    39   19   37 1
    40   20   38 1
    41   20   39 1
    42   20   40 1
@<TRIPOS>Similarity
1.5179
@<TRIPOS>ShapeSim
0.9004
@<TRIPOS>PharmSim
0.6175
# END
# Name:		AH-487/40652383
# Created and modified by SHAFTS on Tue Sep 23 17:55:45 2014

# 

@<TRIPOS>MOLECULE
AH-487/40652383
   40    43     0
SMALL
USER_CHARGE


@<TRIPOS>ATOM
      1 C1          5.9449   -3.0824    2.2615 C.ar      1 <1>        -0.0897
      2 C2          6.1340   -2.7956    0.9096 C.ar      1 <1>        -0.0809
      3 C3          5.0105   -2.3601    3.0037 C.ar      1 <1>        -0.0804
      4 C4         -0.6708    3.4534    1.2613 C.ar      1 <1>        -0.0740
      5 C5          0.5940    2.8891    1.0965 C.ar      1 <1>        -0.0581
      6 C6          5.3887   -1.7864    0.3001 C.ar      1 <1>        -0.0547
      7 C7          4.2652   -1.3509    2.3940 C.ar      1 <1>        -0.0541
      8 C8         -1.7633    2.9310    0.5689 C.ar      1 <1>        -0.0645
      9 C9         -0.3260    1.2798   -0.4530 C.ar      1 <1>        -0.0408
     10 C10         4.4069    2.4840   -2.6232 C.ar      1 <1>        -0.0027
     11 C11         3.0519    1.5785   -0.8799 C.ar      1 <1>         0.0650
     12 C12         0.7665    1.8023    0.2393 C.ar      1 <1>        -0.0181
     13 C13         3.1994    2.4989   -1.9249 C.ar      1 <1>         0.1061
     14 C14         4.4543   -1.0641    1.0421 C.ar      1 <1>        -0.0085
     15 C15        -1.5908    1.8443   -0.2882 C.ar      1 <1>        -0.0282
     16 C16         2.0743    1.2211    0.0699 C.2       1 <1>         0.0469
     17 C17         5.3876    1.5702   -2.2519 C.ar      1 <1>        -0.0247
     18 C18         4.1095    0.7225   -0.6142 C.ar      1 <1>         0.0571
     19 C19         6.6765    1.5658   -3.0102 C.3       1 <1>        -0.0023
     20 C20         2.1442    3.4785   -2.3202 C.3       1 <1>         0.3536
     21 N1          2.4697    0.2265    0.8715 N.2       1 <1>        -0.3068
     22 N2          5.2923    0.6622   -1.2505 N.ar      1 <1>        -0.3577
     23 N3          3.7095   -0.0555    0.4318 N.pl3     1 <1>        -0.2783
     24 F1          2.5059    4.2784   -3.3658 F         1 <1>        -0.2089
     25 F2          0.9735    2.8922   -2.7069 F         1 <1>        -0.2075
     26 F3          1.8122    4.3280   -1.3056 F         1 <1>        -0.2070
     27 Br1        -3.0712    1.1356   -1.2255 Br        1 <1>        -0.1363
     28 H1          6.5236   -3.8692    2.7363 H         1 <1>         0.1219
     29 H2          6.8605   -3.3586    0.3313 H         1 <1>         0.1300
     30 H3          4.8628   -2.5851    4.0561 H         1 <1>         0.1309
     31 H4         -0.8049    4.2993    1.9293 H         1 <1>         0.1368
     32 H5          1.4359    3.3078    1.6430 H         1 <1>         0.1547
     33 H6          5.5453   -1.5735   -0.7547 H         1 <1>         0.1496
     34 H7          3.5396   -0.7962    2.9840 H         1 <1>         0.1509
     35 H8         -2.7422    3.3824    0.7087 H         1 <1>         0.1453
     36 H9         -0.1907    0.4316   -1.1214 H         1 <1>         0.1616
     37 H10         4.5780    3.1762   -3.4429 H         1 <1>         0.1782
     38 H11         7.3921    2.2510   -2.5429 H         1 <1>         0.1000
     39 H12         7.1161    0.5619   -3.0349 H         1 <1>         0.0981
     40 H13         6.5226    1.8745   -4.0509 H         1 <1>         0.0978
@<TRIPOS>BOND
     1    1    2 ar
     2    1    3 ar
     3    2    6 ar
     4    3    7 ar
     5    4    5 ar
     6    4    8 ar
     7    5   12 ar
     8    6   14 ar
     9    7   14 ar
    10    8   15 ar
    11    9   12 ar
    12    9   15 ar
    13   10   13 ar
    14   10   17 ar
    15   11   13 ar
    16   11   16 1
    17   11   18 ar
    18   12   16 1
    19   13   20 1
    20   14   23 1
    21   15   27 1
    22   16   21 2
    23   17   19 1
    24   17   22 ar
    25   18   22 ar
    26   18   23 1
    27   20   24 1
    28   20   25 1
    29   20   26 1
    30   21   23 1
    31    1   28 1
    32    2   29 1
    33    3   30 1
    34    4   31 1
    35    5   32 1
    36    6   33 1
    37    7   34 1
    38    8   35 1
    39    9   36 1
    40   10   37 1
    41   19   38 1
    42   19   39 1
    43   19   40 1
@<TRIPOS>Similarity
1.5174
@<TRIPOS>ShapeSim
0.8720
@<TRIPOS>PharmSim
0.6453
# END
# Name:		AG-927/42926101
# Created and modified by SHAFTS on Tue Sep 23 17:55:45 2014

# 

@<TRIPOS>MOLECULE
AG-927/42926101
   29    31     0
SMALL
USER_CHARGE


@<TRIPOS>ATOM
      1 C1         -1.2744    3.0781    0.1228 C.ar      1 <1>        -0.0951
      2 C2          6.0007   -3.2291    2.3770 C.ar      1 <1>        -0.0880
      3 C3         -0.1075    3.8241    0.2880 C.ar      1 <1>        -0.0898
      4 C4         -1.1966    1.7085   -0.1298 C.ar      1 <1>        -0.0895
      5 C5          5.7611   -3.3441    1.0077 C.ar      1 <1>        -0.0790
      6 C6          5.5891   -2.0868    3.0636 C.ar      1 <1>        -0.0805
      7 C7          1.1373    3.2005    0.2005 C.ar      1 <1>        -0.0698
      8 C8          0.0479    1.0849   -0.2174 C.ar      1 <1>        -0.0695
      9 C9          5.1101   -2.3166    0.3250 C.ar      1 <1>        -0.0545
     10 C10         4.9381   -1.0594    2.3809 C.ar      1 <1>        -0.0572
     11 C11         1.2149    1.8309   -0.0521 C.ar      1 <1>        -0.0299
     12 C12         4.6986   -1.1742    1.0116 C.ar      1 <1>        -0.0112
     13 C13         3.5348    1.4704   -1.0501 C.2       1 <1>         0.0929
     14 C14         2.4963    1.1888   -0.1424 C.2       1 <1>         0.0494
     15 C15         4.5305    0.5846   -0.7182 C.2       1 <1>         0.1156
     16 N1          2.8036    0.2009    0.7025 N.2       1 <1>        -0.3125
     17 N2          4.0466   -0.1457    0.3271 N.pl3     1 <1>        -0.2718
     18 Cl1         3.5377    2.6452   -2.2722 Cl        1 <1>        -0.1226
     19 Cl2         6.0808    0.3193   -1.3618 Cl        1 <1>        -0.0685
     20 H1         -2.2436    3.5633    0.1920 H         1 <1>         0.1196
     21 H2          6.5060   -4.0296    2.9094 H         1 <1>         0.1256
     22 H3         -0.1678    4.8902    0.4859 H         1 <1>         0.1211
     23 H4         -2.1055    1.1277   -0.2572 H         1 <1>         0.1221
     24 H5          6.0803   -4.2339    0.4731 H         1 <1>         0.1334
     25 H6          5.7747   -1.9986    4.1302 H         1 <1>         0.1326
     26 H7          2.0379    3.7959    0.3318 H         1 <1>         0.1382
     27 H8          0.0916    0.0163   -0.4148 H         1 <1>         0.1390
     28 H9          4.9289   -2.4192   -0.7423 H         1 <1>         0.1536
     29 H10         4.6220   -0.1747    2.9284 H         1 <1>         0.1464
@<TRIPOS>BOND
     1    1    3 ar
     2    1    4 ar
     3    2    5 ar
     4    2    6 ar
     5    3    7 ar
     6    4    8 ar
     7    5    9 ar
     8    6   10 ar
     9    7   11 ar
    10    8   11 ar
    11    9   12 ar
    12   10   12 ar
    13   11   14 1
    14   12   17 1
    15   13   14 1
    16   13   15 2
    17   13   18 1
    18   14   16 2
    19   15   17 1
    20   15   19 1
    21   16   17 1
    22    1   20 1
    23    2   21 1
    24    3   22 1
    25    4   23 1
    26    5   24 1
    27    6   25 1
    28    7   26 1
    29    8   27 1
    30    9   28 1
    31   10   29 1
@<TRIPOS>Similarity
1.5129
@<TRIPOS>ShapeSim
0.9113
@<TRIPOS>PharmSim
0.6016
# END
# Name:		AG-690/40749470
# Created and modified by SHAFTS on Tue Sep 23 17:55:45 2014

# 

@<TRIPOS>MOLECULE
AG-690/40749470
   46    48     0
SMALL
USER_CHARGE


@<TRIPOS>ATOM
      1 C1          3.0872    2.7708   -2.1330 C.1       1 <1>         0.0356
      2 C2          5.0239   -1.2387    2.5167 C.ar      1 <1>        -0.0629
      3 C3          5.2608   -2.6166    0.5463 C.ar      1 <1>        -0.0549
      4 C4          0.2354    0.9365   -0.1758 C.ar      1 <1>        -0.0668
      5 C5          1.1993    3.1085    0.2603 C.ar      1 <1>        -0.0654
      6 C6          5.5224   -2.2773    3.3030 C.ar      1 <1>        -0.0618
      7 C7          5.7594   -3.6553    1.3327 C.ar      1 <1>        -0.0536
      8 C8         -1.0401    1.4603    0.0346 C.ar      1 <1>        -0.0562
      9 C9         -0.0761    3.6323    0.4707 C.ar      1 <1>        -0.0557
     10 C10         3.1089    0.1806    0.5402 C.ar      1 <1>        -0.0239
     11 C11         3.5175    1.7010   -1.2779 C.ar      1 <1>         0.0966
     12 C12         1.3552    1.7606   -0.0628 C.ar      1 <1>        -0.0470
     13 C13         4.8931   -1.4084    1.1384 C.ar      1 <1>        -0.0426
     14 C14         2.6784    1.2170   -0.2805 C.ar      1 <1>         0.0088
     15 C15         5.8901   -3.4855    2.7110 C.ar      1 <1>        -0.0354
     16 C16        -1.1959    2.8082    0.3578 C.ar      1 <1>        -0.0145
     17 C17         4.3773   -0.3336    0.3244 C.ar      1 <1>        -0.0123
     18 C18         4.7677    1.1189   -1.4123 C.ar      1 <1>         0.0494
     19 C19         8.2029    0.4074   -3.5120 C.3       1 <1>        -0.0445
     20 C20         8.0646    1.0308   -1.0762 C.3       1 <1>        -0.0429
     21 C21         6.7338   -5.7070    2.8087 C.3       1 <1>         0.0114
     22 C22         7.2958    0.5313   -2.2936 C.3       1 <1>        -0.0050
     23 N1          2.7394    3.6359   -2.8240 N.1       1 <1>        -0.3793
     24 N2          5.2208    0.1105   -0.6342 N.ar      1 <1>        -0.3588
     25 O1          6.3769   -4.4985    3.4784 O.3       1 <1>        -0.4625
     26 S1          5.9359    1.6595   -2.6596 S.3       1 <1>        -0.1576
     27 Cl1        -2.7700    3.4535    0.6188 Cl        1 <1>        -0.1816
     28 H1          4.7416   -0.3027    2.9926 H         1 <1>         0.1443
     29 H2          5.1650   -2.7643   -0.5267 H         1 <1>         0.1593
     30 H3          0.3407   -0.1164   -0.4269 H         1 <1>         0.1407
     31 H4          2.0626    3.7635    0.3529 H         1 <1>         0.1458
     32 H5          5.6222   -2.1392    4.3762 H         1 <1>         0.1299
     33 H6          6.0444   -4.5942    0.8661 H         1 <1>         0.1463
     34 H7         -1.9041    0.8064   -0.0548 H         1 <1>         0.1468
     35 H8         -0.1827    4.6844    0.7231 H         1 <1>         0.1472
     36 H9          2.4728   -0.2154    1.3272 H         1 <1>         0.1709
     37 H10         8.6484    1.3786   -3.7551 H         1 <1>         0.0441
     38 H11         9.0263   -0.2914   -3.3266 H         1 <1>         0.0472
     39 H12         7.6544    0.0663   -4.3973 H         1 <1>         0.0538
     40 H13         8.5080    2.0115   -1.2819 H         1 <1>         0.0492
     41 H14         8.8836    0.3512   -0.8153 H         1 <1>         0.0559
     42 H15         7.4157    1.1403   -0.1997 H         1 <1>         0.0491
     43 H16         7.1072   -6.4313    3.5367 H         1 <1>         0.1097
     44 H17         7.5024   -5.4968    2.0607 H         1 <1>         0.1097
     45 H18         5.8485   -6.1140    2.3143 H         1 <1>         0.1332
     46 H19         6.8613   -0.4483   -2.0677 H         1 <1>         0.1004
@<TRIPOS>BOND
     1    1   11 1
     2    1   23 3
     3    2    6 ar
     4    2   13 ar
     5    3    7 ar
     6    3   13 ar
     7    4    8 ar
     8    4   12 ar
     9    5    9 ar
    10    5   12 ar
    11    6   15 ar
    12    7   15 ar
    13    8   16 ar
    14    9   16 ar
    15   10   14 ar
    16   10   17 ar
    17   11   14 ar
    18   11   18 ar
    19   12   14 1
    20   13   17 1
    21   15   25 1
    22   16   27 1
    23   17   24 ar
    24   18   24 ar
    25   18   26 1
    26   19   22 1
    27   20   22 1
    28   21   25 1
    29   22   26 1
    30    2   28 1
    31    3   29 1
    32    4   30 1
    33    5   31 1
    34    6   32 1
    35    7   33 1
    36    8   34 1
    37    9   35 1
    38   10   36 1
    39   19   37 1
    40   19   38 1
    41   19   39 1
    42   20   40 1
    43   20   41 1
    44   20   42 1
    45   21   43 1
    46   21   44 1
    47   21   45 1
    48   22   46 1
@<TRIPOS>Similarity
1.5078
@<TRIPOS>ShapeSim
0.8842
@<TRIPOS>PharmSim
0.6236
# END
# Name:		AI-060/41884474
# Created and modified by SHAFTS on Tue Sep 23 17:55:45 2014

# 

@<TRIPOS>MOLECULE
AI-060/41884474
   39    42     0
SMALL
USER_CHARGE


@<TRIPOS>ATOM
      1 C1          5.0696   -1.1964    2.4465 C.ar      1 <1>        -0.0711
      2 C2          5.3256   -2.6156    0.5082 C.ar      1 <1>        -0.0762
      3 C3          1.3899    2.9200    0.5978 C.ar      1 <1>        -0.0614
      4 C4          0.4709    1.3071   -0.9487 C.ar      1 <1>        -0.0690
      5 C5          5.5097   -2.2359    3.2657 C.ar      1 <1>        -0.0949
      6 C6          5.7659   -3.6552    1.3274 C.ar      1 <1>        -0.0979
      7 C7          0.1194    3.4644    0.7849 C.ar      1 <1>        -0.0568
      8 C8         -0.7996    1.8516   -0.7616 C.ar      1 <1>        -0.0625
      9 C9          3.2634    0.2448    0.3875 C.ar      1 <1>        -0.0358
     10 C10         1.5655    1.8413   -0.2690 C.ar      1 <1>        -0.0498
     11 C11         4.9774   -1.3862    1.0676 C.ar      1 <1>        -0.0480
     12 C12         2.8867    1.2756   -0.4641 C.ar      1 <1>        -0.0085
     13 C13         3.7803    1.7049   -1.4417 C.ar      1 <1>         0.0580
     14 C14         5.8579   -3.4653    2.7063 C.ar      1 <1>        -0.1117
     15 C15        -0.9753    2.9302    0.1053 C.ar      1 <1>        -0.0216
     16 C16         4.5215   -0.3102    0.2196 C.ar      1 <1>        -0.0124
     17 C17         5.0278    1.0923   -1.5428 C.ar      1 <1>         0.0512
     18 C18         3.4400    2.7946   -2.3755 C.2       1 <1>         0.1070
     19 C19         5.6631    2.4356   -3.3186 C.2       1 <1>        -0.0322
     20 C20         6.3283   -4.5767    3.5823 C.3       1 <1>        -0.0450
     21 N1          5.4093    0.0869   -0.7212 N.ar      1 <1>        -0.3519
     22 N2          5.9793    1.4759   -2.5062 N.2       1 <1>        -0.3569
     23 N3          4.4448    3.0927   -3.2815 N.am      1 <1>        -0.2831
     24 O1          2.3685    3.3882   -2.3610 O.2       1 <1>        -0.5053
     25 S1          6.9256    2.8796   -4.5275 S.3       1 <1>        -0.3382
     26 Cl1        -2.5425    3.6036    0.3357 Cl        1 <1>        -0.1943
     27 H1          4.8011   -0.2441    2.8978 H         1 <1>         0.1484
     28 H2          5.2599   -2.7788   -0.5650 H         1 <1>         0.1340
     29 H3          2.2333    3.3474    1.1346 H         1 <1>         0.1550
     30 H4          0.5919    0.4670   -1.6285 H         1 <1>         0.1386
     31 H5          5.5772   -2.0794    4.3391 H         1 <1>         0.1171
     32 H6          6.0356   -4.6097    0.8829 H         1 <1>         0.1139
     33 H7         -0.0032    4.3061    1.4621 H         1 <1>         0.1410
     34 H8         -1.6435    1.4260   -1.2986 H         1 <1>         0.1347
     35 H9          2.5940   -0.1193    1.1625 H         1 <1>         0.1472
     36 H10         5.4792   -5.1859    3.9158 H         1 <1>         0.0552
     37 H11         7.0371   -5.2277    3.0541 H         1 <1>         0.0571
     38 H12         6.8501   -4.1923    4.4684 H         1 <1>         0.0571
     39 H13         4.2783    3.8327   -3.9570 H         1 <1>         0.3688
@<TRIPOS>BOND
     1    1    5 ar
     2    1   11 ar
     3    2    6 ar
     4    2   11 ar
     5    3    7 ar
     6    3   10 ar
     7    4    8 ar
     8    4   10 ar
     9    5   14 ar
    10    6   14 ar
    11    7   15 ar
    12    8   15 ar
    13    9   12 ar
    14    9   16 ar
    15   10   12 1
    16   11   16 1
    17   12   13 ar
    18   13   17 ar
    19   13   18 1
    20   14   20 1
    21   15   26 1
    22   16   21 ar
    23   17   21 ar
    24   17   22 1
    25   18   23 am
    26   18   24 2
    27   19   22 2
    28   19   23 1
    29   19   25 1
    30    1   27 1
    31    2   28 1
    32    3   29 1
    33    4   30 1
    34    5   31 1
    35    6   32 1
    36    7   33 1
    37    8   34 1
    38    9   35 1
    39   20   36 1
    40   20   37 1
    41   20   38 1
    42   23   39 1
@<TRIPOS>Similarity
1.5049
@<TRIPOS>ShapeSim
0.9254
@<TRIPOS>PharmSim
0.5795
# END
# Name:		AF-399/15336046
# Created and modified by SHAFTS on Tue Sep 23 17:55:45 2014

# 

@<TRIPOS>MOLECULE
AF-399/15336046
   26    29     0
SMALL
USER_CHARGE


@<TRIPOS>ATOM
      1 C1         -1.3780    2.6197    0.6608 C.ar      1 <1>        -0.0994
      2 C2         -0.4639    3.6732    0.6554 C.ar      1 <1>        -0.0982
      3 C3         -1.0287    1.3903    0.1020 C.ar      1 <1>        -0.0949
      4 C4          0.7997    3.4974    0.0912 C.ar      1 <1>        -0.0889
      5 C5          0.2348    1.2144   -0.4622 C.ar      1 <1>        -0.0856
      6 C6          2.8601    2.8711   -2.1084 C.2       1 <1>         0.0049
      7 C7          4.3814   -1.4155    1.4514 C.2       1 <1>         0.0720
      8 C8          1.1490    2.2679   -0.4676 C.ar      1 <1>        -0.0675
      9 C9          2.4524    2.0862   -1.0499 C.2       1 <1>        -0.0138
     10 C10         3.4633    1.1688   -0.6942 C.2       1 <1>         0.0384
     11 C11         4.6139    1.2551   -1.4641 C.2       1 <1>         0.0580
     12 C12         3.4943    0.1996    0.2956 C.2       1 <1>         0.0783
     13 C13         5.7388   -0.4035   -0.4040 C.2       1 <1>         0.0640
     14 N1          3.1736   -1.1868    1.9284 N.2       1 <1>        -0.2857
     15 N2          2.6065   -0.1556    1.1911 N.2       1 <1>        -0.2819
     16 N3          5.7551    0.4972   -1.3506 N.2       1 <1>        -0.3212
     17 N4          4.6256   -0.5633    0.4205 N.pl3     1 <1>        -0.2605
     18 S1          4.4465    2.4843   -2.6432 S.3       1 <1>        -0.0915
     19 H1         -2.3615    2.7562    1.1009 H         1 <1>         0.1147
     20 H2         -0.7353    4.6301    1.0915 H         1 <1>         0.1143
     21 H3         -1.7401    0.5698    0.1074 H         1 <1>         0.1189
     22 H4          1.5012    4.3283    0.0948 H         1 <1>         0.1232
     23 H5          0.4919    0.2498   -0.8937 H         1 <1>         0.1282
     24 H6          2.3118    3.6612   -2.6041 H         1 <1>         0.2159
     25 H7          5.0868   -2.1545    1.8032 H         1 <1>         0.3148
     26 H8          6.6105   -1.0568   -0.2397 H         1 <1>         0.3438
@<TRIPOS>BOND
     1    1    2 ar
     2    1    3 ar
     3    2    4 ar
     4    3    5 ar
     5    4    8 ar
     6    5    8 ar
     7    6    9 2
     8    6   18 1
     9    7   14 2
    10    7   17 1
    11    8    9 1
    12    9   10 1
    13   10   11 2
    14   10   12 1
    15   11   16 1
    16   11   18 1
    17   12   15 2
    18   12   17 1
    19   13   16 2
    20   13   17 1
    21   14   15 1
    22    1   19 1
    23    2   20 1
    24    3   21 1
    25    4   22 1
    26    5   23 1
    27    6   24 1
    28    7   25 1
    29   13   26 1
@<TRIPOS>Similarity
1.5010
@<TRIPOS>ShapeSim
0.8417
@<TRIPOS>PharmSim
0.6593
# END
# Name:		AG-690/12404942
# Created and modified by SHAFTS on Tue Sep 23 17:55:45 2014

# 

@<TRIPOS>MOLECULE
AG-690/12404942
   38    41     0
SMALL
USER_CHARGE


@<TRIPOS>ATOM
      1 C1          4.5996   -1.4975    2.4213 C.ar      1 <1>        -0.0674
      2 C2          5.8270   -2.2984    0.5006 C.ar      1 <1>        -0.0715
      3 C3         -0.1716    1.0565   -0.1394 C.ar      1 <1>        -0.0773
      4 C4          1.2168    3.0321   -0.0625 C.ar      1 <1>        -0.0742
      5 C5          5.1229   -2.5377    3.1895 C.ar      1 <1>        -0.0900
      6 C6          6.3504   -3.3385    1.2687 C.ar      1 <1>        -0.0923
      7 C7         -1.2863    1.8270    0.1909 C.ar      1 <1>        -0.0683
      8 C8          0.1020    3.8027    0.2679 C.ar      1 <1>        -0.0666
      9 C9          4.1466    2.7780   -2.8233 C.2       1 <1>         0.0555
     10 C10         4.9516   -1.3779    1.0770 C.ar      1 <1>        -0.0413
     11 C11         1.0800    1.6591   -0.2661 C.ar      1 <1>        -0.0632
     12 C12         5.9983   -3.4581    2.6131 C.ar      1 <1>        -0.1059
     13 C13        -1.1496    3.2000    0.3945 C.ar      1 <1>        -0.0374
     14 C14         4.6022    1.2395   -1.4519 C.2       1 <1>         0.0749
     15 C15         4.3933   -0.2661    0.2550 C.2       1 <1>         0.0005
     16 C16         3.0070    0.2706    0.6131 C.3       1 <1>         0.0394
     17 C17         2.2900    0.8228   -0.6245 C.3       1 <1>         0.0592
     18 C18         6.5584   -4.5695    3.4352 C.3       1 <1>        -0.0407
     19 N1          5.1839    2.0405   -2.3263 N.2       1 <1>        -0.3131
     20 N2          2.9434    2.4935   -2.3244 N.2       1 <1>        -0.3214
     21 N3          5.1214    0.2331   -0.7028 N.2       1 <1>        -0.3242
     22 N4          3.2640    1.5469   -1.4309 N.pl3     1 <1>        -0.2910
     23 Br1        -2.6604    4.2431    0.8427 Br        1 <1>        -0.1384
     24 H1          3.9184   -0.7856    2.8800 H         1 <1>         0.1513
     25 H2          6.1083   -2.2151   -0.5460 H         1 <1>         0.1396
     26 H3         -0.2875   -0.0127   -0.2965 H         1 <1>         0.1308
     27 H4          2.1883    3.5101   -0.1581 H         1 <1>         0.1402
     28 H5          4.8435   -2.6230    4.2361 H         1 <1>         0.1242
     29 H6          7.0321   -4.0509    0.8117 H         1 <1>         0.1226
     30 H7         -2.2543    1.3416    0.2867 H         1 <1>         0.1417
     31 H8          0.2255    4.8712    0.4230 H         1 <1>         0.1437
     32 H9          4.2736    3.5451   -3.5726 H         1 <1>         0.3095
     33 H10         2.4459   -0.5873    0.9930 H         1 <1>         0.1377
     34 H11         3.0759    1.0102    1.4101 H         1 <1>         0.1426
     35 H12         1.9328   -0.0445   -1.2466 H         1 <1>         0.1861
     36 H13         5.9047   -5.4488    3.3846 H         1 <1>         0.0637
     37 H14         7.5581   -4.8586    3.0858 H         1 <1>         0.0606
     38 H15         6.6629   -4.2732    4.4871 H         1 <1>         0.0604
@<TRIPOS>BOND
     1    1    5 ar
     2    1   10 ar
     3    2    6 ar
     4    2   10 ar
     5    3    7 ar
     6    3   11 ar
     7    4    8 ar
     8    4   11 ar
     9    5   12 ar
    10    6   12 ar
    11    7   13 ar
    12    8   13 ar
    13    9   19 1
    14    9   20 2
    15   10   15 1
    16   11   17 1
    17   12   18 1
    18   13   23 1
    19   14   19 2
    20   14   21 1
    21   14   22 1
    22   15   16 1
    23   15   21 2
    24   16   17 1
    25   17   22 1
    26   20   22 1
    27    1   24 1
    28    2   25 1
    29    3   26 1
    30    4   27 1
    31    5   28 1
    32    6   29 1
    33    7   30 1
    34    8   31 1
    35    9   32 1
    36   16   33 1
    37   16   34 1
    38   17   35 1
    39   18   36 1
    40   18   37 1
    41   18   38 1
@<TRIPOS>Similarity
1.4992
@<TRIPOS>ShapeSim
0.9248
@<TRIPOS>PharmSim
0.5744
# END
# Name:		AE-641/00376063
# Created and modified by SHAFTS on Tue Sep 23 17:55:45 2014

# 

@<TRIPOS>MOLECULE
AE-641/00376063
   31    33     0
SMALL
USER_CHARGE


@<TRIPOS>ATOM
      1 C1         -1.1946    3.0918    0.0607 C.ar      1 <1>        -0.0985
      2 C2          6.0344   -3.2868    2.4153 C.ar      1 <1>        -0.0921
      3 C3         -0.0688    3.7842   -0.3848 C.ar      1 <1>        -0.0929
      4 C4         -1.0845    1.7556    0.4457 C.ar      1 <1>        -0.0929
      5 C5          5.7943   -3.4024    1.0461 C.ar      1 <1>        -0.0820
      6 C6          5.6260   -2.1427    3.1008 C.ar      1 <1>        -0.0848
      7 C7          1.1672    3.1404   -0.4456 C.ar      1 <1>        -0.0750
      8 C8          0.1514    1.1118    0.3850 C.ar      1 <1>        -0.0752
      9 C9          5.1459   -2.3740    0.3624 C.ar      1 <1>        -0.0587
     10 C10         4.9777   -1.1142    2.4172 C.ar      1 <1>        -0.0632
     11 C11         3.5956    1.4119   -1.0255 C.2       1 <1>        -0.0337
     12 C12         1.2773    1.8042   -0.0606 C.ar      1 <1>        -0.0480
     13 C13         4.7376   -1.2298    1.0480 C.ar      1 <1>        -0.0259
     14 C14         2.5495    1.1411   -0.1232 C.2       1 <1>        -0.0070
     15 C15         4.5837    0.5215   -0.6829 C.2       1 <1>        -0.0129
     16 N1          2.8454    0.1556    0.7285 N.2       1 <1>        -0.3508
     17 N2          4.0885   -0.2006    0.3628 N.pl3     1 <1>        -0.3206
     18 N3          5.8156    0.3072   -1.1921 N.pl3     1 <1>        -0.3419
     19 H1         -2.1568    3.5932    0.1091 H         1 <1>         0.1146
     20 H2          6.5375   -4.0881    2.9483 H         1 <1>         0.1191
     21 H3         -0.1539    4.8249   -0.6834 H         1 <1>         0.1173
     22 H4         -1.9611    1.2171    0.7937 H         1 <1>         0.1178
     23 H5          6.1110   -4.2938    0.5124 H         1 <1>         0.1304
     24 H6          5.8122   -2.0541    4.1673 H         1 <1>         0.1280
     25 H7          2.0357    3.6939   -0.7952 H         1 <1>         0.1363
     26 H8          0.2205    0.0698    0.6887 H         1 <1>         0.1354
     27 H9          4.9642   -2.4771   -0.7046 H         1 <1>         0.1496
     28 H10         4.6641   -0.2282    2.9639 H         1 <1>         0.1383
     29 H11         3.6317    2.1490   -1.8151 H         1 <1>         0.1437
     30 H12         6.1664    0.8218   -2.0133 H         1 <1>         0.2567
     31 H13         6.4287   -0.4452   -0.8450 H         1 <1>         0.2689
@<TRIPOS>BOND
     1    1    3 ar
     2    1    4 ar
     3    2    5 ar
     4    2    6 ar
     5    3    7 ar
     6    4    8 ar
     7    5    9 ar
     8    6   10 ar
     9    7   12 ar
    10    8   12 ar
    11    9   13 ar
    12   10   13 ar
    13   11   14 1
    14   11   15 2
    15   12   14 1
    16   13   17 1
    17   14   16 2
    18   15   17 1
    19   15   18 1
    20   16   17 1
    21    1   19 1
    22    2   20 1
    23    3   21 1
    24    4   22 1
    25    5   23 1
    26    6   24 1
    27    7   25 1
    28    8   26 1
    29    9   27 1
    30   10   28 1
    31   11   29 1
    32   18   30 1
    33   18   31 1
@<TRIPOS>Similarity
1.4962
@<TRIPOS>ShapeSim
0.8675
@<TRIPOS>PharmSim
0.6287
# END
# Name:		AE-842/32998057
# Created and modified by SHAFTS on Tue Sep 23 17:55:45 2014

# 

@<TRIPOS>MOLECULE
AE-842/32998057
   41    44     0
SMALL
USER_CHARGE


@<TRIPOS>ATOM
      1 C1         -1.3095    3.0611    0.1079 C.ar      1 <1>        -0.0967
      2 C2         -0.2077    3.7804   -0.3550 C.ar      1 <1>        -0.0914
      3 C3         -1.1565    1.7351    0.5130 C.ar      1 <1>        -0.0919
      4 C4          1.0471    3.1738   -0.4128 C.ar      1 <1>        -0.0743
      5 C5          0.0982    1.1286    0.4553 C.ar      1 <1>        -0.0751
      6 C6          5.0946   -2.3106    0.3801 C.ar      1 <1>        -0.0550
      7 C7          5.0041   -1.0748    2.4542 C.ar      1 <1>        -0.0545
      8 C8          5.6681   -3.3918    1.0493 C.ar      1 <1>        -0.0515
      9 C9          5.5775   -2.1560    3.1234 C.ar      1 <1>        -0.0512
     10 C10         1.2001    1.8479   -0.0076 C.ar      1 <1>        -0.0504
     11 C11         4.7627   -1.1521    1.0826 C.ar      1 <1>        -0.0388
     12 C12         5.9094   -3.3144    2.4210 C.ar      1 <1>        -0.0166
     13 C13         2.5233    1.2081   -0.0686 C.2       1 <1>        -0.0257
     14 C14         4.6570    2.1041   -3.2388 C.3       1 <1>        -0.0548
     15 C15         5.7276    1.0381   -2.9382 C.3       1 <1>        -0.0544
     16 C16         3.3060    1.8474   -2.5457 C.3       1 <1>        -0.0382
     17 C17         5.8137    0.6394   -1.4520 C.3       1 <1>        -0.0378
     18 C18         3.5753    1.5775   -1.0809 C.3       1 <1>         0.0044
     19 C19         4.4118    0.2943   -0.9785 C.3       1 <1>         0.0041
     20 N1          2.9282    0.3282    0.8020 N.2       1 <1>        -0.3693
     21 N2          4.1918   -0.0715    0.4127 N.pl3     1 <1>        -0.3559
     22 Cl1         6.6168   -4.6486    3.2463 Cl        1 <1>        -0.1916
     23 H1         -2.2864    3.5335    0.1527 H         1 <1>         0.1178
     24 H2         -0.3270    4.8127   -0.6707 H         1 <1>         0.1199
     25 H3         -2.0144    1.1752    0.8737 H         1 <1>         0.1197
     26 H4          1.8988    3.7437   -0.7752 H         1 <1>         0.1378
     27 H5          0.2056    0.0948    0.7735 H         1 <1>         0.1358
     28 H6          4.9117   -2.3807   -0.6890 H         1 <1>         0.1480
     29 H7          4.7507   -0.1760    3.0107 H         1 <1>         0.1493
     30 H8          5.9232   -4.2873    0.4886 H         1 <1>         0.1488
     31 H9          5.7614   -2.0803    4.1922 H         1 <1>         0.1486
     32 H10         5.0389    3.0780   -2.9061 H         1 <1>         0.0426
     33 H11         4.5072    2.1809   -4.3217 H         1 <1>         0.0453
     34 H12         5.4963    0.1410   -3.5269 H         1 <1>         0.0474
     35 H13         6.7062    1.3931   -3.2810 H         1 <1>         0.0438
     36 H14         2.6544    2.7199   -2.6645 H         1 <1>         0.0584
     37 H15         2.7905    1.0013   -3.0157 H         1 <1>         0.0601
     38 H16         6.4835   -0.2202   -1.3384 H         1 <1>         0.0621
     39 H17         6.2440    1.4578   -0.8624 H         1 <1>         0.0631
     40 H18         4.1073    2.4355   -0.6415 H         1 <1>         0.1061
     41 H19         3.9883   -0.4981   -1.6152 H         1 <1>         0.1120
@<TRIPOS>BOND
     1    1    2 ar
     2    1    3 ar
     3    2    4 ar
     4    3    5 ar
     5    4   10 ar
     6    5   10 ar
     7    6    8 ar
     8    6   11 ar
     9    7    9 ar
    10    7   11 ar
    11    8   12 ar
    12    9   12 ar
    13   10   13 1
    14   11   21 1
    15   12   22 1
    16   13   18 1
    17   13   20 2
    18   14   15 1
    19   14   16 1
    20   15   17 1
    21   16   18 1
    22   17   19 1
    23   18   19 1
    24   19   21 1
    25   20   21 1
    26    1   23 1
    27    2   24 1
    28    3   25 1
    29    4   26 1
    30    5   27 1
    31    6   28 1
    32    7   29 1
    33    8   30 1
    34    9   31 1
    35   14   32 1
    36   14   33 1
    37   15   34 1
    38   15   35 1
    39   16   36 1
    40   16   37 1
    41   17   38 1
    42   17   39 1
    43   18   40 1
    44   19   41 1
@<TRIPOS>Similarity
1.4935
@<TRIPOS>ShapeSim
0.9104
@<TRIPOS>PharmSim
0.5832
# END
# Name:		AE-842/31985041
# Created and modified by SHAFTS on Tue Sep 23 17:55:45 2014

# 

@<TRIPOS>MOLECULE
AE-842/31985041
   42    46     0
SMALL
USER_CHARGE


@<TRIPOS>ATOM
      1 C1         -1.2985    2.9507    0.1287 C.ar      1 <1>        -0.0954
      2 C2          5.8442   -3.4925    2.4543 C.ar      1 <1>        -0.1023
      3 C3         -0.2028    3.6157   -0.4215 C.ar      1 <1>        -0.0902
      4 C4         -1.1344    1.6875    0.6970 C.ar      1 <1>        -0.0906
      5 C5          5.7540   -3.4046    1.0652 C.ar      1 <1>        -0.0930
      6 C6          5.4094   -2.4327    3.2500 C.ar      1 <1>        -0.0922
      7 C7          1.0571    3.0174   -0.4035 C.ar      1 <1>        -0.0725
      8 C8          0.1254    1.0892    0.7150 C.ar      1 <1>        -0.0734
      9 C9          5.2289   -2.2567    0.4717 C.ar      1 <1>        -0.0759
     10 C10         4.8845   -1.2846    2.6566 C.ar      1 <1>        -0.0745
     11 C11         1.2213    1.7541    0.1648 C.ar      1 <1>        -0.0488
     12 C12         4.7942   -1.1967    1.2674 C.ar      1 <1>        -0.0517
     13 C13         2.5281    1.1335    0.1833 C.2       1 <1>        -0.0259
     14 C14         5.0844    2.4208   -2.4600 C.3       1 <1>        -0.0535
     15 C15         6.0731    1.3499   -1.9186 C.3       1 <1>        -0.0532
     16 C16         4.1989    0.3496   -2.9946 C.3       1 <1>        -0.0457
     17 C17         3.5587    1.3964   -0.8763 C.3       1 <1>         0.0040
     18 C18         3.7248    1.6769   -2.3700 C.3       1 <1>        -0.0342
     19 C19         5.2259    0.0578   -1.8662 C.3       1 <1>        -0.0350
     20 C20         4.1930    0.0036   -0.7561 C.3       1 <1>         0.0065
     21 N1          3.0254    0.3927    1.1473 N.2       1 <1>        -0.3708
     22 N2          4.2743   -0.0599    0.6802 N.pl3     1 <1>        -0.3592
     23 H1         -2.2794    3.4167    0.1146 H         1 <1>         0.1196
     24 H2          6.2533   -4.3865    2.9164 H         1 <1>         0.1017
     25 H3         -0.3308    4.5992   -0.8642 H         1 <1>         0.1208
     26 H4         -1.9875    1.1699    1.1257 H         1 <1>         0.1209
     27 H5          6.0925   -4.2297    0.4458 H         1 <1>         0.1200
     28 H6          5.4798   -2.5014    4.3318 H         1 <1>         0.1203
     29 H7          1.9041    3.5445   -0.8351 H         1 <1>         0.1400
     30 H8          0.2416    0.1045    1.1604 H         1 <1>         0.1373
     31 H9          5.1631   -2.1979   -0.6116 H         1 <1>         0.1275
     32 H10         4.5485   -0.4651    3.2867 H         1 <1>         0.1308
     33 H11         5.1179    3.3467   -1.8765 H         1 <1>         0.0478
     34 H12         5.3244    2.6738   -3.4999 H         1 <1>         0.0439
     35 H13         6.9139    1.2425   -2.6124 H         1 <1>         0.0458
     36 H14         6.4707    1.6140   -0.9335 H         1 <1>         0.0495
     37 H15         3.3972   -0.3921   -3.0826 H         1 <1>         0.0588
     38 H16         4.6677    0.4670   -3.9787 H         1 <1>         0.0538
     39 H17         4.1484    2.1683   -0.3470 H         1 <1>         0.0987
     40 H18         2.8964    2.1812   -2.8672 H         1 <1>         0.0824
     41 H19         5.8009   -0.8616   -1.9892 H         1 <1>         0.0784
     42 H20         3.4763   -0.7926   -1.0340 H         1 <1>         0.1293
@<TRIPOS>BOND
     1    1    3 ar
     2    1    4 ar
     3    2    5 ar
     4    2    6 ar
     5    3    7 ar
     6    4    8 ar
     7    5    9 ar
     8    6   10 ar
     9    7   11 ar
    10    8   11 ar
    11    9   12 ar
    12   10   12 ar
    13   11   13 1
    14   12   22 1
    15   13   17 1
    16   13   21 2
    17   14   15 1
    18   14   18 1
    19   15   19 1
    20   16   18 1
    21   16   19 1
    22   17   18 1
    23   17   20 1
    24   19   20 1
    25   20   22 1
    26   21   22 1
    27    1   23 1
    28    2   24 1
    29    3   25 1
    30    4   26 1
    31    5   27 1
    32    6   28 1
    33    7   29 1
    34    8   30 1
    35    9   31 1
    36   10   32 1
    37   14   33 1
    38   14   34 1
    39   15   35 1
    40   15   36 1
    41   16   37 1
    42   16   38 1
    43   17   39 1
    44   18   40 1
    45   19   41 1
    46   20   42 1
@<TRIPOS>Similarity
1.4930
@<TRIPOS>ShapeSim
0.8848
@<TRIPOS>PharmSim
0.6082
# END
# Name:		AG-927/42926100
# Created and modified by SHAFTS on Tue Sep 23 17:55:45 2014

# 

@<TRIPOS>MOLECULE
AG-927/42926100
   32    34     0
SMALL
USER_CHARGE


@<TRIPOS>ATOM
      1 C1         -1.2720    3.1048    0.0945 C.ar      1 <1>        -0.0980
      2 C2          6.0317   -3.2306    2.3616 C.ar      1 <1>        -0.0913
      3 C3         -0.1530    3.8071   -0.3534 C.ar      1 <1>        -0.0927
      4 C4         -1.1515    1.7669    0.4699 C.ar      1 <1>        -0.0928
      5 C5          5.7831   -3.3403    0.9935 C.ar      1 <1>        -0.0824
      6 C6          5.6137   -2.0964    3.0577 C.ar      1 <1>        -0.0838
      7 C7          1.0862    3.1713   -0.4261 C.ar      1 <1>        -0.0761
      8 C8          0.0879    1.1310    0.3973 C.ar      1 <1>        -0.0758
      9 C9          5.1166   -2.3156    0.3214 C.ar      1 <1>        -0.0607
     10 C10         4.9474   -1.0717    2.3856 C.ar      1 <1>        -0.0629
     11 C11         3.5223    1.4604   -1.0318 C.2       1 <1>        -0.0447
     12 C12         1.2068    1.8331   -0.0506 C.ar      1 <1>        -0.0502
     13 C13         4.6988   -1.1814    1.0174 C.ar      1 <1>        -0.0315
     14 C14         2.4826    1.1783   -0.1255 C.2       1 <1>        -0.0129
     15 C15         4.5174    0.5738   -0.6996 C.2       1 <1>        -0.0449
     16 C16         5.8590    0.3755   -1.2826 C.3       1 <1>        -0.0122
     17 N1          2.7889    0.1897    0.7189 N.2       1 <1>        -0.3564
     18 N2          4.0320   -0.1572    0.3447 N.pl3     1 <1>        -0.3328
     19 H1         -2.2369    3.6001    0.1522 H         1 <1>         0.1157
     20 H2          6.5490   -4.0289    2.8856 H         1 <1>         0.1205
     21 H3         -0.2465    4.8491   -0.6445 H         1 <1>         0.1188
     22 H4         -2.0226    1.2206    0.8197 H         1 <1>         0.1181
     23 H5          6.1072   -4.2239    0.4515 H         1 <1>         0.1296
     24 H6          5.8066   -2.0124    4.1234 H         1 <1>         0.1288
     25 H7          1.9493    3.7321   -0.7773 H         1 <1>         0.1348
     26 H8          0.1653    0.0875    0.6935 H         1 <1>         0.1356
     27 H9          4.9284   -2.4142   -0.7450 H         1 <1>         0.1485
     28 H10         4.6264   -0.1935    2.9405 H         1 <1>         0.1431
     29 H11         3.5502    2.2021   -1.8176 H         1 <1>         0.1450
     30 H12         6.6087    1.0064   -0.7776 H         1 <1>         0.0883
     31 H13         6.1941   -0.6726   -1.2023 H         1 <1>         0.0911
     32 H14         5.8832    0.6216   -2.3580 H         1 <1>         0.0843
@<TRIPOS>BOND
     1    1    3 ar
     2    1    4 ar
     3    2    5 ar
     4    2    6 ar
     5    3    7 ar
     6    4    8 ar
     7    5    9 ar
     8    6   10 ar
     9    7   12 ar
    10    8   12 ar
    11    9   13 ar
    12   10   13 ar
    13   11   14 1
    14   11   15 2
    15   12   14 1
    16   13   18 1
    17   14   17 2
    18   15   16 1
    19   15   18 1
    20   17   18 1
    21    1   19 1
    22    2   20 1
    23    3   21 1
    24    4   22 1
    25    5   23 1
    26    6   24 1
    27    7   25 1
    28    8   26 1
    29    9   27 1
    30   10   28 1
    31   11   29 1
    32   16   30 1
    33   16   31 1
    34   16   32 1
@<TRIPOS>Similarity
1.4916
@<TRIPOS>ShapeSim
0.8686
@<TRIPOS>PharmSim
0.6230
# END
# Name:		AO-476/40672138
# Created and modified by SHAFTS on Tue Sep 23 17:55:45 2014

# 

@<TRIPOS>MOLECULE
AO-476/40672138
   35    37     0
SMALL
USER_CHARGE


@<TRIPOS>ATOM
      1 C1          5.6372   -3.3686    2.7380 C.ar      1 <1>        -0.0820
      2 C2          4.7754   -2.3408    3.1209 C.ar      1 <1>        -0.0750
      3 C3          6.2003   -3.3677    1.4618 C.ar      1 <1>        -0.0739
      4 C4          4.4765   -1.3122    2.2275 C.ar      1 <1>        -0.0502
      5 C5          5.9014   -2.3390    0.5684 C.ar      1 <1>        -0.0484
      6 C6          5.0222    1.0770   -1.5221 C.2       1 <1>         0.0737
      7 C7          1.5505    1.1520    0.4561 C.ar      1 <1>         0.1155
      8 C8          3.7268    1.3394   -1.0274 C.ar      1 <1>         0.0967
      9 C9          5.0395   -1.3112    0.9512 C.ar      1 <1>        -0.0004
     10 C10         3.5788    0.4287    0.0068 C.ar      1 <1>         0.1074
     11 C11         2.6846    2.2124   -1.3178 C.ar      1 <1>         0.0965
     12 C12        -0.5254    3.3014    0.1384 C.2       1 <1>        -0.0198
     13 C13        -2.0503    3.4098   -1.8932 C.3       1 <1>         0.0081
     14 N1          5.6428    0.0920   -0.8648 N.2       1 <1>        -0.2936
     15 N2          2.5090    0.2733    0.8017 N.ar      1 <1>        -0.2699
     16 N3          4.7403   -0.2826    0.0589 N.pl3     1 <1>        -0.2601
     17 N4          1.6177    2.0590   -0.5259 N.ar      1 <1>        -0.2793
     18 N5          2.7256    3.1708   -2.3397 N.pl3     1 <1>        -0.2844
     19 N6         -1.7477    3.5330   -0.4797 N.pl3     1 <1>        -0.3541
     20 N7          0.4443    2.9233   -0.7297 N.pl3     1 <1>        -0.2723
     21 S1         -0.4760    3.4660    1.8096 S.2       1 <1>        -0.2548
     22 H1          5.8717   -4.1687    3.4338 H         1 <1>         0.1354
     23 H2          4.3380   -2.3405    4.1149 H         1 <1>         0.1391
     24 H3          6.8723   -4.1676    1.1650 H         1 <1>         0.1401
     25 H4          3.8038   -0.5166    2.5388 H         1 <1>         0.1531
     26 H5          6.3476   -2.3502   -0.4230 H         1 <1>         0.1584
     27 H6          5.5416    1.5632   -2.3358 H         1 <1>         0.2991
     28 H7          0.6327    1.1211    1.0327 H         1 <1>         0.4062
     29 H8         -1.8546    4.3566   -2.4031 H         1 <1>         0.1178
     30 H9         -3.1023    3.1457   -2.0328 H         1 <1>         0.1184
     31 H10        -1.4305    2.6314   -2.3460 H         1 <1>         0.1219
     32 H11         3.5640    3.2842   -2.8809 H         1 <1>         0.3145
     33 H12         1.9523    3.7999   -2.4615 H         1 <1>         0.3265
     34 H13        -2.5081    3.8344    0.1221 H         1 <1>         0.3014
     35 H14         0.3712    3.1863   -1.6886 H         1 <1>         0.3886
@<TRIPOS>BOND
     1    1    2 ar
     2    1    3 ar
     3    2    4 ar
     4    3    5 ar
     5    4    9 ar
     6    5    9 ar
     7    6    8 1
     8    6   14 2
     9    7   15 ar
    10    7   17 ar
    11    8   10 ar
    12    8   11 ar
    13    9   16 1
    14   10   15 ar
    15   10   16 1
    16   11   17 ar
    17   11   18 1
    18   12   19 1
    19   12   20 1
    20   12   21 2
    21   13   19 1
    22   14   16 1
    23   17   20 1
    24    1   22 1
    25    2   23 1
    26    3   24 1
    27    4   25 1
    28    5   26 1
    29    6   27 1
    30    7   28 1
    31   13   29 1
    32   13   30 1
    33   13   31 1
    34   18   32 1
    35   18   33 1
    36   19   34 1
    37   20   35 1
@<TRIPOS>Similarity
1.4897
@<TRIPOS>ShapeSim
0.8448
@<TRIPOS>PharmSim
0.6449
# END
# Name:		AE-842/32998057
# Created and modified by SHAFTS on Tue Sep 23 17:55:45 2014

# 

@<TRIPOS>MOLECULE
AE-842/32998057
   41    44     0
SMALL
USER_CHARGE


@<TRIPOS>ATOM
      1 C1         -1.2833    3.1065    0.1532 C.ar      1 <1>        -0.0967
      2 C2         -0.0980    3.8193    0.3330 C.ar      1 <1>        -0.0919
      3 C3         -1.2401    1.7411   -0.1291 C.ar      1 <1>        -0.0913
      4 C4          1.1306    3.1669    0.2304 C.ar      1 <1>        -0.0751
      5 C5         -0.0114    1.0887   -0.2318 C.ar      1 <1>        -0.0743
      6 C6          5.6758   -2.0784    0.3980 C.ar      1 <1>        -0.0545
      7 C7          4.3498   -1.4351    2.3123 C.ar      1 <1>        -0.0550
      8 C8          6.3053   -3.0597    1.1638 C.ar      1 <1>        -0.0512
      9 C9          4.9793   -2.4163    3.0781 C.ar      1 <1>        -0.0515
     10 C10         1.1740    1.8017   -0.0521 C.ar      1 <1>        -0.0503
     11 C11         4.6981   -1.2661    0.9723 C.ar      1 <1>        -0.0388
     12 C12         5.9571   -3.2287    2.5039 C.ar      1 <1>        -0.0166
     13 C13         2.4700    1.1136   -0.1604 C.2       1 <1>        -0.0257
     14 C14         5.0794    2.8459   -2.5256 C.3       1 <1>        -0.0549
     15 C15         6.2343    1.9276   -2.0833 C.3       1 <1>        -0.0543
     16 C16         3.9104    2.9081   -1.5250 C.3       1 <1>        -0.0382
     17 C17         5.7737    0.5688   -1.5210 C.3       1 <1>        -0.0378
     18 C18         3.5251    1.4887   -1.1672 C.3       1 <1>         0.0044
     19 C19         4.7199    0.8349   -0.4592 C.3       1 <1>         0.0041
     20 N1          2.7795    0.0661    0.5489 N.2       1 <1>        -0.3692
     21 N2          4.0709   -0.2844    0.2070 N.pl3     1 <1>        -0.3558
     22 Cl1         6.7340   -4.4394    3.4483 Cl        1 <1>        -0.1916
     23 H1         -2.2399    3.6143    0.2331 H         1 <1>         0.1178
     24 H2         -0.1319    4.8824    0.5526 H         1 <1>         0.1198
     25 H3         -2.1630    1.1859   -0.2688 H         1 <1>         0.1199
     26 H4          2.0482    3.7322    0.3723 H         1 <1>         0.1357
     27 H5          0.0103    0.0245   -0.4523 H         1 <1>         0.1378
     28 H6          5.9553   -1.9543   -0.6450 H         1 <1>         0.1493
     29 H7          3.5902   -0.8064    2.7702 H         1 <1>         0.1480
     30 H8          7.0666   -3.6841    0.7033 H         1 <1>         0.1487
     31 H9          4.6987   -2.5350    4.1217 H         1 <1>         0.1489
     32 H10         5.4617    3.8564   -2.7088 H         1 <1>         0.0454
     33 H11         4.6961    2.4772   -3.4858 H         1 <1>         0.0419
     34 H12         6.9177    1.7650   -2.9245 H         1 <1>         0.0478
     35 H13         6.8115    2.4480   -1.3080 H         1 <1>         0.0440
     36 H14         4.2009    3.4759   -0.6332 H         1 <1>         0.0575
     37 H15         3.0630    3.4372   -1.9744 H         1 <1>         0.0613
     38 H16         5.3785   -0.0624   -2.3260 H         1 <1>         0.0622
     39 H17         6.6302    0.0371   -1.0919 H         1 <1>         0.0631
     40 H18         3.2557    0.9398   -2.0828 H         1 <1>         0.1055
     41 H19         5.1298    1.5051    0.3123 H         1 <1>         0.1119
@<TRIPOS>BOND
     1    1    2 ar
     2    1    3 ar
     3    2    4 ar
     4    3    5 ar
     5    4   10 ar
     6    5   10 ar
     7    6    8 ar
     8    6   11 ar
     9    7    9 ar
    10    7   11 ar
    11    8   12 ar
    12    9   12 ar
    13   10   13 1
    14   11   21 1
    15   12   22 1
    16   13   18 1
    17   13   20 2
    18   14   15 1
    19   14   16 1
    20   15   17 1
    21   16   18 1
    22   17   19 1
    23   18   19 1
    24   19   21 1
    25   20   21 1
    26    1   23 1
    27    2   24 1
    28    3   25 1
    29    4   26 1
    30    5   27 1
    31    6   28 1
    32    7   29 1
    33    8   30 1
    34    9   31 1
    35   14   32 1
    36   14   33 1
    37   15   34 1
    38   15   35 1
    39   16   36 1
    40   16   37 1
    41   17   38 1
    42   17   39 1
    43   18   40 1
    44   19   41 1
@<TRIPOS>Similarity
1.4831
@<TRIPOS>ShapeSim
0.9018
@<TRIPOS>PharmSim
0.5813
# END
# Name:		AE-641/14883017
# Created and modified by SHAFTS on Tue Sep 23 17:55:45 2014

# 

@<TRIPOS>MOLECULE
AE-641/14883017
   38    40     0
SMALL
USER_CHARGE


@<TRIPOS>ATOM
      1 C1         -1.2768    3.1136    0.0874 C.ar      1 <1>        -0.0981
      2 C2          6.0334   -3.2053    2.3327 C.ar      1 <1>        -0.0866
      3 C3         -0.1072    3.8543    0.2567 C.ar      1 <1>        -0.0928
      4 C4         -1.2046    1.7429   -0.1610 C.ar      1 <1>        -0.0927
      5 C5          5.7826   -3.3152    0.9650 C.ar      1 <1>        -0.0785
      6 C6          5.6183   -2.0700    3.0288 C.ar      1 <1>        -0.0774
      7 C7          1.1348    3.2243    0.1773 C.ar      1 <1>        -0.0755
      8 C8          0.0373    1.1130   -0.2406 C.ar      1 <1>        -0.0753
      9 C9          5.1167   -2.2900    0.2934 C.ar      1 <1>        -0.0519
     10 C10         4.9523   -1.0447    2.3572 C.ar      1 <1>        -0.0509
     11 C11         1.2071    1.8537   -0.0713 C.ar      1 <1>        -0.0439
     12 C12         3.5247    1.4863   -1.0606 C.2       1 <1>         0.0035
     13 C13         4.7016   -1.1546    0.9895 C.ar      1 <1>        -0.0059
     14 C14         2.4857    1.2049   -0.1533 C.2       1 <1>         0.0123
     15 C15         4.5201    0.6001   -0.7281 C.2       1 <1>         0.0923
     16 C16         5.8101    0.4420   -1.3270 C.2       1 <1>         0.1626
     17 C17         3.5469    2.5023   -2.1296 C.3       1 <1>        -0.0063
     18 C18         7.5819    1.5903   -2.4783 C.3       1 <1>         0.0412
     19 N1          2.7926    0.2174    0.6920 N.2       1 <1>        -0.3242
     20 N2          4.0356   -0.1298    0.3172 N.pl3     1 <1>        -0.2730
     21 O1          6.4528   -0.6302   -1.3886 O.2       1 <1>        -0.4527
     22 O2          6.2962    1.6198   -1.8493 O.3       1 <1>        -0.3828
     23 H1         -2.2440    3.6036    0.1504 H         1 <1>         0.1154
     24 H2          6.5502   -4.0039    2.8564 H         1 <1>         0.1265
     25 H3         -0.1631    4.9213    0.4515 H         1 <1>         0.1190
     26 H4         -2.1155    1.1662   -0.2915 H         1 <1>         0.1185
     27 H5          6.1046   -4.1996    0.4231 H         1 <1>         0.1314
     28 H6          5.8127   -1.9857    4.0942 H         1 <1>         0.1329
     29 H7          2.0377    3.8156    0.3114 H         1 <1>         0.1337
     30 H8          0.0767    0.0437   -0.4349 H         1 <1>         0.1340
     31 H9          4.9268   -2.3886   -0.7727 H         1 <1>         0.1538
     32 H10         4.6337   -0.1656    2.9121 H         1 <1>         0.1547
     33 H11         3.9433    3.4621   -1.7587 H         1 <1>         0.0792
     34 H12         4.1711    2.1910   -2.9850 H         1 <1>         0.0791
     35 H13         2.5406    2.6931   -2.5415 H         1 <1>         0.0841
     36 H14         7.8335    2.5895   -2.8419 H         1 <1>         0.1247
     37 H15         7.5652    0.8816   -3.3102 H         1 <1>         0.1449
     38 H16         8.3284    1.2724   -1.7465 H         1 <1>         0.1245
@<TRIPOS>BOND
     1    1    3 ar
     2    1    4 ar
     3    2    5 ar
     4    2    6 ar
     5    3    7 ar
     6    4    8 ar
     7    5    9 ar
     8    6   10 ar
     9    7   11 ar
    10    8   11 ar
    11    9   13 ar
    12   10   13 ar
    13   11   14 1
    14   12   14 1
    15   12   15 2
    16   12   17 1
    17   13   20 1
    18   14   19 2
    19   15   16 1
    20   15   20 1
    21   16   21 2
    22   16   22 1
    23   18   22 1
    24   19   20 1
    25    1   23 1
    26    2   24 1
    27    3   25 1
    28    4   26 1
    29    5   27 1
    30    6   28 1
    31    7   29 1
    32    8   30 1
    33    9   31 1
    34   10   32 1
    35   17   33 1
    36   17   34 1
    37   17   35 1
    38   18   36 1
    39   18   37 1
    40   18   38 1
@<TRIPOS>Similarity
1.4748
@<TRIPOS>ShapeSim
0.8967
@<TRIPOS>PharmSim
0.5781
# END
# Name:		AO-081/40738502
# Created and modified by SHAFTS on Tue Sep 23 17:55:45 2014

# 

@<TRIPOS>MOLECULE
AO-081/40738502
   52    55     0
SMALL
USER_CHARGE


@<TRIPOS>ATOM
      1 C1          5.9441   -3.0837    2.2603 C.ar      1 <1>        -0.0901
      2 C2          6.1332   -2.7965    0.9084 C.ar      1 <1>        -0.0808
      3 C3          5.0102   -2.3614    3.0029 C.ar      1 <1>        -0.0813
      4 C4         -0.3240    1.2795   -0.4523 C.ar      1 <1>        -0.0685
      5 C5          0.5930    2.8907    1.0970 C.ar      1 <1>        -0.0675
      6 C6         -1.5897    1.8426   -0.2888 C.ar      1 <1>        -0.0897
      7 C7         -0.6727    3.4538    1.2605 C.ar      1 <1>        -0.0903
      8 C8          5.3881   -1.7869    0.2993 C.ar      1 <1>        -0.0545
      9 C9          4.2652   -1.3517    2.3936 C.ar      1 <1>        -0.0550
     10 C10         4.4073    2.4847   -2.6223 C.ar      1 <1>        -0.0035
     11 C11         3.0524    1.5792   -0.8791 C.ar      1 <1>         0.0633
     12 C12         0.7672    1.8036    0.2406 C.ar      1 <1>        -0.0303
     13 C13        -1.7640    2.9297    0.5676 C.ar      1 <1>        -0.1080
     14 C14         3.1999    2.4999   -1.9239 C.ar      1 <1>         0.1055
     15 C15         4.4541   -1.0644    1.0418 C.ar      1 <1>        -0.0092
     16 C16         2.0749    1.2220    0.0708 C.2       1 <1>         0.0421
     17 C17         5.3877    1.5705   -2.2516 C.ar      1 <1>        -0.0257
     18 C18         4.1096    0.7228   -0.6139 C.ar      1 <1>         0.0558
     19 C19         6.6765    1.5658   -3.0102 C.3       1 <1>        -0.0028
     20 C20        -4.1350    2.4867    1.2945 C.3       1 <1>        -0.0604
     21 C21        -3.6787    4.0617   -0.6153 C.3       1 <1>        -0.0606
     22 C22        -3.1912    4.7464    1.7247 C.3       1 <1>        -0.0604
     23 C23        -3.1174    3.5318    0.7407 C.3       1 <1>        -0.0511
     24 C24         2.1450    3.4800   -2.3186 C.3       1 <1>         0.3535
     25 N1          2.4699    0.2270    0.8719 N.2       1 <1>        -0.3093
     26 N2          5.2923    0.6622   -1.2505 N.ar      1 <1>        -0.3587
     27 N3          3.7096   -0.0553    0.4320 N.pl3     1 <1>        -0.2796
     28 F1          2.5069    4.2801   -3.3641 F         1 <1>        -0.2094
     29 F2          0.9740    2.8944   -2.7054 F         1 <1>        -0.2071
     30 F3          1.8137    4.3295   -1.3037 F         1 <1>        -0.2068
     31 H1          6.5228   -3.8709    2.7347 H         1 <1>         0.1212
     32 H2          6.8593   -3.3597    0.3298 H         1 <1>         0.1305
     33 H3          4.8626   -2.5865    4.0553 H         1 <1>         0.1295
     34 H4         -0.2051    0.4319   -1.1231 H         1 <1>         0.1385
     35 H5          1.4337    3.3107    1.6442 H         1 <1>         0.1444
     36 H6         -2.4344    1.4288   -0.8329 H         1 <1>         0.1270
     37 H7         -0.8002    4.3008    1.9295 H         1 <1>         0.1245
     38 H8          5.5445   -1.5737   -0.7554 H         1 <1>         0.1504
     39 H9          3.5399   -0.7968    2.9840 H         1 <1>         0.1492
     40 H10         4.5786    3.1771   -3.4419 H         1 <1>         0.1766
     41 H11         7.3924    2.2506   -2.5428 H         1 <1>         0.0995
     42 H12         7.1157    0.5617   -3.0354 H         1 <1>         0.0972
     43 H13         6.5226    1.8750   -4.0507 H         1 <1>         0.0976
     44 H14        -5.1393    2.9044    1.4311 H         1 <1>         0.0389
     45 H15        -4.2344    1.6279    0.6214 H         1 <1>         0.0404
     46 H16        -3.7968    2.1061    2.2656 H         1 <1>         0.0392
     47 H17        -4.6730    4.5049   -0.4922 H         1 <1>         0.0391
     48 H18        -3.0398    4.8296   -1.0672 H         1 <1>         0.0393
     49 H19        -3.7718    3.2395   -1.3345 H         1 <1>         0.0391
     50 H20        -4.2052    5.1535    1.8181 H         1 <1>         0.0392
     51 H21        -2.8683    4.4535    2.7305 H         1 <1>         0.0405
     52 H22        -2.5462    5.5643    1.3833 H         1 <1>         0.0389
@<TRIPOS>BOND
     1    1    2 ar
     2    1    3 ar
     3    2    8 ar
     4    3    9 ar
     5    4    6 ar
     6    4   12 ar
     7    5    7 ar
     8    5   12 ar
     9    6   13 ar
    10    7   13 ar
    11    8   15 ar
    12    9   15 ar
    13   10   14 ar
    14   10   17 ar
    15   11   14 ar
    16   11   16 1
    17   11   18 ar
    18   12   16 1
    19   13   23 1
    20   14   24 1
    21   15   27 1
    22   16   25 2
    23   17   19 1
    24   17   26 ar
    25   18   26 ar
    26   18   27 1
    27   20   23 1
    28   21   23 1
    29   22   23 1
    30   24   28 1
    31   24   29 1
    32   24   30 1
    33   25   27 1
    34    1   31 1
    35    2   32 1
    36    3   33 1
    37    4   34 1
    38    5   35 1
    39    6   36 1
    40    7   37 1
    41    8   38 1
    42    9   39 1
    43   10   40 1
    44   19   41 1
    45   19   42 1
    46   19   43 1
    47   20   44 1
    48   20   45 1
    49   20   46 1
    50   21   47 1
    51   21   48 1
    52   21   49 1
    53   22   50 1
    54   22   51 1
    55   22   52 1
@<TRIPOS>Similarity
1.4735
@<TRIPOS>ShapeSim
0.8281
@<TRIPOS>PharmSim
0.6454
# END
# Name:		AG-690/12404942
# Created and modified by SHAFTS on Tue Sep 23 17:55:45 2014

# 

@<TRIPOS>MOLECULE
AG-690/12404942
   38    41     0
SMALL
USER_CHARGE


@<TRIPOS>ATOM
      1 C1          4.5174   -1.5608    2.3880 C.ar      1 <1>        -0.0675
      2 C2          5.9071   -2.2376    0.5311 C.ar      1 <1>        -0.0718
      3 C3          0.9273    3.3650    0.4450 C.ar      1 <1>        -0.0738
      4 C4          0.3484    1.1275   -0.2584 C.ar      1 <1>        -0.0723
      5 C5          5.0422   -2.5982    3.1589 C.ar      1 <1>        -0.0902
      6 C6          6.4321   -3.2748    1.3020 C.ar      1 <1>        -0.0926
      7 C7         -0.4173    3.7313    0.3869 C.ar      1 <1>        -0.0664
      8 C8         -0.9963    1.4935   -0.3164 C.ar      1 <1>        -0.0658
      9 C9          4.1721    2.8224   -2.7806 C.2       1 <1>         0.0557
     10 C10         4.9499   -1.3807    1.0741 C.ar      1 <1>        -0.0414
     11 C11         1.3103    2.0631    0.1224 C.ar      1 <1>        -0.0602
     12 C12         5.9996   -3.4551    2.6160 C.ar      1 <1>        -0.1062
     13 C13        -1.3791    2.7955    0.0062 C.ar      1 <1>        -0.0367
     14 C14         4.6070    1.2480   -1.4438 C.2       1 <1>         0.0752
     15 C15         4.3898   -0.2718    0.2493 C.2       1 <1>         0.0005
     16 C16         2.9573    0.1834    0.5299 C.3       1 <1>         0.0389
     17 C17         2.7696    1.6656    0.1854 C.3       1 <1>         0.0584
     18 C18         6.5614   -4.5634    3.4410 C.3       1 <1>        -0.0409
     19 N1          5.0413    1.7901   -2.5671 N.2       1 <1>        -0.3130
     20 N2          3.2168    2.9734   -1.8631 N.2       1 <1>        -0.3206
     21 N3          5.1213    0.2332   -0.7029 N.2       1 <1>        -0.3239
     22 N4          3.4886    1.9415   -1.0515 N.pl3     1 <1>        -0.2906
     23 Br1        -3.2006    3.2927   -0.0729 Br        1 <1>        -0.1389
     24 H1          3.7719   -0.8986    2.8206 H         1 <1>         0.1515
     25 H2          6.2514   -2.1067   -0.4914 H         1 <1>         0.1394
     26 H3          1.6698    4.1007    0.7429 H         1 <1>         0.1342
     27 H4          0.6375    0.1110   -0.5124 H         1 <1>         0.1403
     28 H5          4.6999   -2.7310    4.1816 H         1 <1>         0.1241
     29 H6          7.1780   -3.9375    0.8711 H         1 <1>         0.1223
     30 H7         -0.6986    4.7502    0.6405 H         1 <1>         0.1425
     31 H8         -1.7333    0.7525   -0.6147 H         1 <1>         0.1436
     32 H9          4.2403    3.4844   -3.6311 H         1 <1>         0.3086
     33 H10         2.2425   -0.4521    0.0085 H         1 <1>         0.1351
     34 H11         2.8098    0.0501    1.6049 H         1 <1>         0.1424
     35 H12         3.2566    2.2837    0.9899 H         1 <1>         0.1758
     36 H13         5.9584   -5.4717    3.3215 H         1 <1>         0.0635
     37 H14         7.5952   -4.7913    3.1512 H         1 <1>         0.0605
     38 H15         6.5814   -4.2965    4.5056 H         1 <1>         0.0603
@<TRIPOS>BOND
     1    1    5 ar
     2    1   10 ar
     3    2    6 ar
     4    2   10 ar
     5    3    7 ar
     6    3   11 ar
     7    4    8 ar
     8    4   11 ar
     9    5   12 ar
    10    6   12 ar
    11    7   13 ar
    12    8   13 ar
    13    9   19 1
    14    9   20 2
    15   10   15 1
    16   11   17 1
    17   12   18 1
    18   13   23 1
    19   14   19 2
    20   14   21 1
    21   14   22 1
    22   15   16 1
    23   15   21 2
    24   16   17 1
    25   17   22 1
    26   20   22 1
    27    1   24 1
    28    2   25 1
    29    3   26 1
    30    4   27 1
    31    5   28 1
    32    6   29 1
    33    7   30 1
    34    8   31 1
    35    9   32 1
    36   16   33 1
    37   16   34 1
    38   17   35 1
    39   18   36 1
    40   18   37 1
    41   18   38 1
@<TRIPOS>Similarity
1.4710
@<TRIPOS>ShapeSim
0.9029
@<TRIPOS>PharmSim
0.5681
# END
# Name:		AO-435/41051597
# Created and modified by SHAFTS on Tue Sep 23 17:55:45 2014

# 

@<TRIPOS>MOLECULE
AO-435/41051597
   35    38     0
SMALL
USER_CHARGE


@<TRIPOS>ATOM
      1 C1          6.2993   -3.3194    2.2952 C.ar      1 <1>        -0.0984
      2 C2         -1.5052    3.3451   -0.0172 C.ar      1 <1>        -0.0984
      3 C3          5.6622    1.4979   -2.3341 C.ar      1 <1>        -0.0965
      4 C4          4.5984    2.4069   -2.6495 C.ar      1 <1>        -0.0965
      5 C5          6.3889   -2.0079    2.7618 C.ar      1 <1>        -0.0954
      6 C6          5.4752   -3.6189    1.2104 C.ar      1 <1>        -0.0946
      7 C7         -0.3625    4.0173   -0.4506 C.ar      1 <1>        -0.0947
      8 C8         -1.4210    2.0102    0.3789 C.ar      1 <1>        -0.0954
      9 C9          5.6020    0.5369   -1.3010 C.ar      1 <1>        -0.0864
     10 C10         3.3642    2.4493   -1.9643 C.ar      1 <1>        -0.0864
     11 C11         5.6543   -0.9961    2.1436 C.ar      1 <1>        -0.0845
     12 C12         4.7407   -2.6070    0.5923 C.ar      1 <1>        -0.0833
     13 C13         0.8645    3.3548   -0.4883 C.ar      1 <1>        -0.0833
     14 C14        -0.1940    1.3477    0.3413 C.ar      1 <1>        -0.0845
     15 C15         4.3806    0.5856   -0.6301 C.ar      1 <1>        -0.0584
     16 C16         3.3133    1.4977   -0.9465 C.ar      1 <1>        -0.0584
     17 C17         4.8302   -1.2956    1.0588 C.ar      1 <1>        -0.0622
     18 C18         0.9486    2.0200   -0.0922 C.ar      1 <1>        -0.0622
     19 C19         4.0690   -0.2458    0.4172 C.2       1 <1>        -0.0254
     20 C20         2.2215    1.3331   -0.1305 C.2       1 <1>        -0.0254
     21 S1          2.4873    0.0767    1.0169 S.3       1 <1>        -0.1371
     22 H1          6.8717   -4.1071    2.7761 H         1 <1>         0.1165
     23 H2         -2.4603    3.8612    0.0127 H         1 <1>         0.1165
     24 H3          6.5721    1.5541   -2.9315 H         1 <1>         0.1164
     25 H4          4.7557    3.1064   -3.4702 H         1 <1>         0.1164
     26 H5          7.0305   -1.7750    3.6066 H         1 <1>         0.1189
     27 H6          5.4063   -4.6400    0.8463 H         1 <1>         0.1197
     28 H7         -0.4283    5.0567   -0.7592 H         1 <1>         0.1196
     29 H8         -2.3105    1.4871    0.7175 H         1 <1>         0.1189
     30 H9          6.4228   -0.1342   -1.0869 H         1 <1>         0.1251
     31 H10         2.5797    3.1458   -2.2276 H         1 <1>         0.1251
     32 H11         5.7370    0.0217    2.5175 H         1 <1>         0.1270
     33 H12         4.1019   -2.8570   -0.2516 H         1 <1>         0.1303
     34 H13         1.7464    3.8935   -0.8262 H         1 <1>         0.1304
     35 H14        -0.1451    0.3068    0.6521 H         1 <1>         0.1270
@<TRIPOS>BOND
     1    1    5 ar
     2    1    6 ar
     3    2    7 ar
     4    2    8 ar
     5    3    4 ar
     6    3    9 ar
     7    4   10 ar
     8    5   11 ar
     9    6   12 ar
    10    7   13 ar
    11    8   14 ar
    12    9   15 ar
    13   10   16 ar
    14   11   17 ar
    15   12   17 ar
    16   13   18 ar
    17   14   18 ar
    18   15   16 ar
    19   15   19 2
    20   16   20 2
    21   17   19 1
    22   18   20 1
    23   19   21 1
    24   20   21 1
    25    1   22 1
    26    2   23 1
    27    3   24 1
    28    4   25 1
    29    5   26 1
    30    6   27 1
    31    7   28 1
    32    8   29 1
    33    9   30 1
    34   10   31 1
    35   11   32 1
    36   12   33 1
    37   13   34 1
    38   14   35 1
@<TRIPOS>Similarity
1.4674
@<TRIPOS>ShapeSim
0.9096
@<TRIPOS>PharmSim
0.5578
# END
# Name:		AF-399/14664025
# Created and modified by SHAFTS on Tue Sep 23 17:55:45 2014

# 

@<TRIPOS>MOLECULE
AF-399/14664025
   29    32     0
SMALL
USER_CHARGE


@<TRIPOS>ATOM
      1 C1          0.7998    3.4972    0.0902 C.ar      1 <1>        -0.0885
      2 C2          0.2345    1.2141   -0.4618 C.ar      1 <1>        -0.0852
      3 C3         -0.4634    3.6735    0.6550 C.ar      1 <1>        -0.1007
      4 C4         -1.0288    1.3903    0.1031 C.ar      1 <1>        -0.0974
      5 C5          2.8602    2.8710   -2.1086 C.2       1 <1>         0.0046
      6 C6          4.3810   -1.4155    1.4515 C.2       1 <1>         0.0719
      7 C7          1.1487    2.2676   -0.4683 C.ar      1 <1>        -0.0669
      8 C8          2.4522    2.0861   -1.0502 C.2       1 <1>        -0.0138
      9 C9          3.4632    1.1688   -0.6942 C.2       1 <1>         0.0383
     10 C10        -1.3776    2.6199    0.6615 C.ar      1 <1>        -0.1111
     11 C11         4.6140    1.2553   -1.4638 C.2       1 <1>         0.0578
     12 C12         3.4941    0.1996    0.2956 C.2       1 <1>         0.0782
     13 C13         5.7388   -0.4033   -0.4034 C.2       1 <1>         0.0638
     14 C14        -2.7274    2.8091    1.2668 C.3       1 <1>        -0.0439
     15 N1          3.1730   -1.1869    1.9282 N.2       1 <1>        -0.2857
     16 N2          2.6060   -0.1557    1.1908 N.2       1 <1>        -0.2819
     17 N3          5.7553    0.4976   -1.3499 N.2       1 <1>        -0.3213
     18 N4          4.6254   -0.5631    0.4207 N.pl3     1 <1>        -0.2606
     19 S1          4.4467    2.4845   -2.6430 S.3       1 <1>        -0.0919
     20 H1          1.5006    4.3288    0.0926 H         1 <1>         0.1245
     21 H2          0.4915    0.2494   -0.8932 H         1 <1>         0.1293
     22 H3         -0.7270    4.6344    1.0887 H         1 <1>         0.1147
     23 H4         -1.7352    0.5645    0.1041 H         1 <1>         0.1193
     24 H5          2.3120    3.6611   -2.6045 H         1 <1>         0.2154
     25 H6          5.0864   -2.1543    1.8035 H         1 <1>         0.3146
     26 H7          6.6106   -1.0564   -0.2389 H         1 <1>         0.3437
     27 H8         -3.4377    3.1682    0.5120 H         1 <1>         0.0591
     28 H9         -3.1111    1.8700    1.6865 H         1 <1>         0.0572
     29 H10        -2.6971    3.5353    2.0894 H         1 <1>         0.0567
@<TRIPOS>BOND
     1    1    3 ar
     2    1    7 ar
     3    2    4 ar
     4    2    7 ar
     5    3   10 ar
     6    4   10 ar
     7    5    8 2
     8    5   19 1
     9    6   15 2
    10    6   18 1
    11    7    8 1
    12    8    9 1
    13    9   11 2
    14    9   12 1
    15   10   14 1
    16   11   17 1
    17   11   19 1
    18   12   16 2
    19   12   18 1
    20   13   17 2
    21   13   18 1
    22   15   16 1
    23    1   20 1
    24    2   21 1
    25    3   22 1
    26    4   23 1
    27    5   24 1
    28    6   25 1
    29   13   26 1
    30   14   27 1
    31   14   28 1
    32   14   29 1
@<TRIPOS>Similarity
1.4659
@<TRIPOS>ShapeSim
0.8352
@<TRIPOS>PharmSim
0.6306
# END
# Name:		AN-919/15183003
# Created and modified by SHAFTS on Tue Sep 23 17:55:45 2014

# 

@<TRIPOS>MOLECULE
AN-919/15183003
   35    37     0
SMALL
USER_CHARGE


@<TRIPOS>ATOM
      1 C1          3.1922    2.9665   -2.3997 C.1       1 <1>         0.0178
      2 C2          5.9756   -3.2916    2.4576 C.ar      1 <1>        -0.1021
      3 C3          5.0636   -2.3815    2.9918 C.ar      1 <1>        -0.0942
      4 C4          6.3958   -3.1627    1.1338 C.ar      1 <1>        -0.0972
      5 C5          4.5715   -1.3423    2.2020 C.ar      1 <1>        -0.0736
      6 C6          5.9037   -2.1235    0.3441 C.ar      1 <1>        -0.0787
      7 C7          1.2874    3.0304    0.5410 C.ar      1 <1>        -0.0635
      8 C8          0.3712    1.4203   -1.0098 C.ar      1 <1>        -0.0638
      9 C9          0.0123    3.5568    0.7477 C.ar      1 <1>        -0.0418
     10 C10        -0.9039    1.9466   -0.8032 C.ar      1 <1>        -0.0415
     11 C11         3.2146    0.3805    0.2720 C.ar      1 <1>        -0.0366
     12 C12         3.6329    1.8957   -1.5483 C.ar      1 <1>         0.0564
     13 C13         1.4669    1.9621   -0.3378 C.ar      1 <1>        -0.0477
     14 C14         4.9916   -1.2133    0.8781 C.ar      1 <1>        -0.0531
     15 C15         2.7894    1.4163   -0.5523 C.ar      1 <1>        -0.0035
     16 C16        -1.0834    3.0150    0.0756 C.ar      1 <1>         0.0490
     17 C17         4.4823   -0.1374    0.0612 C.ar      1 <1>        -0.0271
     18 C18         4.8820    1.3101   -1.6776 C.ar      1 <1>        -0.0691
     19 C19        -2.4465    3.5779    0.2964 C.3       1 <1>         0.3272
     20 N1          2.8363    3.8312   -3.0871 N.1       1 <1>        -0.3965
     21 N2          5.3300    0.3021   -0.8959 N.ar      1 <1>        -0.4002
     22 F1         -2.4725    4.6189    1.1807 F         1 <1>        -0.2246
     23 F2         -3.0289    4.0622   -0.8404 F         1 <1>        -0.2245
     24 F3         -3.3220    2.6552    0.7918 F         1 <1>        -0.2247
     25 S1          6.0768    1.8479   -2.9415 S.3       1 <1>        -0.4279
     26 H1          6.3599   -4.0997    3.0732 H         1 <1>         0.1087
     27 H2          4.7377   -2.4808    4.0230 H         1 <1>         0.1143
     28 H3          7.1069   -3.8702    0.7177 H         1 <1>         0.1112
     29 H4          3.8613   -0.6406    2.6330 H         1 <1>         0.1455
     30 H5          6.2408   -2.0353   -0.6860 H         1 <1>         0.1310
     31 H6          2.1316    3.4643    1.0717 H         1 <1>         0.1455
     32 H7          0.4948    0.5870   -1.6976 H         1 <1>         0.1432
     33 H8         -0.1180    4.3899    1.4332 H         1 <1>         0.1482
     34 H9         -1.7521    1.5179   -1.3305 H         1 <1>         0.1490
     35 H10         2.5747   -0.0119    1.0578 H         1 <1>         0.1449
@<TRIPOS>BOND
     1    1   12 1
     2    1   20 3
     3    2    3 ar
     4    2    4 ar
     5    3    5 ar
     6    4    6 ar
     7    5   14 ar
     8    6   14 ar
     9    7    9 ar
    10    7   13 ar
    11    8   10 ar
    12    8   13 ar
    13    9   16 ar
    14   10   16 ar
    15   11   15 ar
    16   11   17 ar
    17   12   15 ar
    18   12   18 ar
    19   13   15 1
    20   14   17 1
    21   16   19 1
    22   17   21 ar
    23   18   21 ar
    24   18   25 1
    25   19   22 1
    26   19   23 1
    27   19   24 1
    28    2   26 1
    29    3   27 1
    30    4   28 1
    31    5   29 1
    32    6   30 1
    33    7   31 1
    34    8   32 1
    35    9   33 1
    36   10   34 1
    37   11   35 1
@<TRIPOS>Similarity
1.4650
@<TRIPOS>ShapeSim
0.8857
@<TRIPOS>PharmSim
0.5793
# END
# Name:		AO-476/42008147
# Created and modified by SHAFTS on Tue Sep 23 17:55:45 2014

# 

@<TRIPOS>MOLECULE
AO-476/42008147
   44    47     0
SMALL
USER_CHARGE


@<TRIPOS>ATOM
      1 C1          3.0073    2.9076   -2.2808 C.1       1 <1>         0.0481
      2 C2          6.5532   -3.0830    1.3929 C.ar      1 <1>        -0.0892
      3 C3          5.9277   -3.3806    2.5998 C.ar      1 <1>        -0.0945
      4 C4          6.0702   -2.0492    0.5869 C.ar      1 <1>        -0.0703
      5 C5          1.1702    3.2580    0.1014 C.ar      1 <1>        -0.0644
      6 C6          0.2085    1.0738   -0.2751 C.ar      1 <1>        -0.0650
      7 C7          4.8152   -2.6471    3.0044 C.ar      1 <1>        -0.0916
      8 C8         -0.1054    3.7853    0.3015 C.ar      1 <1>        -0.0555
      9 C9         -1.0672    1.6012   -0.0749 C.ar      1 <1>        -0.0557
     10 C10         3.4513    1.8477   -1.4231 C.ar      1 <1>         0.1232
     11 C11         1.3273    1.9021   -0.1871 C.ar      1 <1>        -0.0431
     12 C12         4.9477   -1.2970    0.9717 C.ar      1 <1>        -0.0468
     13 C13         2.6586    1.3521   -0.3964 C.ar      1 <1>         0.0182
     14 C14         4.3147   -1.6178    2.1948 C.ar      1 <1>        -0.0812
     15 C15         3.1381    0.3233    0.4160 C.ar      1 <1>        -0.0298
     16 C16        -1.2242    2.9569    0.2134 C.ar      1 <1>        -0.0145
     17 C17         4.4105   -0.1986    0.1493 C.ar      1 <1>        -0.0043
     18 C18         4.6994    1.2809   -1.6071 C.ar      1 <1>         0.0986
     19 C19         6.8262   -0.4047   -3.8184 C.2       1 <1>        -0.1119
     20 C20         7.3893    0.2897   -2.8235 C.2       1 <1>        -0.0900
     21 C21         3.1415   -0.7907    2.6681 C.3       1 <1>        -0.0190
     22 C22         2.2896   -0.2758    1.5041 C.3       1 <1>        -0.0078
     23 C23         6.9215    1.6350   -2.3768 C.3       1 <1>         0.0408
     24 N1          2.6481    3.7653   -2.9750 N.1       1 <1>        -0.3780
     25 N2          5.1941    0.2743   -0.8516 N.ar      1 <1>        -0.3323
     26 O1          5.5217    1.7320   -2.6076 O.3       1 <1>        -0.4025
     27 Cl1        -2.7981    3.6085    0.4591 Cl        1 <1>        -0.1820
     28 H1          7.4215   -3.6543    1.0770 H         1 <1>         0.1202
     29 H2          6.3090   -4.1805    3.2274 H         1 <1>         0.1214
     30 H3          6.5854   -1.8456   -0.3491 H         1 <1>         0.1441
     31 H4          2.0327    3.9165    0.1732 H         1 <1>         0.1457
     32 H5          0.3144    0.0152   -0.5001 H         1 <1>         0.1430
     33 H6          4.3421   -2.8795    3.9550 H         1 <1>         0.1227
     34 H7         -0.2135    4.8440    0.5237 H         1 <1>         0.1474
     35 H8         -1.9302    0.9442   -0.1478 H         1 <1>         0.1471
     36 H9          7.1985   -1.3801   -4.1110 H         1 <1>         0.0861
     37 H10         5.9766   -0.0008   -4.3579 H         1 <1>         0.0903
     38 H11         8.2451   -0.1388   -2.3084 H         1 <1>         0.1087
     39 H12         2.5044   -1.3773    3.3405 H         1 <1>         0.0828
     40 H13         3.5375    0.0559    3.2440 H         1 <1>         0.0802
     41 H14         1.5743    0.4455    1.9136 H         1 <1>         0.0849
     42 H15         1.7143   -1.1039    1.0700 H         1 <1>         0.0871
     43 H16         7.4212    2.4463   -2.9154 H         1 <1>         0.1430
     44 H17         7.1078    1.7551   -1.3050 H         1 <1>         0.1457
@<TRIPOS>BOND
     1    1   10 1
     2    1   24 3
     3    2    3 ar
     4    2    4 ar
     5    3    7 ar
     6    4   12 ar
     7    5    8 ar
     8    5   11 ar
     9    6    9 ar
    10    6   11 ar
    11    7   14 ar
    12    8   16 ar
    13    9   16 ar
    14   10   13 ar
    15   10   18 ar
    16   11   13 1
    17   12   14 ar
    18   12   17 1
    19   13   15 ar
    20   14   21 1
    21   15   17 ar
    22   15   22 1
    23   16   27 1
    24   17   25 ar
    25   18   25 ar
    26   18   26 1
    27   19   20 2
    28   20   23 1
    29   21   22 1
    30   23   26 1
    31    2   28 1
    32    3   29 1
    33    4   30 1
    34    5   31 1
    35    6   32 1
    36    7   33 1
    37    8   34 1
    38    9   35 1
    39   19   36 1
    40   19   37 1
    41   20   38 1
    42   21   39 1
    43   21   40 1
    44   22   41 1
    45   22   42 1
    46   23   43 1
    47   23   44 1
@<TRIPOS>Similarity
1.4624
@<TRIPOS>ShapeSim
0.8584
@<TRIPOS>PharmSim
0.6040
# END
# Name:		AE-842/31985041
# Created and modified by SHAFTS on Tue Sep 23 17:55:45 2014

# 

@<TRIPOS>MOLECULE
AE-842/31985041
   42    46     0
SMALL
USER_CHARGE


@<TRIPOS>ATOM
      1 C1         -1.2993    2.9492    0.1292 C.ar      1 <1>        -0.0960
      2 C2          5.8401   -3.4924    2.4554 C.ar      1 <1>        -0.0987
      3 C3         -0.2050    3.6137   -0.4240 C.ar      1 <1>        -0.0907
      4 C4         -1.1333    1.6874    0.7004 C.ar      1 <1>        -0.0910
      5 C5          5.7488   -3.4064    1.0662 C.ar      1 <1>        -0.0901
      6 C6          5.4095   -2.4295    3.2496 C.ar      1 <1>        -0.0901
      7 C7          1.0557    3.0168   -0.4061 C.ar      1 <1>        -0.0729
      8 C8          0.1271    1.0904    0.7185 C.ar      1 <1>        -0.0738
      9 C9          5.2270   -2.2579    0.4713 C.ar      1 <1>        -0.0732
     10 C10         4.8878   -1.2809    2.6547 C.ar      1 <1>        -0.0732
     11 C11         1.2217    1.7551    0.1653 C.ar      1 <1>        -0.0489
     12 C12         4.7964   -1.1950    1.2655 C.ar      1 <1>        -0.0510
     13 C13         2.5286    1.1361    0.1840 C.2       1 <1>        -0.0261
     14 C14         3.4348    0.5625   -3.3115 C.3       1 <1>        -0.0530
     15 C15         4.5808   -0.4671   -3.1032 C.3       1 <1>        -0.0533
     16 C16         5.3345    1.5627   -2.2819 C.3       1 <1>        -0.0467
     17 C17         3.5593    1.3950   -0.8753 C.3       1 <1>         0.0031
     18 C18         3.7901    1.7098   -2.3393 C.3       1 <1>        -0.0357
     19 C19         5.2862    0.0875   -1.8360 C.3       1 <1>        -0.0353
     20 C20         4.1970    0.0036   -0.7621 C.3       1 <1>         0.0042
     21 N1          3.0344    0.4026    1.1497 N.2       1 <1>        -0.3715
     22 N2          4.2797   -0.0576    0.6768 N.pl3     1 <1>        -0.3605
     23 H1         -2.2807    3.4140    0.1150 H         1 <1>         0.1187
     24 H2          6.2466   -4.3868    2.9186 H         1 <1>         0.1083
     25 H3         -0.3344    4.5960   -0.8690 H         1 <1>         0.1202
     26 H4         -1.9854    1.1700    1.1314 H         1 <1>         0.1204
     27 H5          6.0841   -4.2338    0.4481 H         1 <1>         0.1215
     28 H6          5.4807   -2.4966    4.3316 H         1 <1>         0.1210
     29 H7          1.9017    3.5436   -0.8398 H         1 <1>         0.1393
     30 H8          0.2447    0.1070    1.1662 H         1 <1>         0.1367
     31 H9          5.1603   -2.2008   -0.6122 H         1 <1>         0.1321
     32 H10         4.5551   -0.4591    3.2837 H         1 <1>         0.1317
     33 H11         3.4377    0.9098   -4.3504 H         1 <1>         0.0501
     34 H12         2.4507    0.1352   -3.0931 H         1 <1>         0.0458
     35 H13         4.2012   -1.4870   -2.9835 H         1 <1>         0.0484
     36 H14         5.2602   -0.4632   -3.9641 H         1 <1>         0.0456
     37 H15         5.8144    1.7137   -3.2560 H         1 <1>         0.0528
     38 H16         5.8280    2.2133   -1.5518 H         1 <1>         0.0560
     39 H17         4.1491    2.1667   -0.3399 H         1 <1>         0.0985
     40 H18         3.4259    2.6905   -2.6503 H         1 <1>         0.0748
     41 H19         6.2390   -0.3902   -1.6072 H         1 <1>         0.0815
     42 H20         3.4869   -0.7944   -1.0415 H         1 <1>         0.1212
@<TRIPOS>BOND
     1    1    3 ar
     2    1    4 ar
     3    2    5 ar
     4    2    6 ar
     5    3    7 ar
     6    4    8 ar
     7    5    9 ar
     8    6   10 ar
     9    7   11 ar
    10    8   11 ar
    11    9   12 ar
    12   10   12 ar
    13   11   13 1
    14   12   22 1
    15   13   17 1
    16   13   21 2
    17   14   15 1
    18   14   18 1
    19   15   19 1
    20   16   18 1
    21   16   19 1
    22   17   18 1
    23   17   20 1
    24   19   20 1
    25   20   22 1
    26   21   22 1
    27    1   23 1
    28    2   24 1
    29    3   25 1
    30    4   26 1
    31    5   27 1
    32    6   28 1
    33    7   29 1
    34    8   30 1
    35    9   31 1
    36   10   32 1
    37   14   33 1
    38   14   34 1
    39   15   35 1
    40   15   36 1
    41   16   37 1
    42   16   38 1
    43   17   39 1
    44   18   40 1
    45   19   41 1
    46   20   42 1
@<TRIPOS>Similarity
1.4527
@<TRIPOS>ShapeSim
0.8559
@<TRIPOS>PharmSim
0.5968
# END
# Name:		AH-262/11508001
# Created and modified by SHAFTS on Tue Sep 23 17:55:45 2014

# 

@<TRIPOS>MOLECULE
AH-262/11508001
   35    38     0
SMALL
USER_CHARGE


@<TRIPOS>ATOM
      1 C1          6.2244   -3.4101    2.4336 C.ar      1 <1>        -0.0961
      2 C2         -0.9365    2.9982    0.0071 C.ar      1 <1>        -0.0854
      3 C3          6.5191   -3.1892    1.0882 C.ar      1 <1>        -0.0915
      4 C4          5.2928   -2.6018    3.0853 C.ar      1 <1>        -0.0894
      5 C5          0.2383    3.7294    0.1829 C.ar      1 <1>        -0.0764
      6 C6         -0.8741    1.6258   -0.2346 C.ar      1 <1>        -0.0775
      7 C7          5.8824   -2.1602    0.3945 C.ar      1 <1>        -0.0717
      8 C8          4.6561   -1.5728    2.3915 C.ar      1 <1>        -0.0689
      9 C9          1.4753    3.0884    0.1167 C.ar      1 <1>        -0.0496
     10 C10         0.3630    0.9848   -0.3007 C.ar      1 <1>        -0.0510
     11 C11         4.9508   -1.3519    1.0463 C.ar      1 <1>        -0.0318
     12 C12         4.7991    0.4602   -0.7471 C.2       1 <1>         0.0878
     13 C13         1.5377    1.7160   -0.1250 C.ar      1 <1>        -0.0055
     14 C14         4.2932   -0.2889    0.3303 C.2       1 <1>         0.0467
     15 C15         3.7888    1.3381   -1.0625 C.2       1 <1>         0.1004
     16 C16         6.1357    1.4461   -2.5617 C.2       1 <1>         0.0367
     17 C17         5.1484    2.3035   -2.8693 C.2       1 <1>         0.0414
     18 C18         6.0504    0.4355   -1.4607 C.2       1 <1>         0.1131
     19 C19         3.8584    2.3105   -2.1142 C.2       1 <1>         0.1264
     20 N1          3.0553    0.0831    0.6750 N.2       1 <1>        -0.3118
     21 N2          2.7749    1.0758   -0.1908 N.pl3     1 <1>        -0.2710
     22 O1          6.9754   -0.3276   -1.2142 O.2       1 <1>        -0.4818
     23 O2          2.9748    3.1052   -2.4177 O.2       1 <1>        -0.4715
     24 H1          6.7193   -4.2119    2.9735 H         1 <1>         0.1179
     25 H2         -1.8998    3.4964    0.0602 H         1 <1>         0.1291
     26 H3          7.2435   -3.8191    0.5802 H         1 <1>         0.1184
     27 H4          5.0627   -2.7748    4.1324 H         1 <1>         0.1213
     28 H5          0.1900    4.7978    0.3725 H         1 <1>         0.1352
     29 H6         -1.7893    1.0568   -0.3700 H         1 <1>         0.1334
     30 H7          6.1229   -2.0005   -0.6540 H         1 <1>         0.1358
     31 H8          3.9323   -0.9515    2.9140 H         1 <1>         0.1430
     32 H9          2.3835    3.6700    0.2564 H         1 <1>         0.1598
     33 H10         0.3971   -0.0855   -0.4891 H         1 <1>         0.1564
     34 H11         7.0629    1.4621   -3.1262 H         1 <1>         0.2132
     35 H12         5.2596    3.0178   -3.6775 H         1 <1>         0.2152
@<TRIPOS>BOND
     1    1    3 ar
     2    1    4 ar
     3    2    5 ar
     4    2    6 ar
     5    3    7 ar
     6    4    8 ar
     7    5    9 ar
     8    6   10 ar
     9    7   11 ar
    10    8   11 ar
    11    9   13 ar
    12   10   13 ar
    13   11   14 1
    14   12   14 1
    15   12   15 2
    16   12   18 1
    17   13   21 1
    18   14   20 2
    19   15   19 1
    20   15   21 1
    21   16   17 2
    22   16   18 1
    23   17   19 1
    24   18   22 2
    25   19   23 2
    26   20   21 1
    27    1   24 1
    28    2   25 1
    29    3   26 1
    30    4   27 1
    31    5   28 1
    32    6   29 1
    33    7   30 1
    34    8   31 1
    35    9   32 1
    36   10   33 1
    37   16   34 1
    38   17   35 1
@<TRIPOS>Similarity
1.4517
@<TRIPOS>ShapeSim
0.9182
@<TRIPOS>PharmSim
0.5335
# END
# Name:		AK-087/11538930
# Created and modified by SHAFTS on Tue Sep 23 17:55:45 2014

# 

@<TRIPOS>MOLECULE
AK-087/11538930
   36    38     0
SMALL
USER_CHARGE


@<TRIPOS>ATOM
      1 C1          6.3925    1.6375   -1.8330 C.1       1 <1>        -0.0188
      2 C2          6.0318   -3.2305    2.3615 C.ar      1 <1>        -0.0893
      3 C3          5.7835   -3.3401    0.9935 C.ar      1 <1>        -0.0803
      4 C4          5.6135   -2.0965    3.0577 C.ar      1 <1>        -0.0828
      5 C5          1.0865    3.1706   -0.4264 C.ar      1 <1>        -0.0746
      6 C6          0.0873    1.1309    0.3972 C.ar      1 <1>        -0.0749
      7 C7         -0.1525    3.8071   -0.3535 C.ar      1 <1>        -0.0950
      8 C8         -1.1516    1.7675    0.4704 C.ar      1 <1>        -0.0950
      9 C9          5.1170   -2.3155    0.3213 C.ar      1 <1>        -0.0583
     10 C10         4.9469   -1.0719    2.3857 C.ar      1 <1>        -0.0626
     11 C11         3.5223    1.4604   -1.0317 C.2       1 <1>        -0.0244
     12 C12         1.2064    1.8325   -0.0511 C.ar      1 <1>        -0.0470
     13 C13        -1.2715    3.1056    0.0950 C.ar      1 <1>        -0.1097
     14 C14         4.6987   -1.1815    1.0174 C.ar      1 <1>        -0.0262
     15 C15         2.4825    1.1779   -0.1258 C.2       1 <1>        -0.0040
     16 C16         4.5174    0.5740   -0.6994 C.2       1 <1>         0.0076
     17 C17        -2.5955    3.7875    0.1738 C.3       1 <1>        -0.0434
     18 C18         5.8594    0.3761   -1.2820 C.3       1 <1>         0.1099
     19 N1          6.8025    2.6338   -2.2643 N.1       1 <1>        -0.4112
     20 N2          2.7886    0.1892    0.7186 N.2       1 <1>        -0.3475
     21 N3          4.0320   -0.1573    0.3446 N.pl3     1 <1>        -0.3148
     22 H1          6.5491   -4.0287    2.8856 H         1 <1>         0.1238
     23 H2          6.1081   -4.2236    0.4514 H         1 <1>         0.1321
     24 H3          5.8058   -2.0127    4.1235 H         1 <1>         0.1298
     25 H4          1.9492    3.7314   -0.7788 H         1 <1>         0.1376
     26 H5          0.1646    0.0874    0.6935 H         1 <1>         0.1366
     27 H6         -0.2369    4.8501   -0.6471 H         1 <1>         0.1189
     28 H7         -2.0188    1.2140    0.8209 H         1 <1>         0.1197
     29 H8          4.9291   -2.4139   -0.7452 H         1 <1>         0.1516
     30 H9          4.6256   -0.1938    2.9406 H         1 <1>         0.1391
     31 H10         3.5502    2.2023   -1.8173 H         1 <1>         0.1588
     32 H11        -3.1407    3.6737   -0.7711 H         1 <1>         0.0600
     33 H12        -3.2106    3.3714    0.9824 H         1 <1>         0.0576
     34 H13        -2.4800    4.8592    0.3821 H         1 <1>         0.0574
     35 H14         5.8403   -0.3835   -2.0829 H         1 <1>         0.2048
     36 H15         6.5688   -0.0140   -0.5315 H         1 <1>         0.2142
@<TRIPOS>BOND
     1    1   18 1
     2    1   19 3
     3    2    3 ar
     4    2    4 ar
     5    3    9 ar
     6    4   10 ar
     7    5    7 ar
     8    5   12 ar
     9    6    8 ar
    10    6   12 ar
    11    7   13 ar
    12    8   13 ar
    13    9   14 ar
    14   10   14 ar
    15   11   15 1
    16   11   16 2
    17   12   15 1
    18   13   17 1
    19   14   21 1
    20   15   20 2
    21   16   18 1
    22   16   21 1
    23   20   21 1
    24    2   22 1
    25    3   23 1
    26    4   24 1
    27    5   25 1
    28    6   26 1
    29    7   27 1
    30    8   28 1
    31    9   29 1
    32   10   30 1
    33   11   31 1
    34   17   32 1
    35   17   33 1
    36   17   34 1
    37   18   35 1
    38   18   36 1
@<TRIPOS>Similarity
1.4284
@<TRIPOS>ShapeSim
0.8620
@<TRIPOS>PharmSim
0.5664
# END
# Name:		AB-321/43115455
# Created and modified by SHAFTS on Tue Sep 23 17:55:45 2014

# 

@<TRIPOS>MOLECULE
AB-321/43115455
   42    45     0
SMALL
USER_CHARGE


@<TRIPOS>ATOM
      1 C1         -1.2185    3.2514   -0.0900 C.ar      1 <1>        -0.0999
      2 C2          6.1986   -3.2383    2.2696 C.ar      1 <1>        -0.0907
      3 C3          5.0826    2.3053   -2.8315 C.ar      1 <1>        -0.0881
      4 C4         -0.0369    3.9687    0.0972 C.ar      1 <1>        -0.0965
      5 C5         -1.1706    1.8766   -0.3208 C.ar      1 <1>        -0.0951
      6 C6          6.0574    1.3851   -2.4513 C.ar      1 <1>        -0.0837
      7 C7          5.9269   -3.3392    0.9051 C.ar      1 <1>        -0.0850
      8 C8          5.7765   -2.1170    2.9836 C.ar      1 <1>        -0.0835
      9 C9          3.8532    2.3629   -2.1650 C.ar      1 <1>        -0.0715
     10 C10         1.1924    3.3112    0.0536 C.ar      1 <1>        -0.0831
     11 C11         0.0588    1.2191   -0.3645 C.ar      1 <1>        -0.0816
     12 C12         5.8364    0.4952   -1.3962 C.ar      1 <1>        -0.0664
     13 C13         5.2331   -2.3187    0.2548 C.ar      1 <1>        -0.0669
     14 C14         5.0827   -1.0964    2.3334 C.ar      1 <1>        -0.0651
     15 C15         3.6076    1.4757   -1.0981 C.ar      1 <1>        -0.0336
     16 C16         1.2404    1.9364   -0.1773 C.ar      1 <1>        -0.0553
     17 C17         2.5070    1.2588   -0.2225 C.2       1 <1>         0.0013
     18 C18         4.6028    0.5642   -0.7391 C.ar      1 <1>        -0.0278
     19 C19         4.8112   -1.1973    0.9690 C.ar      1 <1>        -0.0360
     20 C20         2.8489    0.2385    0.6349 C.2       1 <1>         0.0794
     21 C21         2.0585   -0.3281    1.6911 C.2       1 <1>         0.1630
     22 C22         0.9283    0.1576    3.7529 C.3       1 <1>         0.0405
     23 N1          4.1148   -0.1738    0.3157 N.pl3     1 <1>        -0.3208
     24 O1          1.7067   -1.5240    1.7633 O.2       1 <1>        -0.4485
     25 O2          1.7177    0.6024    2.6445 O.3       1 <1>        -0.3818
     26 H1         -2.1759    3.7629   -0.0549 H         1 <1>         0.1130
     27 H2          6.7371   -4.0334    2.7767 H         1 <1>         0.1224
     28 H3          5.2773    2.9867   -3.6554 H         1 <1>         0.1191
     29 H4         -0.0740    5.0389    0.2783 H         1 <1>         0.1150
     30 H5         -2.0908    1.3180   -0.4653 H         1 <1>         0.1167
     31 H6          7.0052    1.3578   -2.9833 H         1 <1>         0.1303
     32 H7          6.2542   -4.2128    0.3492 H         1 <1>         0.1267
     33 H8          5.9872   -2.0397    4.0464 H         1 <1>         0.1282
     34 H9          3.1045    3.0871   -2.4730 H         1 <1>         0.1393
     35 H10         2.1047    3.8845    0.2013 H         1 <1>         0.1268
     36 H11         0.0792    0.1469   -0.5454 H         1 <1>         0.1285
     37 H12         6.6016   -0.2174   -1.1067 H         1 <1>         0.1370
     38 H13         5.0271   -2.4103   -0.8089 H         1 <1>         0.1415
     39 H14         4.7589   -0.2282    2.9022 H         1 <1>         0.1446
     40 H15         0.7358    0.9977    4.4246 H         1 <1>         0.1435
     41 H16         1.4608   -0.6343    4.2860 H         1 <1>         0.1219
     42 H17        -0.0214   -0.2323    3.3793 H         1 <1>         0.1222
@<TRIPOS>BOND
     1    1    4 ar
     2    1    5 ar
     3    2    7 ar
     4    2    8 ar
     5    3    6 ar
     6    3    9 ar
     7    4   10 ar
     8    5   11 ar
     9    6   12 ar
    10    7   13 ar
    11    8   14 ar
    12    9   15 ar
    13   10   16 ar
    14   11   16 ar
    15   12   18 ar
    16   13   19 ar
    17   14   19 ar
    18   15   17 1
    19   15   18 ar
    20   16   17 1
    21   17   20 2
    22   18   23 1
    23   19   23 1
    24   20   21 1
    25   20   23 1
    26   21   24 2
    27   21   25 1
    28   22   25 1
    29    1   26 1
    30    2   27 1
    31    3   28 1
    32    4   29 1
    33    5   30 1
    34    6   31 1
    35    7   32 1
    36    8   33 1
    37    9   34 1
    38   10   35 1
    39   11   36 1
    40   12   37 1
    41   13   38 1
    42   14   39 1
    43   22   40 1
    44   22   41 1
    45   22   42 1
@<TRIPOS>Similarity
1.4283
@<TRIPOS>ShapeSim
0.8690
@<TRIPOS>PharmSim
0.5593
# END
# Name:		AK-087/42718235
# Created and modified by SHAFTS on Tue Sep 23 17:55:45 2014

# 

@<TRIPOS>MOLECULE
AK-087/42718235
   33    35     0
SMALL
USER_CHARGE


@<TRIPOS>ATOM
      1 C1          6.3923    1.6371   -1.8336 C.1       1 <1>        -0.0184
      2 C2          6.0317   -3.2305    2.3616 C.ar      1 <1>        -0.0890
      3 C3          5.7832   -3.3402    0.9934 C.ar      1 <1>        -0.0825
      4 C4          5.6136   -2.0963    3.0577 C.ar      1 <1>        -0.0800
      5 C5          1.0863    3.1710   -0.4263 C.ar      1 <1>        -0.0581
      6 C6          0.0878    1.1310    0.3972 C.ar      1 <1>        -0.0579
      7 C7          5.1168   -2.3157    0.3214 C.ar      1 <1>        -0.0623
      8 C8          4.9471   -1.0718    2.3856 C.ar      1 <1>        -0.0580
      9 C9         -0.1529    3.8070   -0.3534 C.ar      1 <1>        -0.0541
     10 C10        -1.1515    1.7670    0.4701 C.ar      1 <1>        -0.0541
     11 C11         3.5223    1.4604   -1.0318 C.2       1 <1>        -0.0227
     12 C12         1.2067    1.8329   -0.0510 C.ar      1 <1>        -0.0372
     13 C13         4.6987   -1.1814    1.0174 C.ar      1 <1>        -0.0256
     14 C14        -1.2719    3.1050    0.0949 C.ar      1 <1>        -0.0154
     15 C15         2.4825    1.1782   -0.1257 C.2       1 <1>        -0.0003
     16 C16         4.5174    0.5740   -0.6996 C.2       1 <1>         0.0087
     17 C17         5.8591    0.3758   -1.2823 C.3       1 <1>         0.1104
     18 N1          6.8024    2.6333   -2.2649 N.1       1 <1>        -0.4108
     19 N2          2.7888    0.1895    0.7187 N.2       1 <1>        -0.3455
     20 N3          4.0320   -0.1571    0.3445 N.pl3     1 <1>        -0.3137
     21 Cl1        -2.8015    3.8885    0.1839 Cl        1 <1>        -0.1852
     22 H1          6.5491   -4.0287    2.8857 H         1 <1>         0.1244
     23 H2          6.1076   -4.2238    0.4515 H         1 <1>         0.1303
     24 H3          5.8062   -2.0123    4.1234 H         1 <1>         0.1325
     25 H4          1.9488    3.7329   -0.7778 H         1 <1>         0.1503
     26 H5          0.1655    0.0875    0.6934 H         1 <1>         0.1511
     27 H6          4.9288   -2.4141   -0.7451 H         1 <1>         0.1395
     28 H7          4.6260   -0.1935    2.9405 H         1 <1>         0.1519
     29 H8         -0.2320    4.8500   -0.6491 H         1 <1>         0.1462
     30 H9         -2.0148    1.2071    0.8201 H         1 <1>         0.1454
     31 H10         3.5503    2.2022   -1.8176 H         1 <1>         0.1604
     32 H11         5.8399   -0.3838   -2.0832 H         1 <1>         0.2053
     33 H12         6.5687   -0.0144   -0.5321 H         1 <1>         0.2148
@<TRIPOS>BOND
     1    1   17 1
     2    1   18 3
     3    2    3 ar
     4    2    4 ar
     5    3    7 ar
     6    4    8 ar
     7    5    9 ar
     8    5   12 ar
     9    6   10 ar
    10    6   12 ar
    11    7   13 ar
    12    8   13 ar
    13    9   14 ar
    14   10   14 ar
    15   11   15 1
    16   11   16 2
    17   12   15 1
    18   13   20 1
    19   14   21 1
    20   15   19 2
    21   16   17 1
    22   16   20 1
    23   19   20 1
    24    2   22 1
    25    3   23 1
    26    4   24 1
    27    5   25 1
    28    6   26 1
    29    7   27 1
    30    8   28 1
    31    9   29 1
    32   10   30 1
    33   11   31 1
    34   17   32 1
    35   17   33 1
@<TRIPOS>Similarity
1.4276
@<TRIPOS>ShapeSim
0.8613
@<TRIPOS>PharmSim
0.5664
# END
# Name:		ZINC00384358
# Created and modified by SHAFTS on Tue Sep 23 17:55:45 2014

# 

@<TRIPOS>MOLECULE
ZINC00384358
   33    35     0
SMALL
USER_CHARGE


@<TRIPOS>ATOM
      1 C1          6.5423   -3.1606    1.3535 C.ar      1 <1>        -0.0571
      2 C2          5.9092   -2.1393    0.6541 C.ar      1 <1>        -0.0450
      3 C3          1.2536    3.0486   -0.3995 C.ar      1 <1>        -0.0778
      4 C4          0.2236    1.0253    0.4266 C.ar      1 <1>        -0.0812
      5 C5          0.0210    3.6989   -0.3437 C.ar      1 <1>        -0.0952
      6 C6         -1.0092    1.6757    0.4823 C.ar      1 <1>        -0.0970
      7 C7          6.0658   -3.4743    2.6161 C.ar      1 <1>        -0.0377
      8 C8          4.4336   -1.8616    2.4985 C.ar      1 <1>        -0.0102
      9 C9          3.5970    1.3756   -0.9906 C.2       1 <1>        -0.0078
     10 C10         1.3550    1.7117   -0.0143 C.ar      1 <1>        -0.0590
     11 C11         4.8340   -1.4722    1.2303 C.ar      1 <1>        -0.0049
     12 C12        -1.1105    3.0125    0.0972 C.ar      1 <1>        -0.1106
     13 C13         2.6244    1.0429   -0.0711 C.2       1 <1>        -0.0223
     14 C14         4.1560   -0.4075    0.5295 C.2       1 <1>         0.0211
     15 C15        -2.3378    5.1620   -0.3023 C.3       1 <1>        -0.0606
     16 C16        -2.4276    3.7092    0.1575 C.3       1 <1>        -0.0454
     17 N1          5.0240   -2.8489    3.2088 N.ar      1 <1>        -0.3947
     18 N2          2.9430    0.0202    0.8010 N.2       1 <1>        -0.3781
     19 S1          4.9712    0.3753   -0.7619 S.3       1 <1>        -0.1191
     20 H1          7.3823   -3.6943    0.9240 H         1 <1>         0.1446
     21 H2          6.2648   -1.8745   -0.3386 H         1 <1>         0.1582
     22 H3          2.1259    3.5976   -0.7461 H         1 <1>         0.1393
     23 H4          0.2862   -0.0170    0.7304 H         1 <1>         0.1292
     24 H5         -0.0490    4.7408   -0.6448 H         1 <1>         0.1195
     25 H6         -1.8859    1.1338    0.8271 H         1 <1>         0.1185
     26 H7          6.5249   -4.2631    3.2028 H         1 <1>         0.2082
     27 H8          3.6009   -1.3809    3.0039 H         1 <1>         0.2341
     28 H9          3.5764    2.1329   -1.7623 H         1 <1>         0.2020
     29 H10        -1.6065    5.7183    0.2938 H         1 <1>         0.0354
     30 H11        -3.3069    5.6610   -0.2019 H         1 <1>         0.0371
     31 H12        -2.0319    5.2235   -1.3522 H         1 <1>         0.0355
     32 H13        -3.1704    3.1810   -0.4619 H         1 <1>         0.0604
     33 H14        -2.8307    3.6806    1.1827 H         1 <1>         0.0606
@<TRIPOS>BOND
     1    1    2 ar
     2    1    7 ar
     3    2   11 ar
     4    3    5 ar
     5    3   10 ar
     6    4    6 ar
     7    4   10 ar
     8    5   12 ar
     9    6   12 ar
    10    7   17 ar
    11    8   11 ar
    12    8   17 ar
    13    9   13 2
    14    9   19 1
    15   10   13 1
    16   11   14 1
    17   12   16 1
    18   13   18 1
    19   14   18 2
    20   14   19 1
    21   15   16 1
    22    1   20 1
    23    2   21 1
    24    3   22 1
    25    4   23 1
    26    5   24 1
    27    6   25 1
    28    7   26 1
    29    8   27 1
    30    9   28 1
    31   15   29 1
    32   15   30 1
    33   15   31 1
    34   16   32 1
    35   16   33 1
@<TRIPOS>Similarity
1.4251
@<TRIPOS>ShapeSim
0.8070
@<TRIPOS>PharmSim
0.6182
# END
# Name:		AP-960/41299812
# Created and modified by SHAFTS on Tue Sep 23 17:55:45 2014

# 

@<TRIPOS>MOLECULE
AP-960/41299812
   40    43     0
SMALL
USER_CHARGE


@<TRIPOS>ATOM
      1 C1          5.2166   -2.4840    0.4044 C.ar      1 <1>        -0.0371
      2 C2          4.8169   -1.1009    2.3446 C.ar      1 <1>        -0.0373
      3 C3          1.0103    3.1711    0.2977 C.ar      1 <1>        -0.0367
      4 C4         -0.1154    1.1216   -0.3103 C.ar      1 <1>        -0.0364
      5 C5          5.7941   -3.4587    1.2182 C.ar      1 <1>        -0.0397
      6 C6          5.3944   -2.0755    3.1583 C.ar      1 <1>        -0.0398
      7 C7         -0.2216    3.7685    0.5646 C.ar      1 <1>        -0.0408
      8 C8         -1.3473    1.7191   -0.0434 C.ar      1 <1>        -0.0405
      9 C9          4.7281   -1.3051    0.9677 C.ar      1 <1>         0.0008
     10 C10         1.0634    1.8478   -0.1397 C.ar      1 <1>         0.0063
     11 C11         5.8829   -3.2544    2.5951 C.ar      1 <1>        -0.0019
     12 C12        -1.4003    3.0426    0.3941 C.ar      1 <1>        -0.0036
     13 C13         4.4301    1.2626   -1.6788 C.2       1 <1>         0.0524
     14 C14         4.8974    0.2830   -0.8915 C.2       1 <1>         0.0744
     15 C15         3.1013    1.8583   -1.4157 C.2       1 <1>         0.1275
     16 C16         2.7565    0.0701    0.3257 C.2       1 <1>         0.0431
     17 C17         5.2252    1.8478   -2.8138 C.3       1 <1>         0.0175
     18 C18         6.4708    1.0217   -3.1036 C.3       1 <1>        -0.0082
     19 C19         7.0962    0.5945   -1.7893 C.3       1 <1>         0.0374
     20 N1          4.1296   -0.2957    0.1247 N.pl3     1 <1>        -0.2787
     21 N2          2.3397    1.2285   -0.4158 N.am      1 <1>        -0.2637
     22 O1          2.7671    2.8638   -2.0444 O.2       1 <1>        -0.4800
     23 O2          6.1931   -0.2056   -1.0228 O.3       1 <1>        -0.4113
     24 S1          1.6689   -0.8831    1.2461 S.2       1 <1>        -0.1886
     25 Cl1         6.5953   -4.4574    3.5992 Cl        1 <1>        -0.1724
     26 Cl2        -2.9203    3.7800    0.7234 Cl        1 <1>        -0.1750
     27 H1          5.1528   -2.6533   -0.6674 H         1 <1>         0.1652
     28 H2          4.4394   -0.1859    2.7939 H         1 <1>         0.1647
     29 H3          1.9226    3.7461    0.4337 H         1 <1>         0.1633
     30 H4         -0.0856    0.0898   -0.6505 H         1 <1>         0.1640
     31 H5          6.1703   -4.3726    0.7658 H         1 <1>         0.1598
     32 H6          5.4571   -1.9031    4.2297 H         1 <1>         0.1597
     33 H7         -0.2481    4.8005    0.9050 H         1 <1>         0.1580
     34 H8         -2.2578    1.1417   -0.1807 H         1 <1>         0.1584
     35 H9          4.5925    1.8813   -3.7093 H         1 <1>         0.0898
     36 H10         5.5260    2.8767   -2.5850 H         1 <1>         0.0957
     37 H11         6.2190    0.1525   -3.7196 H         1 <1>         0.0814
     38 H12         7.1862    1.6348   -3.6661 H         1 <1>         0.0726
     39 H13         8.0248    0.0326   -1.9486 H         1 <1>         0.1376
     40 H14         7.3448    1.4759   -1.1892 H         1 <1>         0.1623
@<TRIPOS>BOND
     1    1    5 ar
     2    1    9 ar
     3    2    6 ar
     4    2    9 ar
     5    3    7 ar
     6    3   10 ar
     7    4    8 ar
     8    4   10 ar
     9    5   11 ar
    10    6   11 ar
    11    7   12 ar
    12    8   12 ar
    13    9   20 1
    14   10   21 1
    15   11   25 1
    16   12   26 1
    17   13   14 2
    18   13   15 1
    19   13   17 1
    20   14   20 1
    21   14   23 1
    22   15   21 am
    23   15   22 2
    24   16   20 1
    25   16   21 1
    26   16   24 2
    27   17   18 1
    28   18   19 1
    29   19   23 1
    30    1   27 1
    31    2   28 1
    32    3   29 1
    33    4   30 1
    34    5   31 1
    35    6   32 1
    36    7   33 1
    37    8   34 1
    38   17   35 1
    39   17   36 1
    40   18   37 1
    41   18   38 1
    42   19   39 1
    43   19   40 1
@<TRIPOS>Similarity
1.4251
@<TRIPOS>ShapeSim
0.9001
@<TRIPOS>PharmSim
0.5250
# END
# Name:		AG-205/12497019
# Created and modified by SHAFTS on Tue Sep 23 17:55:45 2014

# 

@<TRIPOS>MOLECULE
AG-205/12497019
   34    36     0
SMALL
USER_CHARGE


@<TRIPOS>ATOM
      1 C1          1.1674    3.1402   -0.4455 C.ar      1 <1>        -0.0578
      2 C2          0.1513    1.1114    0.3848 C.ar      1 <1>        -0.0576
      3 C3          5.7948   -3.4027    1.0471 C.ar      1 <1>        -0.0842
      4 C4          5.6248   -2.1419    3.1010 C.ar      1 <1>        -0.0872
      5 C5          5.1467   -2.3746    0.3624 C.ar      1 <1>        -0.0577
      6 C6          4.9767   -1.1138    2.4162 C.ar      1 <1>        -0.0625
      7 C7         -0.0685    3.7841   -0.3843 C.ar      1 <1>        -0.0545
      8 C8         -1.0845    1.7555    0.4459 C.ar      1 <1>        -0.0546
      9 C9          3.5957    1.4121   -1.0256 C.2       1 <1>        -0.0302
     10 C10         1.2773    1.8038   -0.0611 C.ar      1 <1>        -0.0370
     11 C11         6.0338   -3.2862    2.4164 C.ar      1 <1>        -0.1040
     12 C12         4.7377   -1.2302    1.0470 C.ar      1 <1>        -0.0244
     13 C13        -1.1943    3.0918    0.0615 C.ar      1 <1>        -0.0165
     14 C14         2.5495    1.1409   -0.1236 C.2       1 <1>        -0.0016
     15 C15         4.5838    0.5217   -0.6832 C.2       1 <1>        -0.0108
     16 C16         6.7266   -4.3854    3.1485 C.3       1 <1>        -0.0418
     17 N1          2.8454    0.1551    0.7277 N.2       1 <1>        -0.3472
     18 N2          4.0886   -0.2009    0.3621 N.pl3     1 <1>        -0.3182
     19 N3          5.8159    0.3077   -1.1925 N.pl3     1 <1>        -0.3439
     20 Cl1        -2.7198    3.8850    0.1361 Cl        1 <1>        -0.1869
     21 H1          2.0352    3.6946   -0.7953 H         1 <1>         0.1506
     22 H2          0.2208    0.0693    0.6879 H         1 <1>         0.1514
     23 H3          6.1103   -4.2908    0.5063 H         1 <1>         0.1313
     24 H4          5.8065   -2.0427    4.1679 H         1 <1>         0.1289
     25 H5          4.9660   -2.4783   -0.7049 H         1 <1>         0.1520
     26 H6          4.6631   -0.2276    2.9628 H         1 <1>         0.1395
     27 H7         -0.1394    4.8257   -0.6871 H         1 <1>         0.1450
     28 H8         -1.9534    1.2030    0.7940 H         1 <1>         0.1443
     29 H9          3.6318    2.1496   -1.8151 H         1 <1>         0.1485
     30 H10         7.8118   -4.2250    3.1402 H         1 <1>         0.0611
     31 H11         6.3915   -4.4420    4.1923 H         1 <1>         0.0584
     32 H12         6.5157   -5.3620    2.6937 H         1 <1>         0.0587
     33 H13         6.1667    0.8226   -2.0134 H         1 <1>         0.2497
     34 H14         6.4290   -0.4448   -0.8456 H         1 <1>         0.2595
@<TRIPOS>BOND
     1    1    7 ar
     2    1   10 ar
     3    2    8 ar
     4    2   10 ar
     5    3    5 ar
     6    3   11 ar
     7    4    6 ar
     8    4   11 ar
     9    5   12 ar
    10    6   12 ar
    11    7   13 ar
    12    8   13 ar
    13    9   14 1
    14    9   15 2
    15   10   14 1
    16   11   16 1
    17   12   18 1
    18   13   20 1
    19   14   17 2
    20   15   18 1
    21   15   19 1
    22   17   18 1
    23    1   21 1
    24    2   22 1
    25    3   23 1
    26    4   24 1
    27    5   25 1
    28    6   26 1
    29    7   27 1
    30    8   28 1
    31    9   29 1
    32   16   30 1
    33   16   31 1
    34   16   32 1
    35   19   33 1
    36   19   34 1
@<TRIPOS>Similarity
1.4226
@<TRIPOS>ShapeSim
0.8510
@<TRIPOS>PharmSim
0.5716
# END
# Name:		AH-357/03542020
# Created and modified by SHAFTS on Tue Sep 23 17:55:45 2014

# 

@<TRIPOS>MOLECULE
AH-357/03542020
   30    32     0
SMALL
USER_CHARGE


@<TRIPOS>ATOM
      1 C1          6.0109   -3.1668    2.3052 C.ar      1 <1>        -0.1006
      2 C2         -1.5552    3.1155    0.2512 C.ar      1 <1>        -0.1006
      3 C3          6.2651   -2.9193    0.9562 C.ar      1 <1>        -0.0951
      4 C4          5.0778   -2.3909    2.9930 C.ar      1 <1>        -0.0983
      5 C5         -0.4828    3.8689   -0.2264 C.ar      1 <1>        -0.0983
      6 C6         -1.3691    1.7760    0.5930 C.ar      1 <1>        -0.0951
      7 C7          5.5861   -1.8957    0.2950 C.ar      1 <1>        -0.0851
      8 C8          4.3988   -1.3674    2.3319 C.ar      1 <1>        -0.0904
      9 C9          0.7756    3.2827   -0.3621 C.ar      1 <1>        -0.0904
     10 C10        -0.1107    1.1898    0.4574 C.ar      1 <1>        -0.0851
     11 C11         4.3469    0.7278   -0.7578 C.2       1 <1>        -0.0824
     12 C12         3.2797    1.6130   -1.0480 C.2       1 <1>        -0.0824
     13 C13         4.6531   -1.1197    0.9828 C.ar      1 <1>        -0.0769
     14 C14         0.9617    1.9432   -0.0202 C.ar      1 <1>        -0.0769
     15 C15         3.9505   -0.0621    0.2988 C.2       1 <1>        -0.0647
     16 C16         2.2634    1.3374   -0.1598 C.2       1 <1>        -0.0647
     17 N1          2.6825    0.3175    0.6542 N.pl3     1 <1>        -0.3613
     18 H1          6.5390   -3.9642    2.8198 H         1 <1>         0.1131
     19 H2         -2.5349    3.5721    0.3573 H         1 <1>         0.1131
     20 H3          6.9918   -3.5234    0.4210 H         1 <1>         0.1197
     21 H4          4.8790   -2.5845    4.0431 H         1 <1>         0.1155
     22 H5         -0.6280    4.9116   -0.4929 H         1 <1>         0.1156
     23 H6         -2.2040    1.1897    0.9661 H         1 <1>         0.1197
     24 H7          5.7935   -1.7169   -0.7574 H         1 <1>         0.1314
     25 H8          3.6752   -0.7708    2.8822 H         1 <1>         0.1163
     26 H9          1.6022    3.8839   -0.7334 H         1 <1>         0.1162
     27 H10         0.0178    0.1443    0.7271 H         1 <1>         0.1314
     28 H11         5.2995    0.6758   -1.2676 H         1 <1>         0.1256
     29 H12         3.2599    2.3684   -1.8219 H         1 <1>         0.1256
     30 H13         2.1395   -0.0921    1.4027 H         1 <1>         0.3055
@<TRIPOS>BOND
     1    1    3 ar
     2    1    4 ar
     3    2    5 ar
     4    2    6 ar
     5    3    7 ar
     6    4    8 ar
     7    5    9 ar
     8    6   10 ar
     9    7   13 ar
    10    8   13 ar
    11    9   14 ar
    12   10   14 ar
    13   11   12 1
    14   11   15 2
    15   12   16 2
    16   13   15 1
    17   14   16 1
    18   15   17 1
    19   16   17 1
    20    1   18 1
    21    2   19 1
    22    3   20 1
    23    4   21 1
    24    5   22 1
    25    6   23 1
    26    7   24 1
    27    8   25 1
    28    9   26 1
    29   10   27 1
    30   11   28 1
    31   12   29 1
    32   17   30 1
@<TRIPOS>Similarity
1.4193
@<TRIPOS>ShapeSim
0.8379
@<TRIPOS>PharmSim
0.5814
# END
# Name:		AK-087/42718333
# Created and modified by SHAFTS on Tue Sep 23 17:55:45 2014

# 

@<TRIPOS>MOLECULE
AK-087/42718333
   36    38     0
SMALL
USER_CHARGE


@<TRIPOS>ATOM
      1 C1          6.3925    1.6377   -1.8329 C.1       1 <1>        -0.0184
      2 C2          1.0865    3.1705   -0.4263 C.ar      1 <1>        -0.0743
      3 C3          0.0873    1.1309    0.3971 C.ar      1 <1>        -0.0746
      4 C4         -0.1524    3.8072   -0.3533 C.ar      1 <1>        -0.0948
      5 C5         -1.1517    1.7674    0.4702 C.ar      1 <1>        -0.0947
      6 C6          5.1171   -2.3158    0.3212 C.ar      1 <1>        -0.0412
      7 C7          4.9467   -1.0719    2.3855 C.ar      1 <1>        -0.0458
      8 C8          5.7837   -3.3401    0.9936 C.ar      1 <1>        -0.0421
      9 C9          5.6133   -2.0962    3.0578 C.ar      1 <1>        -0.0446
     10 C10         3.5223    1.4604   -1.0317 C.2       1 <1>        -0.0231
     11 C11         1.2065    1.8324   -0.0512 C.ar      1 <1>        -0.0464
     12 C12        -1.2715    3.1056    0.0951 C.ar      1 <1>        -0.1095
     13 C13         4.6987   -1.1816    1.0172 C.ar      1 <1>        -0.0161
     14 C14         6.0318   -3.2304    2.3619 C.ar      1 <1>        -0.0066
     15 C15         2.4824    1.1778   -0.1258 C.2       1 <1>        -0.0029
     16 C16         4.5175    0.5740   -0.6995 C.2       1 <1>         0.0089
     17 C17        -2.5955    3.7874    0.1739 C.3       1 <1>        -0.0433
     18 C18         5.8594    0.3762   -1.2820 C.3       1 <1>         0.1103
     19 N1          6.8024    2.6340   -2.2641 N.1       1 <1>        -0.4106
     20 N2          2.7884    0.1891    0.7185 N.2       1 <1>        -0.3461
     21 N3          4.0320   -0.1573    0.3443 N.pl3     1 <1>        -0.3116
     22 Cl1         6.8520   -4.4954    3.1915 Cl        1 <1>        -0.1780
     23 H1          1.9491    3.7314   -0.7786 H         1 <1>         0.1379
     24 H2          0.1645    0.0872    0.6932 H         1 <1>         0.1369
     25 H3         -0.2370    4.8501   -0.6468 H         1 <1>         0.1193
     26 H4         -2.0188    1.2138    0.8207 H         1 <1>         0.1200
     27 H5          4.9302   -2.4146   -0.7453 H         1 <1>         0.1667
     28 H6          4.6256   -0.1934    2.9400 H         1 <1>         0.1534
     29 H7          6.1048   -4.2181    0.4389 H         1 <1>         0.1586
     30 H8          5.8001   -1.9970    4.1241 H         1 <1>         0.1564
     31 H9          3.5502    2.2024   -1.8173 H         1 <1>         0.1608
     32 H10        -3.1406    3.6738   -0.7711 H         1 <1>         0.0602
     33 H11        -3.2106    3.3713    0.9825 H         1 <1>         0.0578
     34 H12        -2.4800    4.8591    0.3823 H         1 <1>         0.0576
     35 H13         5.8403   -0.3833   -2.0831 H         1 <1>         0.2047
     36 H14         6.5688   -0.0140   -0.5316 H         1 <1>         0.2148
@<TRIPOS>BOND
     1    1   18 1
     2    1   19 3
     3    2    4 ar
     4    2   11 ar
     5    3    5 ar
     6    3   11 ar
     7    4   12 ar
     8    5   12 ar
     9    6    8 ar
    10    6   13 ar
    11    7    9 ar
    12    7   13 ar
    13    8   14 ar
    14    9   14 ar
    15   10   15 1
    16   10   16 2
    17   11   15 1
    18   12   17 1
    19   13   21 1
    20   14   22 1
    21   15   20 2
    22   16   18 1
    23   16   21 1
    24   20   21 1
    25    2   23 1
    26    3   24 1
    27    4   25 1
    28    5   26 1
    29    6   27 1
    30    7   28 1
    31    8   29 1
    32    9   30 1
    33   10   31 1
    34   17   32 1
    35   17   33 1
    36   17   34 1
    37   18   35 1
    38   18   36 1
@<TRIPOS>Similarity
1.3973
@<TRIPOS>ShapeSim
0.8555
@<TRIPOS>PharmSim
0.5417
# END
# Name:		AK-087/42718336
# Created and modified by SHAFTS on Tue Sep 23 17:55:45 2014

# 

@<TRIPOS>MOLECULE
AK-087/42718336
   37    39     0
SMALL
USER_CHARGE


@<TRIPOS>ATOM
      1 C1          5.8723    0.7192   -2.7185 C.1       1 <1>        -0.0185
      2 C2          1.1399    3.2042    0.1967 C.ar      1 <1>        -0.0603
      3 C3          0.0343    1.0978   -0.2250 C.ar      1 <1>        -0.0601
      4 C4          5.1170   -2.3162    0.3213 C.ar      1 <1>        -0.0446
      5 C5          4.9470   -1.0716    2.3851 C.ar      1 <1>        -0.0455
      6 C6          5.7835   -3.3404    0.9939 C.ar      1 <1>        -0.0456
      7 C7          5.6133   -2.0958    3.0577 C.ar      1 <1>        -0.0504
      8 C8         -0.0993    3.8402    0.2688 C.ar      1 <1>        -0.0625
      9 C9         -1.2049    1.7338   -0.1528 C.ar      1 <1>        -0.0626
     10 C10         3.5221    1.4605   -1.0317 C.2       1 <1>        -0.0228
     11 C11         1.2069    1.8330   -0.0505 C.ar      1 <1>        -0.0374
     12 C12         4.6988   -1.1818    1.0169 C.ar      1 <1>        -0.0187
     13 C13         6.0317   -3.2303    2.3621 C.ar      1 <1>        -0.0289
     14 C14        -1.2718    3.1050    0.0942 C.ar      1 <1>        -0.0369
     15 C15         2.4826    1.1781   -0.1254 C.2       1 <1>        -0.0001
     16 C16         4.5173    0.5738   -0.6997 C.2       1 <1>         0.0084
     17 C17         6.9016   -4.0513    4.4177 C.3       1 <1>         0.0120
     18 C18         5.8590    0.3757   -1.2828 C.3       1 <1>         0.1102
     19 N1          5.8723    0.9905   -3.8467 N.1       1 <1>        -0.4108
     20 N2          2.7889    0.1894    0.7188 N.2       1 <1>        -0.3455
     21 N3          4.0320   -0.1573    0.3443 N.pl3     1 <1>        -0.3128
     22 O1          6.6812   -4.2297    3.0194 O.3       1 <1>        -0.4606
     23 Br1        -2.9508    3.9670    0.1907 Br        1 <1>        -0.1428
     24 H1          2.0446    3.7914    0.3349 H         1 <1>         0.1494
     25 H2          0.0698    0.0282   -0.4198 H         1 <1>         0.1501
     26 H3          4.9304   -2.4151   -0.7454 H         1 <1>         0.1559
     27 H4          4.6269   -0.1925    2.9391 H         1 <1>         0.1618
     28 H5          6.1069   -4.2220    0.4471 H         1 <1>         0.1568
     29 H6          5.8030   -2.0038    4.1237 H         1 <1>         0.1419
     30 H7         -0.1335    4.9093    0.4607 H         1 <1>         0.1438
     31 H8         -2.1091    1.1468   -0.2930 H         1 <1>         0.1430
     32 H9          3.5501    2.2022   -1.8173 H         1 <1>         0.1599
     33 H10         7.4286   -4.9207    4.8181 H         1 <1>         0.1101
     34 H11         5.9419   -3.9275    4.9258 H         1 <1>         0.1102
     35 H12         7.5103   -3.1569    4.5702 H         1 <1>         0.1341
     36 H13         6.1980   -0.6681   -1.1625 H         1 <1>         0.2052
     37 H14         6.6168    0.9868   -0.7624 H         1 <1>         0.2147
@<TRIPOS>BOND
     1    1   18 1
     2    1   19 3
     3    2    8 ar
     4    2   11 ar
     5    3    9 ar
     6    3   11 ar
     7    4    6 ar
     8    4   12 ar
     9    5    7 ar
    10    5   12 ar
    11    6   13 ar
    12    7   13 ar
    13    8   14 ar
    14    9   14 ar
    15   10   15 1
    16   10   16 2
    17   11   15 1
    18   12   21 1
    19   13   22 1
    20   14   23 1
    21   15   20 2
    22   16   18 1
    23   16   21 1
    24   17   22 1
    25   20   21 1
    26    2   24 1
    27    3   25 1
    28    4   26 1
    29    5   27 1
    30    6   28 1
    31    7   29 1
    32    8   30 1
    33    9   31 1
    34   10   32 1
    35   17   33 1
    36   17   34 1
    37   17   35 1
    38   18   36 1
    39   18   37 1
@<TRIPOS>Similarity
1.3917
@<TRIPOS>ShapeSim
0.8502
@<TRIPOS>PharmSim
0.5415
# END
# Name:		AH-487/40652398
# Created and modified by SHAFTS on Tue Sep 23 17:55:45 2014

# 

@<TRIPOS>MOLECULE
AH-487/40652398
   59    63     0
SMALL
USER_CHARGE


@<TRIPOS>ATOM
      1 C1          5.1542   -3.3247    2.9774 C.ar      1 <1>        -0.0948
      2 C2         -1.2675    2.0936    1.1424 C.ar      1 <1>        -0.0901
      3 C3          5.8117   -3.4244    1.7515 C.ar      1 <1>        -0.0903
      4 C4          4.3463   -2.2202    3.2477 C.ar      1 <1>        -0.0891
      5 C5         -0.8553    0.9525    0.4544 C.ar      1 <1>        -0.0808
      6 C6         -0.4853    3.2481    1.1104 C.ar      1 <1>        -0.0811
      7 C7          5.6614   -2.4197    0.7956 C.ar      1 <1>        -0.0727
      8 C8          4.1961   -1.2153    2.2920 C.ar      1 <1>        -0.0698
      9 C9          4.0698    3.0410   -4.8816 C.ar      1 <1>        -0.0674
     10 C10         4.9869    4.6517   -3.3320 C.ar      1 <1>        -0.0683
     11 C11         4.5997    3.7660   -5.9488 C.ar      1 <1>        -0.0902
     12 C12         5.5169    5.3768   -4.3993 C.ar      1 <1>        -0.0896
     13 C13         0.3394    0.9658   -0.2657 C.ar      1 <1>        -0.0545
     14 C14         0.7092    3.2613    0.3904 C.ar      1 <1>        -0.0547
     15 C15         5.7308   -0.0036   -0.8167 C.ar      1 <1>         0.0115
     16 C16         4.3369    1.6914   -1.7542 C.ar      1 <1>         0.0673
     17 C17         4.8536   -1.3152    1.0659 C.ar      1 <1>        -0.0427
     18 C18         4.2634    3.4839   -3.5732 C.ar      1 <1>        -0.0298
     19 C19         5.3232    4.9340   -5.7078 C.ar      1 <1>        -0.1080
     20 C20         5.5580    1.0059   -1.7637 C.ar      1 <1>         0.1118
     21 C21         1.1216    2.1202   -0.2977 C.ar      1 <1>        -0.0084
     22 C22         4.6979   -0.2739    0.0748 C.ar      1 <1>         0.0052
     23 C23         3.7164    2.7339   -2.4708 C.2       1 <1>         0.0436
     24 C24         3.3916    1.3211   -0.8104 C.ar      1 <1>         0.0629
     25 C25         4.7676    6.1889   -7.8201 C.3       1 <1>        -0.0604
     26 C26         6.8899    4.8427   -7.6785 C.3       1 <1>        -0.0605
     27 C27         6.6834    6.9988   -6.4577 C.3       1 <1>        -0.0604
     28 C28         5.8904    5.7078   -6.8494 C.3       1 <1>        -0.0511
     29 C29         6.6650    1.3004   -2.7217 C.3       1 <1>         0.3556
     30 N1          3.5013    0.3601    0.1235 N.ar      1 <1>        -0.3405
     31 N2          2.4851    3.0068   -2.0264 N.2       1 <1>        -0.3081
     32 N3          2.3156    2.1326   -1.0179 N.pl3     1 <1>        -0.2774
     33 F1          7.7634    0.5089   -2.5464 F         1 <1>        -0.2085
     34 F2          6.3113    1.1366   -4.0300 F         1 <1>        -0.2060
     35 F3          7.1168    2.5837   -2.6208 F         1 <1>        -0.2057
     36 H1          5.2700   -4.1079    3.7209 H         1 <1>         0.1210
     37 H2         -2.1984    2.0844    1.7016 H         1 <1>         0.1213
     38 H3          6.4393   -4.2852    1.5401 H         1 <1>         0.1217
     39 H4          3.8330   -2.1425    4.2017 H         1 <1>         0.1215
     40 H5         -1.4649    0.0540    0.4780 H         1 <1>         0.1304
     41 H6         -0.8078    4.1367    1.6453 H         1 <1>         0.1297
     42 H7          6.1804   -2.5123   -0.1556 H         1 <1>         0.1365
     43 H8          3.5625   -0.3606    2.5166 H         1 <1>         0.1448
     44 H9          3.5076    2.1330   -5.0866 H         1 <1>         0.1445
     45 H10         5.1465    5.0100   -2.3176 H         1 <1>         0.1387
     46 H11         4.4450    3.4137   -6.9652 H         1 <1>         0.1245
     47 H12         6.0795    6.2857   -4.2029 H         1 <1>         0.1271
     48 H13         0.6488    0.0698   -0.7983 H         1 <1>         0.1501
     49 H14         1.3090    4.1681    0.3732 H         1 <1>         0.1495
     50 H15         6.6607   -0.5656   -0.7804 H         1 <1>         0.1869
     51 H16         5.1584    6.7612   -8.6696 H         1 <1>         0.0389
     52 H17         4.2064    5.3442   -8.2345 H         1 <1>         0.0404
     53 H18         4.0539    6.8282   -7.2871 H         1 <1>         0.0392
     54 H19         7.3088    5.4079   -8.5183 H         1 <1>         0.0392
     55 H20         7.7358    4.4831   -7.0810 H         1 <1>         0.0393
     56 H21         6.3786    3.9663   -8.0941 H         1 <1>         0.0391
     57 H22         7.0799    7.5321   -7.3300 H         1 <1>         0.0392
     58 H23         6.0401    7.7020   -5.9159 H         1 <1>         0.0404
     59 H24         7.5371    6.7522   -5.8157 H         1 <1>         0.0390
@<TRIPOS>BOND
     1    1    3 ar
     2    1    4 ar
     3    2    5 ar
     4    2    6 ar
     5    3    7 ar
     6    4    8 ar
     7    5   13 ar
     8    6   14 ar
     9    7   17 ar
    10    8   17 ar
    11    9   11 ar
    12    9   18 ar
    13   10   12 ar
    14   10   18 ar
    15   11   19 ar
    16   12   19 ar
    17   13   21 ar
    18   14   21 ar
    19   15   20 ar
    20   15   22 ar
    21   16   20 ar
    22   16   23 1
    23   16   24 ar
    24   17   22 1
    25   18   23 1
    26   19   28 1
    27   20   29 1
    28   21   32 1
    29   22   30 ar
    30   23   31 2
    31   24   30 ar
    32   24   32 1
    33   25   28 1
    34   26   28 1
    35   27   28 1
    36   29   33 1
    37   29   34 1
    38   29   35 1
    39   31   32 1
    40    1   36 1
    41    2   37 1
    42    3   38 1
    43    4   39 1
    44    5   40 1
    45    6   41 1
    46    7   42 1
    47    8   43 1
    48    9   44 1
    49   10   45 1
    50   11   46 1
    51   12   47 1
    52   13   48 1
    53   14   49 1
    54   15   50 1
    55   25   51 1
    56   25   52 1
    57   25   53 1
    58   26   54 1
    59   26   55 1
    60   26   56 1
    61   27   57 1
    62   27   58 1
    63   27   59 1
@<TRIPOS>Similarity
1.3676
@<TRIPOS>ShapeSim
0.7665
@<TRIPOS>PharmSim
0.6011
# END
# Name:		AG-690/11480698
# Created and modified by SHAFTS on Tue Sep 23 17:55:45 2014

# 

@<TRIPOS>MOLECULE
AG-690/11480698
   26    28     0
SMALL
USER_CHARGE


@<TRIPOS>ATOM
      1 C1          0.2018    1.2680   -0.7455 C.ar      1 <1>        -0.0724
      2 C2          1.0919    2.9325    0.7626 C.ar      1 <1>        -0.0680
      3 C3         -1.0528    1.3999   -0.1506 C.ar      1 <1>        -0.0612
      4 C4         -0.1628    3.0644    1.3576 C.ar      1 <1>        -0.0577
      5 C5          2.9052    2.6927   -1.9773 C.2       1 <1>         0.0023
      6 C6          1.2743    2.0342   -0.2888 C.ar      1 <1>        -0.0571
      7 C7          2.5696    1.8984   -0.9032 C.2       1 <1>        -0.0073
      8 C8          3.6278    1.0151   -0.5476 C.2       1 <1>         0.0490
      9 C9         -1.2351    2.2980    0.9009 C.ar      1 <1>        -0.0192
     10 C10         4.7376    1.1648   -1.3635 C.2       1 <1>         0.0587
     11 C11         5.9354   -0.4047   -0.3335 C.2       1 <1>         0.0181
     12 C12         3.6658    0.0260    0.5218 C.2       1 <1>         0.0817
     13 N1          5.9107    0.4742   -1.2894 N.2       1 <1>        -0.3384
     14 N2          4.8917   -0.6515    0.5509 N.am      1 <1>        -0.3507
     15 N3          5.0871   -1.6329    1.5145 N.3       1 <1>         0.4476
     16 O1          2.7259   -0.1683    1.2864 O.2       1 <1>        -0.4988
     17 S1          4.4863    2.3708   -2.5493 S.3       1 <1>        -0.0946
     18 Cl1        -2.7825    2.4606    1.6365 Cl        1 <1>        -0.1889
     19 H1          0.3268    0.5632   -1.5644 H         1 <1>         0.1376
     20 H2          1.9180    3.5367    1.1299 H         1 <1>         0.1458
     21 H3         -1.8794    0.7963   -0.5166 H         1 <1>         0.1391
     22 H4         -0.2897    3.7673    2.1769 H         1 <1>         0.1430
     23 H5          2.3054    3.4511   -2.4625 H         1 <1>         0.2077
     24 H6          6.8298   -1.0278   -0.1706 H         1 <1>         0.3217
     25 H7          5.6965   -2.3819    1.1563 H         1 <1>         0.0315
     26 H8          4.2000   -2.1056    1.7375 H         1 <1>         0.0305
@<TRIPOS>BOND
     1    1    3 ar
     2    1    6 ar
     3    2    4 ar
     4    2    6 ar
     5    3    9 ar
     6    4    9 ar
     7    5    7 2
     8    5   17 1
     9    6    7 1
    10    7    8 1
    11    8   10 2
    12    8   12 1
    13    9   18 1
    14   10   13 1
    15   10   17 1
    16   11   13 2
    17   11   14 1
    18   12   14 am
    19   12   16 2
    20   14   15 1
    21    1   19 1
    22    2   20 1
    23    3   21 1
    24    4   22 1
    25    5   23 1
    26   11   24 1
    27   15   25 1
    28   15   26 1
@<TRIPOS>Similarity
1.2392
@<TRIPOS>ShapeSim
0.8224
@<TRIPOS>PharmSim
0.4168
# END
