@<TRIPOS>MOLECULE
ZINC00384358
   33    35     0
SMALL
USER_CHARGE


@<TRIPOS>ATOM
      1 C1          6.5423   -3.1606    1.3535 C.ar      1 <1>        -0.0571
      2 C2          5.9092   -2.1393    0.6541 C.ar      1 <1>        -0.0450
      3 C3          1.2536    3.0486   -0.3995 C.ar      1 <1>        -0.0778
      4 C4          0.2236    1.0253    0.4266 C.ar      1 <1>        -0.0812
      5 C5          0.0210    3.6989   -0.3437 C.ar      1 <1>        -0.0952
      6 C6         -1.0092    1.6757    0.4823 C.ar      1 <1>        -0.0970
      7 C7          6.0658   -3.4743    2.6161 C.ar      1 <1>        -0.0377
      8 C8          4.4336   -1.8616    2.4985 C.ar      1 <1>        -0.0102
      9 C9          3.5970    1.3756   -0.9906 C.2       1 <1>        -0.0078
     10 C10         1.3550    1.7117   -0.0143 C.ar      1 <1>        -0.0590
     11 C11         4.8340   -1.4722    1.2303 C.ar      1 <1>        -0.0049
     12 C12        -1.1105    3.0125    0.0972 C.ar      1 <1>        -0.1106
     13 C13         2.6244    1.0429   -0.0711 C.2       1 <1>        -0.0223
     14 C14         4.1560   -0.4075    0.5295 C.2       1 <1>         0.0211
     15 C15        -2.3378    5.1620   -0.3023 C.3       1 <1>        -0.0606
     16 C16        -2.4276    3.7092    0.1575 C.3       1 <1>        -0.0454
     17 N1          5.0240   -2.8489    3.2088 N.ar      1 <1>        -0.3947
     18 N2          2.9430    0.0202    0.8010 N.2       1 <1>        -0.3781
     19 S1          4.9712    0.3753   -0.7619 S.3       1 <1>        -0.1191
     20 H1          7.3823   -3.6943    0.9240 H         1 <1>         0.1446
     21 H2          6.2648   -1.8745   -0.3386 H         1 <1>         0.1582
     22 H3          2.1259    3.5976   -0.7461 H         1 <1>         0.1393
     23 H4          0.2862   -0.0170    0.7304 H         1 <1>         0.1292
     24 H5         -0.0490    4.7408   -0.6448 H         1 <1>         0.1195
     25 H6         -1.8859    1.1338    0.8271 H         1 <1>         0.1185
     26 H7          6.5249   -4.2631    3.2028 H         1 <1>         0.2082
     27 H8          3.6009   -1.3809    3.0039 H         1 <1>         0.2341
     28 H9          3.5764    2.1329   -1.7623 H         1 <1>         0.2020
     29 H10        -1.6065    5.7183    0.2938 H         1 <1>         0.0354
     30 H11        -3.3069    5.6610   -0.2019 H         1 <1>         0.0371
     31 H12        -2.0319    5.2235   -1.3522 H         1 <1>         0.0355
     32 H13        -3.1704    3.1810   -0.4619 H         1 <1>         0.0604
     33 H14        -2.8307    3.6806    1.1827 H         1 <1>         0.0606
@<TRIPOS>BOND
     1    1    2 ar
     2    1    7 ar
     3    2   11 ar
     4    3    5 ar
     5    3   10 ar
     6    4    6 ar
     7    4   10 ar
     8    5   12 ar
     9    6   12 ar
    10    7   17 ar
    11    8   11 ar
    12    8   17 ar
    13    9   13 2
    14    9   19 1
    15   10   13 1
    16   11   14 1
    17   12   16 1
    18   13   18 1
    19   14   18 2
    20   14   19 1
    21   15   16 1
    22    1   20 1
    23    2   21 1
    24    3   22 1
    25    4   23 1
    26    5   24 1
    27    6   25 1
    28    7   26 1
    29    8   27 1
    30    9   28 1
    31   15   29 1
    32   15   30 1
    33   15   31 1
    34   16   32 1
    35   16   33 1
