@<TRIPOS>MOLECULE
AK-968/40721996
   38    39     0
SMALL
USER_CHARGE


@<TRIPOS>ATOM
      1 C1          6.7587   -3.9985    1.1016 C.ar      1 <1>        -0.0942
      2 C2          7.9703   -3.3319    0.9301 C.ar      1 <1>        -0.0882
      3 C3          5.5789   -3.2875    1.3501 C.ar      1 <1>        -0.0955
      4 C4          8.0424   -1.9377    1.0008 C.ar      1 <1>        -0.0806
      5 C5          5.3009    0.3474    1.6166 C.2       1 <1>        -0.0586
      6 C6          5.6269   -1.8813    1.4259 C.ar      1 <1>        -0.0852
      7 C7          4.6556   -0.8671    1.6562 C.2       1 <1>        -0.0817
      8 C8          6.8552   -1.2402    1.2500 C.ar      1 <1>        -0.0692
      9 C9          2.3497    0.2178   -0.1426 C.2       1 <1>         0.0071
     10 C10         3.9421    3.6053   -1.5515 C.3       1 <1>        -0.0583
     11 C11         3.1857   -1.0734    1.9016 C.3       1 <1>        -0.0001
     12 C12         3.4524    2.4155   -2.3648 C.3       1 <1>        -0.0418
     13 C13         2.0813    1.9217   -1.9190 C.3       1 <1>        -0.0037
     14 C14         2.2682    0.0354    1.3648 C.3       1 <1>         0.0344
     15 N1          6.6271    0.1121    1.3707 N.pl3     1 <1>        -0.3645
     16 N2          2.0661    1.5176   -0.5336 N.am      1 <1>        -0.3525
     17 N3          0.8592   -0.2188    1.7820 N.4       1 <1>         0.4689
     18 O1          2.6350   -0.6993   -0.9099 O.2       1 <1>        -0.5715
     19 H1          6.7279   -5.0830    1.0416 H         1 <1>         0.1201
     20 H2          8.8745   -3.9039    0.7381 H         1 <1>         0.1308
     21 H3          4.6421   -3.8217    1.4805 H         1 <1>         0.1126
     22 H4          8.9862   -1.4199    0.8684 H         1 <1>         0.1383
     23 H5          4.9363    1.3578    1.7396 H         1 <1>         0.1878
     24 H6          3.2467    4.4470   -1.6300 H         1 <1>         0.0404
     25 H7          4.0233    3.3311   -0.4947 H         1 <1>         0.0382
     26 H8          4.9281    3.9399   -1.8878 H         1 <1>         0.0381
     27 H9          3.0228   -1.1835    2.9825 H         1 <1>         0.1094
     28 H10         2.8778   -2.0345    1.4670 H         1 <1>         0.1030
     29 H11         4.1747    1.5979   -2.2591 H         1 <1>         0.0567
     30 H12         3.4268    2.6907   -3.4258 H         1 <1>         0.0568
     31 H13         1.3419    2.7215   -2.0270 H         1 <1>         0.1074
     32 H14         1.7511    1.0691   -2.5206 H         1 <1>         0.1071
     33 H15         2.5364    0.9860    1.8414 H         1 <1>         0.1567
     34 H16         7.3368    0.8271    1.2898 H         1 <1>         0.2851
     35 H17         1.8407    2.2071    0.1773 H         1 <1>         0.2764
     36 H18         0.2516   -0.3025    0.9634 H         1 <1>         0.1563
     37 H19         0.5133    0.5487    2.3632 H         1 <1>         0.1572
     38 H20         0.7952   -1.0858    2.3211 H         1 <1>         0.1566
@<TRIPOS>BOND
     1    1    2 ar
     2    1    3 ar
     3    2    4 ar
     4    3    6 ar
     5    4    8 ar
     6    5    7 2
     7    5   15 1
     8    6    7 1
     9    6    8 ar
    10    7   11 1
    11    8   15 1
    12    9   14 1
    13    9   16 am
    14    9   18 2
    15   10   12 1
    16   11   14 1
    17   12   13 1
    18   13   16 1
    19   14   17 1
    20    1   19 1
    21    2   20 1
    22    3   21 1
    23    4   22 1
    24    5   23 1
    25   10   24 1
    26   10   25 1
    27   10   26 1
    28   11   27 1
    29   11   28 1
    30   12   29 1
    31   12   30 1
    32   13   31 1
    33   13   32 1
    34   14   33 1
    35   15   34 1
    36   16   35 1
    37   17   36 1
    38   17   37 1
    39   17   38 1
