@<TRIPOS>MOLECULE
AI-204/42879119
   33    35     0
SMALL
USER_CHARGE


@<TRIPOS>ATOM
      1 C1         -0.4221   -0.6919   -3.2810 C.ar      1 <1>        -0.0893
      2 C2          6.3082   -3.9552    1.0043 C.ar      1 <1>        -0.0945
      3 C3         -0.5190    0.5686   -2.6916 C.ar      1 <1>        -0.0839
      4 C4          0.4724   -1.6332   -2.7714 C.ar      1 <1>        -0.0814
      5 C5          7.5941   -3.4532    0.8129 C.ar      1 <1>        -0.0920
      6 C6          5.2471   -3.1021    1.3285 C.ar      1 <1>        -0.0879
      7 C7          0.2785    0.8880   -1.5927 C.ar      1 <1>        -0.0615
      8 C8          1.2700   -1.3137   -1.6725 C.ar      1 <1>        -0.0575
      9 C9          7.8605   -2.0869    0.9391 C.ar      1 <1>        -0.0836
     10 C10         5.4835    0.5201    1.7573 C.2       1 <1>        -0.0522
     11 C11         5.4917   -1.7208    1.4610 C.ar      1 <1>        -0.0747
     12 C12         1.1731   -0.0533   -1.0832 C.ar      1 <1>        -0.0209
     13 C13         4.6781   -0.5953    1.7716 C.2       1 <1>        -0.0653
     14 C14         6.7901   -1.2460    1.2636 C.ar      1 <1>        -0.0661
     15 C15         2.0226    0.2869    0.0872 C.2       1 <1>         0.0380
     16 C16         3.2297   -0.6096    2.0608 C.3       1 <1>         0.0268
     17 N1          6.7554    0.1175    1.4497 N.pl3     1 <1>        -0.3628
     18 N2          2.4212   -0.7813    0.8737 N.am      1 <1>        -0.3323
     19 O1          2.3029    1.4630    0.3035 O.2       1 <1>        -0.5507
     20 H1         -1.0432   -0.9405   -4.1366 H         1 <1>         0.1224
     21 H2          6.1257   -5.0215    0.9003 H         1 <1>         0.1143
     22 H3         -1.2154    1.3015   -3.0886 H         1 <1>         0.1229
     23 H4          0.5476   -2.6146   -3.2301 H         1 <1>         0.1267
     24 H5          8.4034   -4.1339    0.5618 H         1 <1>         0.1217
     25 H6          4.2503   -3.5089    1.4737 H         1 <1>         0.1270
     26 H7          0.1949    1.8733   -1.1412 H         1 <1>         0.1445
     27 H8          1.9636   -2.0551   -1.2840 H         1 <1>         0.1568
     28 H9          8.8618   -1.6973    0.7910 H         1 <1>         0.1288
     29 H10         5.2664    1.5642    1.9367 H         1 <1>         0.1888
     30 H11         2.9575   -1.4258    2.7531 H         1 <1>         0.1371
     31 H12         2.8909    0.3244    2.5421 H         1 <1>         0.1369
     32 H13         7.5540    0.7320    1.3706 H         1 <1>         0.2793
     33 H14         2.0985   -1.7207    0.6684 H         1 <1>         0.2844
@<TRIPOS>BOND
     1    1    3 ar
     2    1    4 ar
     3    2    5 ar
     4    2    6 ar
     5    3    7 ar
     6    4    8 ar
     7    5    9 ar
     8    6   11 ar
     9    7   12 ar
    10    8   12 ar
    11    9   14 ar
    12   10   13 2
    13   10   17 1
    14   11   13 1
    15   11   14 ar
    16   12   15 1
    17   13   16 1
    18   14   17 1
    19   15   18 am
    20   15   19 2
    21   16   18 1
    22    1   20 1
    23    2   21 1
    24    3   22 1
    25    4   23 1
    26    5   24 1
    27    6   25 1
    28    7   26 1
    29    8   27 1
    30    9   28 1
    31   10   29 1
    32   16   30 1
    33   16   31 1
    34   17   32 1
    35   18   33 1
