@<TRIPOS>MOLECULE
AG-690/11350932
   22    23     0
SMALL
USER_CHARGE


@<TRIPOS>ATOM
      1 C1          0.7425   -0.6341    1.1756 C.1       1 <1>         0.0506
      2 C2          2.4729    0.5544   -0.1092 C.1       1 <1>         0.0485
      3 C3          6.5895   -3.9105    0.8619 C.ar      1 <1>        -0.0883
      4 C4          7.8092   -3.2380    0.8204 C.ar      1 <1>        -0.0870
      5 C5          5.3966   -3.2169    1.0960 C.ar      1 <1>        -0.0781
      6 C6          7.8766   -1.8548    1.0105 C.ar      1 <1>        -0.0769
      7 C7          5.1020    0.3849    1.6451 C.2       1 <1>        -0.0263
      8 C8          5.4396   -1.8220    1.2907 C.ar      1 <1>        -0.0530
      9 C9          4.4558   -0.8255    1.5445 C.2       1 <1>        -0.0159
     10 C10         6.6760   -1.1745    1.2436 C.ar      1 <1>        -0.0532
     11 C11         3.0604   -0.9976    1.6779 C.2       1 <1>         0.0457
     12 C12         2.1236   -0.3742    0.9185 C.2       1 <1>         0.1647
     13 N1         -0.3800   -0.8445    1.3824 N.1       1 <1>        -0.3867
     14 N2          2.7518    1.3107   -0.9443 N.1       1 <1>        -0.3895
     15 N3          6.4408    0.1644    1.4618 N.pl3     1 <1>        -0.3488
     16 H1          6.5625   -4.9862    0.7090 H         1 <1>         0.1226
     17 H2          8.7232   -3.7967    0.6367 H         1 <1>         0.1271
     18 H3          4.4544   -3.7571    1.1244 H         1 <1>         0.1359
     19 H4          8.8264   -1.3316    0.9769 H         1 <1>         0.1357
     20 H5          4.7351    1.3856    1.8304 H         1 <1>         0.2175
     21 H6          2.7157   -1.6580    2.4831 H         1 <1>         0.2596
     22 H7          7.1533    0.8807    1.4838 H         1 <1>         0.2961
@<TRIPOS>BOND
     1    1   12 1
     2    1   13 3
     3    2   12 1
     4    2   14 3
     5    3    4 ar
     6    3    5 ar
     7    4    6 ar
     8    5    8 ar
     9    6   10 ar
    10    7    9 2
    11    7   15 1
    12    8    9 1
    13    8   10 ar
    14    9   11 1
    15   10   15 1
    16   11   12 2
    17    3   16 1
    18    4   17 1
    19    5   18 1
    20    6   19 1
    21    7   20 1
    22   11   21 1
    23   15   22 1
