@<TRIPOS>MOLECULE
AK-968/40721996
   38    39     0
SMALL
USER_CHARGE


@<TRIPOS>ATOM
      1 C1          6.7878   -3.9661    1.0985 C.ar      1 <1>        -0.0921
      2 C2          7.9929   -3.2874    0.9288 C.ar      1 <1>        -0.0879
      3 C3          5.6010   -3.2672    1.3475 C.ar      1 <1>        -0.0909
      4 C4          8.0512   -1.8927    1.0021 C.ar      1 <1>        -0.0813
      5 C5          5.2869    0.3642    1.6200 C.2       1 <1>        -0.0623
      6 C6          5.6350   -1.8607    1.4257 C.ar      1 <1>        -0.0834
      7 C7          4.6537   -0.8566    1.6571 C.2       1 <1>        -0.0822
      8 C8          6.8569   -1.2073    1.2516 C.ar      1 <1>        -0.0695
      9 C9          2.3281    0.6320    0.2010 C.2       1 <1>         0.0074
     10 C10         2.8594    1.2546   -3.7138 C.3       1 <1>        -0.0583
     11 C11         3.1856   -1.0777    1.9016 C.3       1 <1>        -0.0002
     12 C12         2.6372    2.3104   -2.6400 C.3       1 <1>        -0.0416
     13 C13         3.5111    2.0930   -1.4107 C.3       1 <1>        -0.0035
     14 C14         2.2710   -0.8038    0.6983 C.3       1 <1>         0.0346
     15 N1          6.6155    0.1424    1.3746 N.pl3     1 <1>        -0.3665
     16 N2          3.2798    0.8100   -0.7917 N.am      1 <1>        -0.3522
     17 N3          0.8696   -1.1852    1.0367 N.4       1 <1>         0.4689
     18 O1          1.6033    1.5199    0.6452 O.2       1 <1>        -0.5713
     19 H1          6.7677   -5.0508    1.0366 H         1 <1>         0.1212
     20 H2          8.9027   -3.8502    0.7362 H         1 <1>         0.1304
     21 H3          4.6695   -3.8109    1.4766 H         1 <1>         0.1240
     22 H4          8.9899   -1.3653    0.8708 H         1 <1>         0.1353
     23 H5          4.9123    1.3709    1.7446 H         1 <1>         0.1773
     24 H6          3.9021    1.2478   -4.0472 H         1 <1>         0.0381
     25 H7          2.6237    0.2611   -3.3194 H         1 <1>         0.0404
     26 H8          2.2200    1.4303   -4.5843 H         1 <1>         0.0379
     27 H9          2.8714   -0.4463    2.7437 H         1 <1>         0.1092
     28 H10         3.0275   -2.1099    2.2438 H         1 <1>         0.1030
     29 H11         1.5846    2.2840   -2.3353 H         1 <1>         0.0571
     30 H12         2.8269    3.3028   -3.0660 H         1 <1>         0.0568
     31 H13         4.5683    2.1266   -1.6920 H         1 <1>         0.1073
     32 H14         3.3347    2.8659   -0.6559 H         1 <1>         0.1076
     33 H15         2.5547   -1.4658   -0.1286 H         1 <1>         0.1571
     34 H16         7.3181    0.8646    1.2952 H         1 <1>         0.2820
     35 H17         3.8315    0.0121   -1.0927 H         1 <1>         0.2771
     36 H18         0.4951   -0.5697    1.7627 H         1 <1>         0.1566
     37 H19         0.8330   -2.1482    1.3802 H         1 <1>         0.1565
     38 H20         0.2688   -1.1139    0.2119 H         1 <1>         0.1568
@<TRIPOS>BOND
     1    1    2 ar
     2    1    3 ar
     3    2    4 ar
     4    3    6 ar
     5    4    8 ar
     6    5    7 2
     7    5   15 1
     8    6    7 1
     9    6    8 ar
    10    7   11 1
    11    8   15 1
    12    9   14 1
    13    9   16 am
    14    9   18 2
    15   10   12 1
    16   11   14 1
    17   12   13 1
    18   13   16 1
    19   14   17 1
    20    1   19 1
    21    2   20 1
    22    3   21 1
    23    4   22 1
    24    5   23 1
    25   10   24 1
    26   10   25 1
    27   10   26 1
    28   11   27 1
    29   11   28 1
    30   12   29 1
    31   12   30 1
    32   13   31 1
    33   13   32 1
    34   14   33 1
    35   15   34 1
    36   16   35 1
    37   17   36 1
    38   17   37 1
    39   17   38 1
