@<TRIPOS>MOLECULE
AI-981/34479008
   26    27     0
SMALL
USER_CHARGE


@<TRIPOS>ATOM
      1 C1          6.7587   -3.9985    1.1016 C.ar      1 <1>        -0.0887
      2 C2          7.9703   -3.3319    0.9301 C.ar      1 <1>        -0.0874
      3 C3          5.5790   -3.2875    1.3501 C.ar      1 <1>        -0.0767
      4 C4          8.0424   -1.9377    1.0009 C.ar      1 <1>        -0.0760
      5 C5          5.3009    0.3474    1.6167 C.2       1 <1>        -0.0214
      6 C6          5.6269   -1.8813    1.4259 C.ar      1 <1>        -0.0489
      7 C7          4.6557   -0.8671    1.6561 C.2       1 <1>        -0.0229
      8 C8          6.8551   -1.2402    1.2499 C.ar      1 <1>        -0.0492
      9 C9          3.2484   -1.0251    1.8914 C.2       1 <1>        -0.0142
     10 C10         1.1422   -1.0900   -0.1846 C.3       1 <1>        -0.0313
     11 C11         1.1535   -0.1299    0.9859 C.3       1 <1>         0.0077
     12 N1          2.6941   -2.0680    2.4745 N.2       1 <1>        -0.3949
     13 N2          6.6271    0.1121    1.3707 N.pl3     1 <1>        -0.3455
     14 O1          2.5047    0.0383    1.4397 O.3       1 <1>        -0.4646
     15 H1          6.7281   -5.0833    1.0412 H         1 <1>         0.1204
     16 H2          8.8747   -3.9038    0.7383 H         1 <1>         0.1261
     17 H3          4.6425   -3.8217    1.4811 H         1 <1>         0.1323
     18 H4          8.9864   -1.4203    0.8674 H         1 <1>         0.1357
     19 H5          4.9385    1.3586    1.7408 H         1 <1>         0.2255
     20 H6          1.7427   -0.7032   -1.0124 H         1 <1>         0.0639
     21 H7          1.5383   -2.0665    0.1134 H         1 <1>         0.0694
     22 H8          0.1191   -1.2559   -0.5376 H         1 <1>         0.0639
     23 H9          0.5511   -0.5228    1.8104 H         1 <1>         0.1286
     24 H10         0.7583    0.8453    0.6862 H         1 <1>         0.1286
     25 H11         3.3694   -2.7813    2.7564 H         1 <1>         0.2259
     26 H12         7.3365    0.8275    1.2902 H         1 <1>         0.2938
@<TRIPOS>BOND
     1    1    2 ar
     2    1    3 ar
     3    2    4 ar
     4    3    6 ar
     5    4    8 ar
     6    5    7 2
     7    5   13 1
     8    6    7 1
     9    6    8 ar
    10    7    9 1
    11    8   13 1
    12    9   12 2
    13    9   14 1
    14   10   11 1
    15   11   14 1
    16    1   15 1
    17    2   16 1
    18    3   17 1
    19    4   18 1
    20    5   19 1
    21   10   20 1
    22   10   21 1
    23   10   22 1
    24   11   23 1
    25   11   24 1
    26   12   25 1
    27   13   26 1
