@<TRIPOS>MOLECULE
ZINC00141641
   31    32     0
SMALL
USER_CHARGE


@<TRIPOS>ATOM
      1 C1          6.7588   -3.9984    1.1017 C.ar      1 <1>        -0.0950
      2 C2          5.5790   -3.2875    1.3501 C.ar      1 <1>        -0.0933
      3 C3          7.9703   -3.3320    0.9301 C.ar      1 <1>        -0.0944
      4 C4          5.6269   -1.8814    1.4259 C.ar      1 <1>        -0.0894
      5 C5          8.0424   -1.9377    1.0008 C.ar      1 <1>        -0.0974
      6 C6          4.6556   -0.8671    1.6562 C.2       1 <1>        -0.1004
      7 C7          6.8551   -1.2402    1.2499 C.ar      1 <1>        -0.0769
      8 C8          5.3010    0.3474    1.6166 C.2       1 <1>        -0.0879
      9 C9          9.3567   -1.2563    0.8127 C.3       1 <1>        -0.0358
     10 C10         4.7916    1.7218    1.7875 C.3       1 <1>        -0.0235
     11 C11         3.2125   -1.0781    1.8949 C.3       1 <1>        -0.0314
     12 C12         2.4007   -1.4290    0.6404 C.3       1 <1>        -0.0313
     13 N1          6.6271    0.1122    1.3707 N.pl3     1 <1>        -0.3752
     14 N2          0.9820   -1.6702    1.0021 N.4       1 <1>         0.4566
     15 H1          6.7279   -5.0831    1.0422 H         1 <1>         0.1181
     16 H2          4.6423   -3.8218    1.4808 H         1 <1>         0.1205
     17 H3          8.8692   -3.9137    0.7385 H         1 <1>         0.1250
     18 H4          9.5161   -1.0220   -0.2466 H         1 <1>         0.0672
     19 H5          9.4065   -0.3230    1.3877 H         1 <1>         0.0683
     20 H6         10.1849   -1.8879    1.1586 H         1 <1>         0.0617
     21 H7          4.8304    2.0315    2.8448 H         1 <1>         0.0856
     22 H8          5.3730    2.4547    1.2024 H         1 <1>         0.0841
     23 H9          3.7463    1.8213    1.4477 H         1 <1>         0.0868
     24 H10         3.0713   -1.9023    2.6186 H         1 <1>         0.0743
     25 H11         2.7503   -0.1992    2.3822 H         1 <1>         0.0736
     26 H12         2.7600   -2.3509    0.1737 H         1 <1>         0.0716
     27 H13         2.4080   -0.6220   -0.0986 H         1 <1>         0.0736
     28 H14         7.3380    0.8259    1.2885 H         1 <1>         0.2778
     29 H15         0.4303   -0.8102    0.9161 H         1 <1>         0.1284
     30 H16         0.9022   -2.0020    1.9694 H         1 <1>         0.1296
     31 H17         0.5627   -2.3777    0.3894 H         1 <1>         0.1290
@<TRIPOS>BOND
     1    1    2 ar
     2    1    3 ar
     3    2    4 ar
     4    3    5 ar
     5    4    6 1
     6    4    7 ar
     7    5    7 ar
     8    5    9 1
     9    6    8 2
    10    6   11 1
    11    7   13 1
    12    8   10 1
    13    8   13 1
    14   11   12 1
    15   12   14 1
    16    1   15 1
    17    2   16 1
    18    3   17 1
    19    9   18 1
    20    9   19 1
    21    9   20 1
    22   10   21 1
    23   10   22 1
    24   10   23 1
    25   11   24 1
    26   11   25 1
    27   12   26 1
    28   12   27 1
    29   13   28 1
    30   14   29 1
    31   14   30 1
    32   14   31 1
