@<TRIPOS>MOLECULE
AB-337/13036072
   31    33     0
SMALL
USER_CHARGE


@<TRIPOS>ATOM
      1 C1          6.7586   -3.9984    1.1016 C.ar      1 <1>        -0.0908
      2 C2          7.9703   -3.3320    0.9301 C.ar      1 <1>        -0.0891
      3 C3          5.5790   -3.2874    1.3500 C.ar      1 <1>        -0.0814
      4 C4          8.0424   -1.9378    1.0010 C.ar      1 <1>        -0.0779
      5 C5          5.3010    0.3474    1.6165 C.2       1 <1>        -0.0287
      6 C6          5.6270   -1.8813    1.4259 C.ar      1 <1>        -0.0587
      7 C7          4.6557   -0.8671    1.6562 C.2       1 <1>        -0.0355
      8 C8          6.8551   -1.2402    1.2499 C.ar      1 <1>        -0.0538
      9 C9          2.2896   -0.5386    1.1003 C.2       1 <1>         0.0202
     10 C10         0.8605   -0.7808    1.4619 C.2       1 <1>         0.0235
     11 C11         2.6744    0.2373   -0.1168 C.2       1 <1>         0.0221
     12 C12         3.2533   -1.0291    1.8914 C.2       1 <1>        -0.0155
     13 C13        -0.1916   -0.1752    0.5598 C.3       1 <1>         0.0238
     14 C14         1.5521    0.8034   -0.9576 C.3       1 <1>         0.0236
     15 C15         0.3099    1.0863   -0.1266 C.3       1 <1>        -0.0073
     16 N1          6.6270    0.1121    1.3708 N.pl3     1 <1>        -0.3482
     17 O1          0.5395   -1.4807    2.4207 O.2       1 <1>        -0.5597
     18 O2          3.8477    0.3765   -0.4581 O.2       1 <1>        -0.5618
     19 H1          6.7275   -5.0830    1.0401 H         1 <1>         0.1191
     20 H2          8.8741   -3.9041    0.7376 H         1 <1>         0.1233
     21 H3          4.6428   -3.8233    1.4807 H         1 <1>         0.1304
     22 H4          8.9860   -1.4195    0.8661 H         1 <1>         0.1340
     23 H5          4.9414    1.3600    1.7407 H         1 <1>         0.2237
     24 H6          2.9419   -1.6120    2.7552 H         1 <1>         0.2124
     25 H7         -0.4559   -0.9153   -0.2036 H         1 <1>         0.1221
     26 H8         -1.0821    0.0337    1.1626 H         1 <1>         0.1244
     27 H9          1.9142    1.7152   -1.4448 H         1 <1>         0.1232
     28 H10         1.3026    0.0716   -1.7340 H         1 <1>         0.1245
     29 H11        -0.4796    1.4929   -0.7715 H         1 <1>         0.0779
     30 H12         0.5376    1.8487    0.6269 H         1 <1>         0.0818
     31 H13         7.3363    0.8276    1.2896 H         1 <1>         0.2978
@<TRIPOS>BOND
     1    1    2 ar
     2    1    3 ar
     3    2    4 ar
     4    3    6 ar
     5    4    8 ar
     6    5    7 2
     7    5   16 1
     8    6    7 1
     9    6    8 ar
    10    7   12 1
    11    8   16 1
    12    9   10 1
    13    9   11 1
    14    9   12 2
    15   10   13 1
    16   10   17 2
    17   11   14 1
    18   11   18 2
    19   13   15 1
    20   14   15 1
    21    1   19 1
    22    2   20 1
    23    3   21 1
    24    4   22 1
    25    5   23 1
    26   12   24 1
    27   13   25 1
    28   13   26 1
    29   14   27 1
    30   14   28 1
    31   15   29 1
    32   15   30 1
    33   16   31 1
