@<TRIPOS>MOLECULE
AE-473/30364041
   29    31     0
SMALL
USER_CHARGE


@<TRIPOS>ATOM
      1 C1          6.8132   -4.0120    1.0925 C.ar      1 <1>        -0.0903
      2 C2          7.9947   -3.2925    0.9280 C.ar      1 <1>        -0.0862
      3 C3          5.6032   -3.3549    1.3428 C.ar      1 <1>        -0.0880
      4 C4          8.0062   -1.8971    1.0086 C.ar      1 <1>        -0.0785
      5 C5          5.5879   -1.9480    1.4278 C.ar      1 <1>        -0.0857
      6 C6          4.5767   -0.9764    1.6618 C.2       1 <1>        -0.0973
      7 C7          6.7902   -1.2512    1.2598 C.ar      1 <1>        -0.0696
      8 C8          5.1797    0.2624    1.6358 C.2       1 <1>        -0.0862
      9 C9          3.1239   -1.1318    1.9209 C.3       1 <1>        -0.0216
     10 C10         4.4947    1.5691    1.8113 C.3       1 <1>        -0.0174
     11 C11         3.1107    1.3571    2.4454 C.3       1 <1>        -0.0269
     12 C12         1.9219    0.4862    0.3846 C.3       1 <1>        -0.0382
     13 N1          6.5111    0.0933    1.3899 N.pl3     1 <1>        -0.3725
     14 N2          2.3644    0.1941    1.7935 N.4       1 <1>         0.4510
     15 H1          6.8291   -5.0966    1.0244 H         1 <1>         0.1216
     16 H2          8.9230   -3.8233    0.7328 H         1 <1>         0.1305
     17 H3          4.6901   -3.9294    1.4699 H         1 <1>         0.1330
     18 H4          8.9275   -1.3389    0.8800 H         1 <1>         0.1418
     19 H5          2.6804   -1.8258    1.1931 H         1 <1>         0.0953
     20 H6          2.9347   -1.5001    2.9379 H         1 <1>         0.0945
     21 H7          5.1033    2.2086    2.4626 H         1 <1>         0.0988
     22 H8          4.3833    2.0845    0.8506 H         1 <1>         0.1043
     23 H9          3.2100    1.1270    3.5185 H         1 <1>         0.0859
     24 H10         2.4684    2.2478    2.3353 H         1 <1>         0.0843
     25 H11         2.8170    0.6162   -0.2264 H         1 <1>         0.0688
     26 H12         1.3296   -0.3625    0.0377 H         1 <1>         0.0687
     27 H13         1.3245    1.3997    0.4046 H         1 <1>         0.0689
     28 H14         7.1927    0.8364    1.3158 H         1 <1>         0.2836
     29 H15         1.4848    0.0757    2.3496 H         1 <1>         0.1270
@<TRIPOS>BOND
     1    1    2 ar
     2    1    3 ar
     3    2    4 ar
     4    3    5 ar
     5    4    7 ar
     6    5    6 1
     7    5    7 ar
     8    6    8 2
     9    6    9 1
    10    7   13 1
    11    8   10 1
    12    8   13 1
    13    9   14 1
    14   10   11 1
    15   11   14 1
    16   12   14 1
    17    1   15 1
    18    2   16 1
    19    3   17 1
    20    4   18 1
    21    9   19 1
    22    9   20 1
    23   10   21 1
    24   10   22 1
    25   11   23 1
    26   11   24 1
    27   12   25 1
    28   12   26 1
    29   12   27 1
    30   13   28 1
    31   14   29 1
