@<TRIPOS>MOLECULE
AN-652/42476886
   28    29     0
SMALL
USER_CHARGE


@<TRIPOS>ATOM
      1 C1          7.0675   -0.2682    1.7512 C.ar      1 <1>        -0.0520
      2 C2          5.6021   -3.5856    0.9583 C.ar      1 <1>        -0.0624
      3 C3          5.9178    0.5063    1.9100 C.ar      1 <1>        -0.0192
      4 C4          6.7518   -4.3600    0.7996 C.ar      1 <1>        -0.0584
      5 C5          4.5495   -1.4259    1.4391 C.ar      1 <1>        -0.0112
      6 C6          8.1201   -2.4278    1.2704 C.ar      1 <1>        -0.0535
      7 C7          5.6959   -2.2207    1.2756 C.ar      1 <1>        -0.0461
      8 C8          6.9737   -1.6332    1.4340 C.ar      1 <1>        -0.0546
      9 C9          4.6615   -0.0715    1.7542 C.ar      1 <1>         0.0528
     10 C10         8.0082   -3.7823    0.9552 C.ar      1 <1>        -0.0345
     11 C11         0.5406    0.3494    1.6139 C.3       1 <1>         0.0113
     12 C12         1.2352    1.6821    1.4439 C.3       1 <1>         0.1050
     13 O1          3.4155    2.8122    0.5571 O.2       1 <1>        -0.4986
     14 O2          2.6685    0.6087   -0.4564 O.2       1 <1>        -0.4986
     15 O3          3.5407    0.6850    1.9119 O.3       1 <1>        -0.3282
     16 S1          2.8257    1.4941    0.6800 S.o2      1 <1>        -0.1874
     17 Br1         9.5637   -4.8339    0.7390 Br        1 <1>        -0.1556
     18 H1          8.0394    0.2045    1.8775 H         1 <1>         0.1594
     19 H2          4.6303   -4.0584    0.8326 H         1 <1>         0.1532
     20 H3          6.0107    1.5607    2.1555 H         1 <1>         0.1741
     21 H4          6.6472   -5.4139    0.5542 H         1 <1>         0.1528
     22 H5          3.5593   -1.8625    1.3212 H         1 <1>         0.1965
     23 H6          9.1057   -1.9809    1.3916 H         1 <1>         0.1630
     24 H7          0.3826   -0.1263    0.6414 H         1 <1>         0.1001
     25 H8          1.1370   -0.3275    2.2344 H         1 <1>         0.1001
     26 H9         -0.4334    0.4732    2.0981 H         1 <1>         0.1039
     27 H10         1.3973    2.1650    2.4115 H         1 <1>         0.2635
     28 H11         0.6489    2.3507    0.8078 H         1 <1>         0.2651
@<TRIPOS>BOND
     1    1    3 ar
     2    1    8 ar
     3    2    4 ar
     4    2    7 ar
     5    3    9 ar
     6    4   10 ar
     7    5    7 ar
     8    5    9 ar
     9    6    8 ar
    10    6   10 ar
    11    7    8 ar
    12    9   15 1
    13   10   17 1
    14   11   12 1
    15   12   16 1
    16   13   16 2
    17   14   16 2
    18   15   16 1
    19    1   18 1
    20    2   19 1
    21    3   20 1
    22    4   21 1
    23    5   22 1
    24    6   23 1
    25   11   24 1
    26   11   25 1
    27   11   26 1
    28   12   27 1
    29   12   28 1
