@<TRIPOS>MOLECULE
AK-918/11907028
   37    39     0
SMALL
USER_CHARGE


@<TRIPOS>ATOM
      1 C1          4.1685   -0.3590    1.2306 C.2       1 <1>         0.5741
      2 C2          3.6033   -2.0918   -0.2529 C.2       1 <1>         0.5589
      3 C3          2.5286    1.4961   -0.3295 C.2       1 <1>         0.4647
      4 C4          7.5673   -2.2277    0.9586 C.3       1 <1>        -0.1276
      5 C5          6.8790   -3.3741    0.1684 C.3       1 <1>        -0.1272
      6 C6          6.0386   -3.2271    2.3936 C.3       1 <1>        -0.1201
      7 C7          5.3178   -1.3072    1.0695 C.3       1 <1>        -0.1928
      8 C8          4.5239   -2.5862    0.8183 C.3       1 <1>        -0.1170
      9 C9          6.4585   -1.8074    1.9570 C.3       1 <1>        -0.0541
     10 C10         5.5893   -3.6542    0.9712 C.3       1 <1>        -0.0790
     11 C11         0.9334    0.0673    1.9764 C.3       1 <1>        -0.1529
     12 C12        -0.3517    0.2584   -0.1675 C.3       1 <1>        -0.1401
     13 C13         2.1774   -0.0072   -0.2641 C.3       1 <1>         0.0942
     14 C14         0.8823   -0.3558    0.5040 C.3       1 <1>        -0.0910
     15 N1          3.2869   -0.7999    0.2195 N.am      1 <1>        -0.5813
     16 O1          2.7607    2.0617    0.7756 O.co2     1 <1>        -0.5000
     17 O2          4.0962    0.5990    1.9762 O.2       1 <1>        -0.4795
     18 O3          3.1803   -2.7113   -1.2100 O.2       1 <1>        -0.4640
     19 O4          2.5733    1.9864   -1.4950 O.co2     1 <1>        -0.5000
     20 H1          8.4488   -2.6066    1.4900 H         1 <1>         0.0740
     21 H2          7.8968   -1.4158    0.3021 H         1 <1>         0.0679
     22 H3          6.6595   -3.0874   -0.8651 H         1 <1>         0.0758
     23 H4          7.5320   -4.2536    0.1516 H         1 <1>         0.0648
     24 H5          6.8678   -3.8314    2.7792 H         1 <1>         0.0755
     25 H6          5.2350   -3.2234    3.1381 H         1 <1>         0.0816
     26 H7          5.7769   -0.9178    0.1423 H         1 <1>         0.0951
     27 H8          3.8022   -2.7838    1.6355 H         1 <1>         0.1359
     28 H9          6.7874   -1.1340    2.7487 H         1 <1>         0.1167
     29 H10         5.2176   -4.6766    0.8840 H         1 <1>         0.1095
     30 H11         1.0698    1.1511    2.0579 H         1 <1>         0.0435
     31 H12         1.7640   -0.4107    2.5063 H         1 <1>         0.0364
     32 H13         0.0065   -0.1876    2.4991 H         1 <1>         0.1074
     33 H14        -0.2807    1.3515   -0.1771 H         1 <1>         0.0381
     34 H15        -1.2642   -0.0101    0.3750 H         1 <1>         0.0535
     35 H16        -0.4595   -0.0769   -1.2043 H         1 <1>         0.0510
     36 H17         2.0433   -0.3025   -1.3136 H         1 <1>         0.0967
     37 H18         0.7451   -1.4447    0.4785 H         1 <1>         0.0800
@<TRIPOS>BOND
     1    1    7 1
     2    1   15 am
     3    1   17 2
     4    2    8 1
     5    2   15 am
     6    2   18 2
     7    3   13 1
     8    3   16 1
     9    3   19 2
    10    4    5 1
    11    4    9 1
    12    5   10 1
    13    6    9 1
    14    6   10 1
    15    7    8 1
    16    7    9 1
    17    8   10 1
    18   11   14 1
    19   12   14 1
    20   13   14 1
    21   13   15 1
    22    4   20 1
    23    4   21 1
    24    5   22 1
    25    5   23 1
    26    6   24 1
    27    6   25 1
    28    7   26 1
    29    8   27 1
    30    9   28 1
    31   10   29 1
    32   11   30 1
    33   11   31 1
    34   11   32 1
    35   12   33 1
    36   12   34 1
    37   12   35 1
    38   13   36 1
    39   14   37 1
