@<TRIPOS>MOLECULE
AI-204/31682043
   30    31     0
SMALL
USER_CHARGE


@<TRIPOS>ATOM
      1 C1          7.7996   -3.5519    0.8438 C.ar      1 <1>        -0.0778
      2 C2          6.5648   -4.1918    0.9022 C.ar      1 <1>        -0.0793
      3 C3          7.8836   -2.1797    1.0761 C.ar      1 <1>        -0.0620
      4 C4          5.4138   -3.4609    1.1985 C.ar      1 <1>        -0.0650
      5 C5          6.7284   -1.4380    1.3531 C.ar      1 <1>        -0.0236
      6 C6          5.4882   -2.0800    1.4233 C.ar      1 <1>        -0.0335
      7 C7          5.8559    0.8562    1.7346 C.2       1 <1>         0.0629
      8 C8          2.8362    0.6092   -0.5755 C.2       1 <1>         0.0669
      9 C9          4.4611    0.4524    1.3031 C.3       1 <1>         0.0938
     10 C10         5.0341    1.8041   -0.7364 C.3       1 <1>        -0.0086
     11 C11         0.8307   -0.6392   -0.4336 C.3       1 <1>         0.0316
     12 C12         4.3095    0.5682   -0.2103 C.3       1 <1>         0.0721
     13 N1          6.8740   -0.0609    1.6016 N.am      1 <1>        -0.3046
     14 O1          6.0784    2.0172    2.0914 O.2       1 <1>        -0.5342
     15 O2          2.2893    1.5280   -1.1714 O.2       1 <1>        -0.5218
     16 O3          2.2289   -0.5368   -0.1455 O.3       1 <1>        -0.4269
     17 S1          4.0128   -1.2016    1.8835 S.3       1 <1>        -0.1621
     18 H1          8.6959   -4.1198    0.6123 H         1 <1>         0.1367
     19 H2          6.4953   -5.2574    0.7060 H         1 <1>         0.1319
     20 H3          8.8583   -1.6976    1.0453 H         1 <1>         0.1478
     21 H4          4.4602   -3.9831    1.2453 H         1 <1>         0.1501
     22 H5          3.7651    1.1886    1.7658 H         1 <1>         0.2296
     23 H6          4.6290    2.7148   -0.2829 H         1 <1>         0.0798
     24 H7          4.9213    1.8877   -1.8228 H         1 <1>         0.0811
     25 H8          6.1070    1.7642   -0.5172 H         1 <1>         0.0802
     26 H9          0.4472   -1.5875   -0.0490 H         1 <1>         0.1369
     27 H10         0.6753   -0.5824   -1.5139 H         1 <1>         0.1361
     28 H11         0.3063    0.1871    0.0519 H         1 <1>         0.1522
     29 H12         4.7533   -0.3097   -0.6954 H         1 <1>         0.1849
     30 H13         7.8265    0.2911    1.6916 H         1 <1>         0.3242
@<TRIPOS>BOND
     1    1    2 ar
     2    1    3 ar
     3    2    4 ar
     4    3    5 ar
     5    4    6 ar
     6    5    6 ar
     7    5   13 1
     8    6   17 1
     9    7    9 1
    10    7   13 am
    11    7   14 2
    12    8   12 1
    13    8   15 2
    14    8   16 1
    15    9   12 1
    16    9   17 1
    17   10   12 1
    18   11   16 1
    19    1   18 1
    20    2   19 1
    21    3   20 1
    22    4   21 1
    23    9   22 1
    24   10   23 1
    25   10   24 1
    26   10   25 1
    27   11   26 1
    28   11   27 1
    29   11   28 1
    30   12   29 1
    31   13   30 1
