@<TRIPOS>MOLECULE
AK-968/41170120
   34    35     0
SMALL
USER_CHARGE


@<TRIPOS>ATOM
      1 C1          8.3093   -3.5541    1.4686 C.ar      1 <1>        -0.0953
      2 C2          7.1662   -4.3278    1.6468 C.ar      1 <1>        -0.0938
      3 C3          8.1968   -2.1779    1.2690 C.ar      1 <1>        -0.0900
      4 C4          5.9067   -3.7286    1.6263 C.ar      1 <1>        -0.0865
      5 C5          6.8053   -0.1738    1.0456 C.ar      1 <1>        -0.0750
      6 C6          5.5456    0.4256    1.0249 C.ar      1 <1>        -0.0610
      7 C7          4.5149   -1.7245    1.4027 C.ar      1 <1>        -0.0559
      8 C8          6.9370   -1.5577    1.2452 C.ar      1 <1>        -0.0802
      9 C9          5.7748   -2.3446    1.4265 C.ar      1 <1>        -0.0738
     10 C10         4.4026   -0.3483    1.2031 C.ar      1 <1>        -0.0311
     11 C11         2.4626    0.6156   -1.0678 C.2       1 <1>         0.0865
     12 C12         3.6042   -0.5555   -4.3440 C.3       1 <1>        -0.0262
     13 C13         0.8497   -0.0475    0.7324 C.3       1 <1>         0.0038
     14 C14         3.1469    0.4692   -3.3280 C.3       1 <1>         0.0239
     15 C15         2.2574   -0.2100    0.1860 C.3       1 <1>         0.0895
     16 O1          2.2937    1.8263   -1.1367 O.2       1 <1>        -0.5051
     17 O2          3.1746    0.2381    1.1828 O.3       1 <1>        -0.4370
     18 O3          2.8862   -0.1908   -2.0851 O.3       1 <1>        -0.4224
     19 H1          9.2893   -4.0216    1.4841 H         1 <1>         0.1155
     20 H2          7.2541   -5.3994    1.8026 H         1 <1>         0.1192
     21 H3          9.1032   -1.5919    1.1313 H         1 <1>         0.1260
     22 H4          5.0269   -4.3532    1.7671 H         1 <1>         0.1286
     23 H5          7.6851    0.4505    0.9034 H         1 <1>         0.1411
     24 H6          5.4640    1.4978    0.8684 H         1 <1>         0.1430
     25 H7          3.6111   -2.3153    1.5407 H         1 <1>         0.1590
     26 H8          4.5211   -1.0510   -4.0130 H         1 <1>         0.0674
     27 H9          2.8303   -1.3136   -4.5030 H         1 <1>         0.0674
     28 H10         3.7892   -0.0814   -5.3138 H         1 <1>         0.0730
     29 H11         0.6199    0.9997    0.9528 H         1 <1>         0.0941
     30 H12         0.1128   -0.4229    0.0143 H         1 <1>         0.0920
     31 H13         0.7188   -0.6254    1.6545 H         1 <1>         0.0971
     32 H14         2.2296    0.9610   -3.6651 H         1 <1>         0.1362
     33 H15         3.9216    1.2254   -3.1698 H         1 <1>         0.1361
     34 H16         2.4773   -1.2603   -0.0310 H         1 <1>         0.2339
@<TRIPOS>BOND
     1    1    2 ar
     2    1    3 ar
     3    2    4 ar
     4    3    8 ar
     5    4    9 ar
     6    5    6 ar
     7    5    8 ar
     8    6   10 ar
     9    7    9 ar
    10    7   10 ar
    11    8    9 ar
    12   10   17 1
    13   11   15 1
    14   11   16 2
    15   11   18 1
    16   12   14 1
    17   13   15 1
    18   14   18 1
    19   15   17 1
    20    1   19 1
    21    2   20 1
    22    3   21 1
    23    4   22 1
    24    5   23 1
    25    6   24 1
    26    7   25 1
    27   12   26 1
    28   12   27 1
    29   12   28 1
    30   13   29 1
    31   13   30 1
    32   13   31 1
    33   14   32 1
    34   14   33 1
    35   15   34 1
