@<TRIPOS>MOLECULE
ZINC00574168
   30    31     0
SMALL
USER_CHARGE


@<TRIPOS>ATOM
      1 C1          7.8176   -2.1479    1.3670 C.ar      1 <1>        -0.0978
      2 C2          7.5496   -3.5180    1.2967 C.ar      1 <1>        -0.1936
      3 C3          5.1569   -3.1065    1.2493 C.ar      1 <1>        -0.0974
      4 C4          5.4023   -1.7208    1.3198 C.ar      1 <1>        -0.0626
      5 C5          4.5702   -0.5668    1.3497 C.2       1 <1>        -0.1344
      6 C6          6.7243   -1.2744    1.3770 C.ar      1 <1>         0.0549
      7 C7          6.2408   -3.9922    1.2386 C.ar      1 <1>         0.0712
      8 C8          5.3879    0.5372    1.4236 C.2       1 <1>         0.0424
      9 C9          4.9482    1.9995    1.4789 C.2       1 <1>         0.5406
     10 C10         2.9617    0.1883   -1.1799 C.2       1 <1>         0.4972
     11 C11         7.1525   -6.1874    1.1661 C.3       1 <1>         0.0346
     12 C12         3.0925   -0.5580    1.3100 C.3       1 <1>        -0.0204
     13 C13         2.5256   -0.8032   -0.0962 C.3       1 <1>        -0.1612
     14 N1          6.6854    0.1004    1.4392 N.pl3     1 <1>        -0.5705
     15 O1          5.8668    2.8622    1.5446 O.co2     1 <1>        -0.5000
     16 O2          2.5947    1.3801   -0.9655 O.co2     1 <1>        -0.5000
     17 O3          3.7053    2.2157    1.4544 O.co2     1 <1>        -0.5000
     18 O4          3.6251   -0.2818   -2.1443 O.co2     1 <1>        -0.5000
     19 O5          6.0102   -5.3340    1.1720 O.3       1 <1>        -0.3233
     20 H1          8.8372   -1.7798    1.4107 H         1 <1>         0.1124
     21 H2          8.3816   -4.2185    1.2872 H         1 <1>         0.1183
     22 H3          4.1396   -3.4859    1.2047 H         1 <1>         0.1276
     23 H4          6.8292   -7.2297    1.1106 H         1 <1>         0.0879
     24 H5          7.7355   -6.0237    2.0759 H         1 <1>         0.0461
     25 H6          7.7675   -5.9519    0.2943 H         1 <1>         0.0466
     26 H7          2.6792   -1.3198    1.9965 H         1 <1>         0.0924
     27 H8          2.6976    0.4026    1.6889 H         1 <1>         0.0476
     28 H9          1.4288   -0.7837   -0.0532 H         1 <1>         0.0406
     29 H10         2.8121   -1.8080   -0.4328 H         1 <1>         0.0582
     30 H11         7.4981    0.6990    1.4885 H         1 <1>         0.4135
@<TRIPOS>BOND
     1    1    2 ar
     2    1    6 ar
     3    2    7 ar
     4    3    4 ar
     5    3    7 ar
     6    4    5 1
     7    4    6 ar
     8    5    8 2
     9    5   12 1
    10    6   14 1
    11    7   19 1
    12    8    9 1
    13    8   14 1
    14    9   15 1
    15    9   17 2
    16   10   13 1
    17   10   16 1
    18   10   18 2
    19   11   19 1
    20   12   13 1
    21    1   20 1
    22    2   21 1
    23    3   22 1
    24   11   23 1
    25   11   24 1
    26   11   25 1
    27   12   26 1
    28   12   27 1
    29   13   28 1
    30   13   29 1
    31   14   30 1
