@<TRIPOS>MOLECULE
AG-777/36178014
   27    28     0
SMALL
USER_CHARGE


@<TRIPOS>ATOM
      1 C1          6.3778   -3.9907    0.9529 C.ar      1 <1>        -0.0989
      2 C2          7.6702   -3.4919    0.8033 C.ar      1 <1>        -0.0951
      3 C3          5.3136   -3.1391    1.2709 C.ar      1 <1>        -0.0927
      4 C4          7.9405   -2.1300    0.9658 C.ar      1 <1>        -0.0868
      5 C5          5.5580    0.4715    1.7853 C.2       1 <1>        -0.0667
      6 C6          5.5618   -1.7624    1.4397 C.ar      1 <1>        -0.0849
      7 C7          4.7469   -0.6395    1.7557 C.2       1 <1>        -0.0893
      8 C8          6.8669   -1.2906    1.2837 C.ar      1 <1>        -0.0716
      9 C9          2.8442    1.4904    0.7052 C.2       1 <1>         0.0022
     10 C10         2.2570    0.8071   -0.4839 C.3       1 <1>         0.0046
     11 C11         3.2919   -0.6522    2.0102 C.3       1 <1>        -0.0160
     12 C12         2.6773    0.7588    2.0197 C.3       1 <1>         0.0116
     13 N1          6.8348    0.0688    1.4991 N.pl3     1 <1>        -0.3680
     14 O1          3.4146    2.5656    0.5735 O.2       1 <1>        -0.5431
     15 H1          6.1924   -5.0532    0.8209 H         1 <1>         0.1101
     16 H2          8.4820   -4.1711    0.5563 H         1 <1>         0.1192
     17 H3          4.3115   -3.5433    1.3831 H         1 <1>         0.1241
     18 H4          8.9472   -1.7427    0.8503 H         1 <1>         0.1239
     19 H5          5.3419    1.5125    1.9826 H         1 <1>         0.1786
     20 H6          1.2099    1.0972   -0.6633 H         1 <1>         0.0905
     21 H7          2.7936    1.0466   -1.4153 H         1 <1>         0.0899
     22 H8          2.2517   -0.2921   -0.4212 H         1 <1>         0.0958
     23 H9          2.7637   -1.2684    1.2558 H         1 <1>         0.0790
     24 H10         3.0626   -1.1501    2.9733 H         1 <1>         0.0785
     25 H11         3.1482    1.3610    2.8059 H         1 <1>         0.1024
     26 H12         1.6045    0.6931    2.2372 H         1 <1>         0.1078
     27 H13         7.6381    0.6804    1.4525 H         1 <1>         0.2950
@<TRIPOS>BOND
     1    1    2 ar
     2    1    3 ar
     3    2    4 ar
     4    3    6 ar
     5    4    8 ar
     6    5    7 2
     7    5   13 1
     8    6    7 1
     9    6    8 ar
    10    7   11 1
    11    8   13 1
    12    9   10 1
    13    9   12 1
    14    9   14 2
    15   11   12 1
    16    1   15 1
    17    2   16 1
    18    3   17 1
    19    4   18 1
    20    5   19 1
    21   10   20 1
    22   10   21 1
    23   10   22 1
    24   11   23 1
    25   11   24 1
    26   12   25 1
    27   12   26 1
    28   13   27 1
