@<TRIPOS>MOLECULE
AP-124/43383562
   27    28     0
SMALL
USER_CHARGE


@<TRIPOS>ATOM
      1 C1          7.5815   -3.6180    0.8707 C.ar      1 <1>        -0.1533
      2 C2          6.2689   -3.9878    0.5846 C.ar      1 <1>        -0.1102
      3 C3          7.8759   -2.3377    1.3536 C.ar      1 <1>        -0.0784
      4 C4          5.2110   -3.0935    0.7714 C.ar      1 <1>        -0.1210
      5 C5          6.7579   -0.0746    2.0118 C.2       1 <1>        -0.2239
      6 C6          6.8258   -1.4188    1.5498 C.ar      1 <1>        -0.1099
      7 C7          5.5202   -1.8171    1.2547 C.ar      1 <1>         0.0989
      8 C8          5.4371    0.3100    1.9884 C.2       1 <1>         0.0896
      9 C9          3.3475    0.7094   -0.7648 C.2       1 <1>         0.4963
     10 C10         4.8208    1.5991    2.3647 C.3       1 <1>        -0.0972
     11 C11         2.8529   -0.5776   -0.0981 C.3       1 <1>        -0.1974
     12 C12         3.2594   -0.7437    1.3613 C.3       1 <1>         0.1274
     13 N1          4.6982   -0.7477    1.5306 N.pl3     1 <1>        -0.4714
     14 O1          4.6077    0.8050   -0.8291 O.co2     1 <1>        -0.5000
     15 O2          2.4638    1.5137   -1.1689 O.co2     1 <1>        -0.5000
     16 H1          8.3872   -4.3313    0.7178 H         1 <1>         0.1159
     17 H2          6.0627   -4.9874    0.2102 H         1 <1>         0.1201
     18 H3          8.9035   -2.0618    1.5720 H         1 <1>         0.1156
     19 H4          4.1910   -3.3877    0.5475 H         1 <1>         0.1191
     20 H5          7.5885    0.5428    2.3265 H         1 <1>         0.1409
     21 H6          4.7707    2.2810    1.5006 H         1 <1>         0.0754
     22 H7          3.7958    1.4691    2.7503 H         1 <1>         0.0808
     23 H8          5.3857    2.1087    3.1632 H         1 <1>         0.0733
     24 H9          3.2302   -1.4241   -0.6860 H         1 <1>         0.0630
     25 H10         1.7585   -0.5968   -0.1818 H         1 <1>         0.0632
     26 H11         2.8733   -1.6832    1.7752 H         1 <1>         0.0870
     27 H12         2.8541    0.0667    1.9795 H         1 <1>         0.0893
@<TRIPOS>BOND
     1    1    2 ar
     2    1    3 ar
     3    2    4 ar
     4    3    6 ar
     5    4    7 ar
     6    5    6 1
     7    5    8 2
     8    6    7 ar
     9    7   13 1
    10    8   10 1
    11    8   13 1
    12    9   11 1
    13    9   14 1
    14    9   15 2
    15   11   12 1
    16   12   13 1
    17    1   16 1
    18    2   17 1
    19    3   18 1
    20    4   19 1
    21    5   20 1
    22   10   21 1
    23   10   22 1
    24   10   23 1
    25   11   24 1
    26   11   25 1
    27   12   26 1
    28   12   27 1
