@<TRIPOS>MOLECULE
AK-968/40721996
   38    39     0
SMALL
USER_CHARGE


@<TRIPOS>ATOM
      1 C1          6.7587   -3.9985    1.1016 C.ar      1 <1>        -0.0964
      2 C2          7.9703   -3.3319    0.9301 C.ar      1 <1>        -0.0885
      3 C3          5.5789   -3.2875    1.3501 C.ar      1 <1>        -0.0988
      4 C4          8.0424   -1.9377    1.0008 C.ar      1 <1>        -0.0801
      5 C5          5.3009    0.3474    1.6166 C.2       1 <1>        -0.0619
      6 C6          5.6269   -1.8813    1.4259 C.ar      1 <1>        -0.0902
      7 C7          4.6556   -0.8671    1.6562 C.2       1 <1>        -0.0910
      8 C8          6.8552   -1.2402    1.2500 C.ar      1 <1>        -0.0696
      9 C9          2.3497    0.2178   -0.1426 C.2       1 <1>         0.0256
     10 C10         3.9421    3.6052   -1.5515 C.3       1 <1>        -0.0606
     11 C11         3.1857   -1.0734    1.9017 C.3       1 <1>        -0.0082
     12 C12         3.4523    2.4154   -2.3648 C.3       1 <1>        -0.0461
     13 C13         2.0812    1.9217   -1.9190 C.3       1 <1>        -0.0069
     14 C14         2.2682    0.0354    1.3649 C.3       1 <1>         0.0333
     15 N1          6.6271    0.1121    1.3707 N.pl3     1 <1>        -0.3630
     16 N2          2.0661    1.5176   -0.5336 N.am      1 <1>        -0.3486
     17 N3          0.8592   -0.2188    1.7821 N.4       1 <1>         0.4684
     18 O1          2.6349   -0.6993   -0.9098 O.2       1 <1>        -0.5383
     19 H1          6.7279   -5.0830    1.0416 H         1 <1>         0.1200
     20 H2          8.8745   -3.9039    0.7381 H         1 <1>         0.1307
     21 H3          4.6421   -3.8217    1.4806 H         1 <1>         0.1108
     22 H4          8.9862   -1.4199    0.8683 H         1 <1>         0.1366
     23 H5          4.9363    1.3578    1.7396 H         1 <1>         0.1936
     24 H6          3.2467    4.4469   -1.6300 H         1 <1>         0.0393
     25 H7          4.0233    3.3311   -0.4947 H         1 <1>         0.0363
     26 H8          4.9281    3.9398   -1.8879 H         1 <1>         0.0361
     27 H9          3.0228   -1.1835    2.9826 H         1 <1>         0.1038
     28 H10         2.8778   -2.0345    1.4671 H         1 <1>         0.0950
     29 H11         4.1746    1.5978   -2.2591 H         1 <1>         0.0532
     30 H12         3.4267    2.6906   -3.4258 H         1 <1>         0.0534
     31 H13         1.3418    2.7215   -2.0270 H         1 <1>         0.1015
     32 H14         1.7510    1.0690   -2.5206 H         1 <1>         0.1011
     33 H15         2.5364    0.9860    1.8414 H         1 <1>         0.1468
     34 H16         7.3368    0.8271    1.2897 H         1 <1>         0.3077
     35 H17         1.8407    2.2071    0.1773 H         1 <1>         0.2899
     36 H18         0.2516   -0.3025    0.9635 H         1 <1>         0.1544
     37 H19         0.5133    0.5487    2.3633 H         1 <1>         0.1557
     38 H20         0.7952   -1.0858    2.3212 H         1 <1>         0.1549
@<TRIPOS>BOND
     1    1    2 ar
     2    1    3 ar
     3    2    4 ar
     4    3    6 ar
     5    4    8 ar
     6    5    7 2
     7    5   15 1
     8    6    7 1
     9    6    8 ar
    10    7   11 1
    11    8   15 1
    12    9   14 1
    13    9   16 am
    14    9   18 2
    15   10   12 1
    16   11   14 1
    17   12   13 1
    18   13   16 1
    19   14   17 1
    20    1   19 1
    21    2   20 1
    22    3   21 1
    23    4   22 1
    24    5   23 1
    25   10   24 1
    26   10   25 1
    27   10   26 1
    28   11   27 1
    29   11   28 1
    30   12   29 1
    31   12   30 1
    32   13   31 1
    33   13   32 1
    34   14   33 1
    35   15   34 1
    36   16   35 1
    37   17   36 1
    38   17   37 1
    39   17   38 1
