@<TRIPOS>MOLECULE
AH-357/02166042
   29    30     0
SMALL
USER_CHARGE


@<TRIPOS>ATOM
      1 C1          6.3872   -4.0428    0.9500 C.ar      1 <1>        -0.0992
      2 C2          7.6882   -3.5658    0.8042 C.ar      1 <1>        -0.0955
      3 C3          5.3377   -3.1746    1.2721 C.ar      1 <1>        -0.0927
      4 C4          7.9822   -2.2099    0.9749 C.ar      1 <1>        -0.0872
      5 C5          5.6449    0.4281    1.8078 C.2       1 <1>        -0.0680
      6 C6          5.6099   -1.8034    1.4491 C.ar      1 <1>        -0.0857
      7 C7          4.8145   -0.6683    1.7712 C.2       1 <1>        -0.0942
      8 C8          6.9232   -1.3537    1.2968 C.ar      1 <1>        -0.0719
      9 C9          2.4715    1.7968    0.3901 C.2       1 <1>         0.0200
     10 C10         3.3593   -0.6570    2.0245 C.3       1 <1>        -0.0311
     11 C11         2.7842    0.4438   -0.2211 C.3       1 <1>         0.0156
     12 C12         2.5288   -0.7284    0.7250 C.3       1 <1>        -0.0272
     13 N1          6.9147    0.0048    1.5201 N.pl3     1 <1>        -0.3684
     14 N2          1.1519    1.9061    0.7738 N.am      1 <1>        -0.3275
     15 O1          3.3017    2.6872    0.5473 O.2       1 <1>        -0.5506
     16 H1          6.1833   -5.1012    0.8118 H         1 <1>         0.1094
     17 H2          8.4882   -4.2579    0.5538 H         1 <1>         0.1184
     18 H3          4.3287   -3.5619    1.3814 H         1 <1>         0.1243
     19 H4          8.9956   -1.8397    0.8622 H         1 <1>         0.1233
     20 H5          5.4469    1.4716    2.0109 H         1 <1>         0.1775
     21 H6          3.0736   -1.4944    2.6897 H         1 <1>         0.0686
     22 H7          3.0637    0.2524    2.5843 H         1 <1>         0.0684
     23 H8          2.1411    0.3351   -1.1031 H         1 <1>         0.1153
     24 H9          3.8240    0.4335   -0.5681 H         1 <1>         0.1154
     25 H10         2.7810   -1.6589    0.2003 H         1 <1>         0.0635
     26 H11         1.4614   -0.7906    0.9721 H         1 <1>         0.0643
     27 H12         7.7286    0.6025    1.4776 H         1 <1>         0.2944
     28 H13         0.5224    1.1229    0.6295 H         1 <1>         0.2605
     29 H14         0.8009    2.7581    1.1986 H         1 <1>         0.2600
@<TRIPOS>BOND
     1    1    2 ar
     2    1    3 ar
     3    2    4 ar
     4    3    6 ar
     5    4    8 ar
     6    5    7 2
     7    5   13 1
     8    6    7 1
     9    6    8 ar
    10    7   10 1
    11    8   13 1
    12    9   11 1
    13    9   14 am
    14    9   15 2
    15   10   12 1
    16   11   12 1
    17    1   16 1
    18    2   17 1
    19    3   18 1
    20    4   19 1
    21    5   20 1
    22   10   21 1
    23   10   22 1
    24   11   23 1
    25   11   24 1
    26   12   25 1
    27   12   26 1
    28   13   27 1
    29   14   28 1
    30   14   29 1
