@<TRIPOS>MOLECULE
ZINC04294564
   27    28     0
SMALL
USER_CHARGE


@<TRIPOS>ATOM
      1 C1          6.4059   -3.9932    0.8558 C.ar      1 <1>        -0.1558
      2 C2          7.7131   -3.5501    1.0471 C.ar      1 <1>        -0.1036
      3 C3          5.3310   -3.0985    0.9099 C.ar      1 <1>        -0.0628
      4 C4          7.9879   -2.2027    1.2980 C.ar      1 <1>        -0.1373
      5 C5          5.5822    0.4939    1.5362 C.2       1 <1>         0.0385
      6 C6          5.5835   -1.7353    1.1614 C.ar      1 <1>        -0.1026
      7 C7          4.7609   -0.5804    1.2820 C.2       1 <1>        -0.1397
      8 C8          6.9035   -1.3197    1.3494 C.ar      1 <1>         0.0940
      9 C9          2.7728    1.7894    0.0915 C.2       1 <1>         0.4606
     10 C10         2.5929   -1.4910    2.1561 C.3       1 <1>        -0.1392
     11 C11         2.6856    0.8909    1.3323 C.3       1 <1>        -0.1471
     12 C12         3.2897   -0.5316    1.1598 C.3       1 <1>        -0.0029
     13 N1          6.8726    0.0381    1.5748 N.pl3     1 <1>        -0.5992
     14 O1          2.1379    1.3561   -0.9126 O.co2     1 <1>        -0.5000
     15 O2          3.4714    2.8338    0.2079 O.co2     1 <1>        -0.5000
     16 H1          6.2174   -5.0457    0.6615 H         1 <1>         0.1187
     17 H2          8.5329   -4.2623    1.0009 H         1 <1>         0.1197
     18 H3          4.3178   -3.4595    0.7576 H         1 <1>         0.1230
     19 H4          9.0058   -1.8588    1.4480 H         1 <1>         0.1143
     20 H5          5.3652    1.5417    1.6916 H         1 <1>         0.1675
     21 H6          2.8319   -1.2486    3.1972 H         1 <1>         0.0373
     22 H7          2.8888   -2.5311    1.9798 H         1 <1>         0.0844
     23 H8          1.5050   -1.4295    2.0401 H         1 <1>         0.0386
     24 H9          1.6190    0.8282    1.5857 H         1 <1>         0.0616
     25 H10         3.1719    1.4019    2.1731 H         1 <1>         0.0607
     26 H11         2.9685   -0.8822    0.1538 H         1 <1>         0.0756
     27 H12         7.6853    0.6143    1.7442 H         1 <1>         0.4112
@<TRIPOS>BOND
     1    1    2 ar
     2    1    3 ar
     3    2    4 ar
     4    3    6 ar
     5    4    8 ar
     6    5    7 2
     7    5   13 1
     8    6    7 1
     9    6    8 ar
    10    7   12 1
    11    8   13 1
    12    9   11 1
    13    9   14 1
    14    9   15 2
    15   10   12 1
    16   11   12 1
    17    1   16 1
    18    2   17 1
    19    3   18 1
    20    4   19 1
    21    5   20 1
    22   10   21 1
    23   10   22 1
    24   10   23 1
    25   11   24 1
    26   11   25 1
    27   12   26 1
    28   13   27 1
