@<TRIPOS>MOLECULE
*****
 15 16 0 0 0
SMALL
GASTEIGER

@<TRIPOS>ATOM
      1 N           0.9693   -0.0386    0.0870 N.3     1  TRP1       -0.1205
      2 CA          2.4393   -0.0386    0.0870 C.3     1  TRP1        0.1987
      3 C           2.9333    1.3508   -0.0601 C.2     1  TRP1        0.3822
      4 CB          2.9460   -0.6205    1.3966 C.3     1  TRP1        0.0586
      5 O           3.6391    1.8470    0.8132 O.co2   1  TRP1       -0.2440
      6 OXT         2.6075    2.0703   -1.1537 O.co2   1  TRP1       -0.2440
      7 CG          4.4280   -0.6205    1.3966 C.ar    1  TRP1        0.0004
      8 CD2         5.2884   -1.8026    1.3960 C.ar    1  TRP1        0.0152
      9 CE2         6.6123   -1.3290    1.3956 C.ar    1  TRP1        0.0810
     10 CD1         5.1936    0.4312    1.3969 C.ar    1  TRP1        0.0946
     11 NE1         6.5385    0.0490    1.3965 N.ar    1  TRP1       -0.2442
     12 CZ2         7.6684   -2.2330    1.3951 C.ar    1  TRP1        0.0191
     13 CH2         7.4154   -3.5864    1.3999 C.ar    1  TRP1        0.0015
     14 CZ3         6.1039   -4.0620    1.3944 C.ar    1  TRP1        0.0001
     15 CE3         5.0425   -3.1789    1.3959 C.ar    1  TRP1        0.0012
@<TRIPOS>BOND
     1     1     2    1
     2     2     3    1
     3     2     4    1
     4     3     5   ar
     5     3     6   ar
     6     4     7    1
     7     7     8   ar
     8     7    10   ar
     9     8     9   ar
    10    15     8   ar
    11     9    11   ar
    12     9    12   ar
    13    11    10   ar
    14    12    13   ar
    15    13    14   ar
    16    14    15   ar
