@<TRIPOS>MOLECULE
AF-399/13479018
   29    31     0
SMALL
USER_CHARGE


@<TRIPOS>ATOM
      1 C1          6.8134   -4.0118    1.0928 C.ar      1 <1>        -0.0976
      2 C2          7.9948   -3.2925    0.9275 C.ar      1 <1>        -0.0948
      3 C3          5.6037   -3.3542    1.3436 C.ar      1 <1>        -0.0916
      4 C4          8.0062   -1.8971    1.0076 C.ar      1 <1>        -0.0861
      5 C5          5.5882   -1.9472    1.4280 C.ar      1 <1>        -0.0879
      6 C6          4.5746   -0.9752    1.6622 C.2       1 <1>        -0.1011
      7 C7          6.7903   -1.2513    1.2595 C.ar      1 <1>        -0.0742
      8 C8          5.1795    0.2641    1.6360 C.2       1 <1>        -0.0901
      9 C9          3.1158   -1.1503    1.9234 C.3       1 <1>        -0.0371
     10 C10         4.5088    1.5785    1.8068 C.3       1 <1>        -0.0286
     11 C11         3.0969    1.3691    2.3866 C.3       1 <1>        -0.0460
     12 C12         2.3336    0.1777    1.7534 C.3       1 <1>        -0.0508
     13 C13         2.0003    0.4431    0.2813 C.3       1 <1>        -0.0627
     14 N1          6.5112    0.0924    1.3898 N.pl3     1 <1>        -0.3768
     15 H1          6.8299   -5.0965    1.0266 H         1 <1>         0.1085
     16 H2          8.9232   -3.8234    0.7324 H         1 <1>         0.1164
     17 H3          4.6906   -3.9288    1.4713 H         1 <1>         0.1287
     18 H4          8.9272   -1.3388    0.8777 H         1 <1>         0.1295
     19 H5          2.7283   -1.9060    1.2244 H         1 <1>         0.0695
     20 H6          2.9581   -1.5413    2.9386 H         1 <1>         0.0695
     21 H7          5.0985    2.1946    2.4956 H         1 <1>         0.0839
     22 H8          4.4428    2.1136    0.8535 H         1 <1>         0.0822
     23 H9          3.1767    1.2331    3.4782 H         1 <1>         0.0553
     24 H10         2.5064    2.2913    2.2392 H         1 <1>         0.0569
     25 H11         1.3726    0.0766    2.2990 H         1 <1>         0.0514
     26 H12         2.9197    0.5490   -0.2922 H         1 <1>         0.0344
     27 H13         1.4180    1.3590    0.1940 H         1 <1>         0.0341
     28 H14         1.4221   -0.3868   -0.1218 H         1 <1>         0.0341
     29 H15         7.1934    0.8350    1.3158 H         1 <1>         0.2709
@<TRIPOS>BOND
     1    1    2 ar
     2    1    3 ar
     3    2    4 ar
     4    3    5 ar
     5    4    7 ar
     6    5    6 1
     7    5    7 ar
     8    6    8 2
     9    6    9 1
    10    7   14 1
    11    8   10 1
    12    8   14 1
    13    9   12 1
    14   10   11 1
    15   11   12 1
    16   12   13 1
    17    1   15 1
    18    2   16 1
    19    3   17 1
    20    4   18 1
    21    9   19 1
    22    9   20 1
    23   10   21 1
    24   10   22 1
    25   11   23 1
    26   11   24 1
    27   12   25 1
    28   13   26 1
    29   13   27 1
    30   13   28 1
    31   14   29 1
