@<TRIPOS>MOLECULE
AG-690/36467004
   26    27     0
SMALL
USER_CHARGE


@<TRIPOS>ATOM
      1 C1          6.6573   -3.9685    1.1211 C.ar      1 <1>        -0.0877
      2 C2          7.8835   -3.3302    0.9453 C.ar      1 <1>        -0.0879
      3 C3          5.4944   -3.2299    1.3683 C.ar      1 <1>        -0.0704
      4 C4          7.9872   -1.9378    1.0105 C.ar      1 <1>        -0.0759
      5 C5          5.2992    0.4114    1.6206 C.2       1 <1>        -0.0038
      6 C6          5.5743   -1.8249    1.4385 C.ar      1 <1>        -0.0323
      7 C7          4.6266   -0.7881    1.6659 C.2       1 <1>         0.0255
      8 C8          6.8164   -1.2125    1.2583 C.ar      1 <1>        -0.0442
      9 C9          3.2165   -0.9132    1.9036 C.2       1 <1>         0.1065
     10 C10         2.2085   -0.2575    0.9561 C.2       1 <1>         0.1451
     11 C11         0.9161   -0.7055   -0.9458 C.3       1 <1>         0.0439
     12 N1          2.7159   -1.5912    2.9271 N.2       1 <1>        -0.2722
     13 N2          6.6194    0.1451    1.3741 N.pl3     1 <1>        -0.3407
     14 O1          1.8089    0.8761    1.1351 O.2       1 <1>        -0.4738
     15 O2          1.3192   -1.5918    2.9696 O.3       1 <1>        -0.3539
     16 O3          1.8845   -1.1553    0.0055 O.3       1 <1>        -0.3971
     17 H1          6.6021   -5.0526    1.0652 H         1 <1>         0.1190
     18 H2          8.7744   -3.9233    0.7547 H         1 <1>         0.1242
     19 H3          4.5461   -3.7422    1.5027 H         1 <1>         0.1412
     20 H4          8.9425   -1.4425    0.8737 H         1 <1>         0.1335
     21 H5          4.9601    1.4311    1.7411 H         1 <1>         0.2373
     22 H6          0.7207   -1.4992   -1.6711 H         1 <1>         0.1439
     23 H7          1.2919    0.1848   -1.4564 H         1 <1>         0.1605
     24 H8         -0.0098   -0.4587   -0.4210 H         1 <1>         0.1439
     25 H9          7.3447    0.8438    1.2895 H         1 <1>         0.2962
     26 H10         1.1000   -1.0604    2.1856 H         1 <1>         0.4193
@<TRIPOS>BOND
     1    1    2 ar
     2    1    3 ar
     3    2    4 ar
     4    3    6 ar
     5    4    8 ar
     6    5    7 2
     7    5   13 1
     8    6    7 1
     9    6    8 ar
    10    7    9 1
    11    8   13 1
    12    9   10 1
    13    9   12 2
    14   10   14 2
    15   10   16 1
    16   11   16 1
    17   12   15 1
    18    1   17 1
    19    2   18 1
    20    3   19 1
    21    4   20 1
    22    5   21 1
    23   11   22 1
    24   11   23 1
    25   11   24 1
    26   13   25 1
    27   15   26 1
