@<TRIPOS>MOLECULE
AE-848/00990055
   27    27     0
SMALL
USER_CHARGE


@<TRIPOS>ATOM
      1 C1          2.8466    1.6749    0.0070 C.2       1 <1>         0.4672
      2 C2          7.4498   -3.8703    0.6126 C.3       1 <1>        -0.1199
      3 C3          5.9613   -3.9643    0.9342 C.3       1 <1>        -0.1142
      4 C4          7.8679   -2.4440    0.2681 C.3       1 <1>        -0.1171
      5 C5          5.5580   -2.9810    2.0340 C.3       1 <1>        -0.0967
      6 C6          7.4677   -1.4569    1.3659 C.3       1 <1>        -0.1162
      7 C7          5.9847   -1.5358    1.7486 C.3       1 <1>        -0.0479
      8 C8          2.4380    0.3584    0.6793 C.3       1 <1>        -0.1430
      9 C9          3.5109   -0.3742    1.4737 C.3       1 <1>        -0.0446
     10 O1          3.6703    2.3933    0.6374 O.co2     1 <1>        -0.5000
     11 O2          2.3090    1.8714   -1.1208 O.co2     1 <1>        -0.5000
     12 S1          4.9374   -0.7872    0.4458 S.3       1 <1>        -0.2982
     13 H1          8.0352   -4.2299    1.4675 H         1 <1>         0.0601
     14 H2          7.6822   -4.5317   -0.2322 H         1 <1>         0.0623
     15 H3          5.3754   -3.7649    0.0299 H         1 <1>         0.0622
     16 H4          5.7203   -4.9859    1.2528 H         1 <1>         0.0643
     17 H5          8.9546   -2.4068    0.1238 H         1 <1>         0.0614
     18 H6          7.4095   -2.1442   -0.6809 H         1 <1>         0.0637
     19 H7          4.4592   -3.0363    2.1672 H         1 <1>         0.0693
     20 H8          5.9934   -3.3247    2.9921 H         1 <1>         0.0696
     21 H9          8.1016   -1.6414    2.2549 H         1 <1>         0.0727
     22 H10         7.7203   -0.4331    1.0248 H         1 <1>         0.0669
     23 H11         5.8298   -0.9363    2.6685 H         1 <1>         0.0822
     24 H12         1.5570    0.5343    1.3103 H         1 <1>         0.0732
     25 H13         2.1068   -0.3010   -0.1334 H         1 <1>         0.0730
     26 H14         3.1196   -1.2977    1.9117 H         1 <1>         0.0798
     27 H15         3.8607    0.2606    2.2942 H         1 <1>         0.0782
@<TRIPOS>BOND
     1    1    8 1
     2    1   10 1
     3    1   11 2
     4    2    3 1
     5    2    4 1
     6    3    5 1
     7    4    6 1
     8    5    7 1
     9    6    7 1
    10    7   12 1
    11    8    9 1
    12    9   12 1
    13    2   13 1
    14    2   14 1
    15    3   15 1
    16    3   16 1
    17    4   17 1
    18    4   18 1
    19    5   19 1
    20    5   20 1
    21    6   21 1
    22    6   22 1
    23    7   23 1
    24    8   24 1
    25    8   25 1
    26    9   26 1
    27    9   27 1
