# Name:		AF-399/09976012
# Created and modified by SHAFTS on Thu Mar 19 22:43:37 2015

# 

@<TRIPOS>MOLECULE
AF-399/09976012
   34    36     0
SMALL
USER_CHARGE


@<TRIPOS>ATOM
      1 C1          6.8219   -3.9965    1.1069 C.ar      1 <1>        -0.1314
      2 C2          8.0057   -3.2803    0.9406 C.ar      1 <1>        -0.0897
      3 C3          5.6135   -3.3353    1.3549 C.ar      1 <1>        -0.0729
      4 C4          8.0205   -1.8846    1.0165 C.ar      1 <1>        -0.1297
      5 C5          5.1864    0.2841    1.6336 C.2       1 <1>         0.1010
      6 C6          5.6038   -1.9286    1.4359 C.ar      1 <1>        -0.0962
      7 C7          4.5913   -0.9559    1.6673 C.2       1 <1>        -0.2376
      8 C8          6.8050   -1.2372    1.2651 C.ar      1 <1>         0.0934
      9 C9          2.7518    1.7799    0.1087 C.2       1 <1>         0.4607
     10 C10         0.0442   -0.1351    0.1679 C.3       1 <1>        -0.1408
     11 C11         0.5116    1.0969    0.9228 C.3       1 <1>        -0.1166
     12 C12         0.8911   -1.2363    0.7643 C.3       1 <1>        -0.0056
     13 C13         2.0154    0.9056    1.1019 C.3       1 <1>        -0.0232
     14 C14         3.1346   -1.2222    1.9079 C.3       1 <1>         0.0926
     15 N1          6.5217    0.1042    1.3902 N.pl3     1 <1>        -0.5847
     16 N2          2.2464   -0.5839    0.8890 N.4       1 <1>        -0.3797
     17 O1          2.4769    1.5667   -1.1046 O.co2     1 <1>        -0.5000
     18 O2          3.5489    2.6125    0.6251 O.co2     1 <1>        -0.5000
     19 H1          6.8356   -5.0813    1.0429 H         1 <1>         0.1293
     20 H2          8.9328   -3.8143    0.7488 H         1 <1>         0.1300
     21 H3          4.6991   -3.9080    1.4813 H         1 <1>         0.1373
     22 H4          8.9426   -1.3281    0.8881 H         1 <1>         0.1233
     23 H5          4.7805    1.2785    1.7593 H         1 <1>         0.1768
     24 H6         -1.0263   -0.3199    0.2920 H         1 <1>         0.1034
     25 H7          0.2522   -0.0277   -0.9034 H         1 <1>         0.0928
     26 H8          0.2426    2.0182    0.3957 H         1 <1>         0.0912
     27 H9          0.0278    1.1285    1.9072 H         1 <1>         0.1127
     28 H10         0.5523   -1.5137    1.7683 H         1 <1>         0.1170
     29 H11         0.9849   -2.1183    0.1254 H         1 <1>         0.1195
     30 H12         2.3241    1.1697    2.1193 H         1 <1>         0.1380
     31 H13         2.9191   -2.2958    1.8845 H         1 <1>         0.1232
     32 H14         2.8185   -0.8398    2.8845 H         1 <1>         0.1295
     33 H15         7.2016    0.8481    1.3134 H         1 <1>         0.4225
     34 H16         2.7100   -0.6943   -0.0235 H         1 <1>         0.4318
@<TRIPOS>BOND
     1    1    2 ar
     2    1    3 ar
     3    2    4 ar
     4    3    6 ar
     5    4    8 ar
     6    5    7 2
     7    5   15 1
     8    6    7 1
     9    6    8 ar
    10    7   14 1
    11    8   15 1
    12    9   13 1
    13    9   17 1
    14    9   18 2
    15   10   11 1
    16   10   12 1
    17   11   13 1
    18   12   16 1
    19   13   16 1
    20   14   16 1
    21    1   19 1
    22    2   20 1
    23    3   21 1
    24    4   22 1
    25    5   23 1
    26   10   24 1
    27   10   25 1
    28   11   26 1
    29   11   27 1
    30   12   28 1
    31   12   29 1
    32   13   30 1
    33   14   31 1
    34   14   32 1
    35   15   33 1
    36   16   34 1
@<TRIPOS>Similarity
1.9970
@<TRIPOS>ShapeSim
0.9998
@<TRIPOS>PharmSim
0.9972
# END
# Name:		ZINC04294564
# Created and modified by SHAFTS on Thu Mar 19 22:43:37 2015

# 

@<TRIPOS>MOLECULE
ZINC04294564
   27    28     0
SMALL
USER_CHARGE


@<TRIPOS>ATOM
      1 C1          6.4059   -3.9932    0.8558 C.ar      1 <1>        -0.1558
      2 C2          7.7131   -3.5501    1.0471 C.ar      1 <1>        -0.1036
      3 C3          5.3310   -3.0985    0.9099 C.ar      1 <1>        -0.0628
      4 C4          7.9879   -2.2027    1.2980 C.ar      1 <1>        -0.1373
      5 C5          5.5822    0.4939    1.5362 C.2       1 <1>         0.0385
      6 C6          5.5835   -1.7353    1.1614 C.ar      1 <1>        -0.1026
      7 C7          4.7609   -0.5804    1.2820 C.2       1 <1>        -0.1397
      8 C8          6.9035   -1.3197    1.3494 C.ar      1 <1>         0.0940
      9 C9          2.7728    1.7894    0.0915 C.2       1 <1>         0.4606
     10 C10         2.5929   -1.4910    2.1561 C.3       1 <1>        -0.1392
     11 C11         2.6856    0.8909    1.3323 C.3       1 <1>        -0.1471
     12 C12         3.2897   -0.5316    1.1598 C.3       1 <1>        -0.0029
     13 N1          6.8726    0.0381    1.5748 N.pl3     1 <1>        -0.5992
     14 O1          2.1379    1.3561   -0.9126 O.co2     1 <1>        -0.5000
     15 O2          3.4714    2.8338    0.2079 O.co2     1 <1>        -0.5000
     16 H1          6.2174   -5.0457    0.6615 H         1 <1>         0.1187
     17 H2          8.5329   -4.2623    1.0009 H         1 <1>         0.1197
     18 H3          4.3178   -3.4595    0.7576 H         1 <1>         0.1230
     19 H4          9.0058   -1.8588    1.4480 H         1 <1>         0.1143
     20 H5          5.3652    1.5417    1.6916 H         1 <1>         0.1675
     21 H6          2.8319   -1.2486    3.1972 H         1 <1>         0.0373
     22 H7          2.8888   -2.5311    1.9798 H         1 <1>         0.0844
     23 H8          1.5050   -1.4295    2.0400 H         1 <1>         0.0386
     24 H9          1.6190    0.8282    1.5857 H         1 <1>         0.0616
     25 H10         3.1719    1.4019    2.1731 H         1 <1>         0.0607
     26 H11         2.9685   -0.8822    0.1538 H         1 <1>         0.0756
     27 H12         7.6853    0.6143    1.7442 H         1 <1>         0.4112
@<TRIPOS>BOND
     1    1    2 ar
     2    1    3 ar
     3    2    4 ar
     4    3    6 ar
     5    4    8 ar
     6    5    7 2
     7    5   13 1
     8    6    7 1
     9    6    8 ar
    10    7   12 1
    11    8   13 1
    12    9   11 1
    13    9   14 1
    14    9   15 2
    15   10   12 1
    16   11   12 1
    17    1   16 1
    18    2   17 1
    19    3   18 1
    20    4   19 1
    21    5   20 1
    22   10   21 1
    23   10   22 1
    24   10   23 1
    25   11   24 1
    26   11   25 1
    27   12   26 1
    28   13   27 1
@<TRIPOS>Similarity
1.6536
@<TRIPOS>ShapeSim
0.8765
@<TRIPOS>PharmSim
0.7771
# END
# Name:		AG-777/36178014
# Created and modified by SHAFTS on Thu Mar 19 22:43:37 2015

# 

@<TRIPOS>MOLECULE
AG-777/36178014
   27    28     0
SMALL
USER_CHARGE


@<TRIPOS>ATOM
      1 C1          6.3778   -3.9907    0.9529 C.ar      1 <1>        -0.0966
      2 C2          7.6702   -3.4919    0.8033 C.ar      1 <1>        -0.0937
      3 C3          5.3136   -3.1391    1.2709 C.ar      1 <1>        -0.0919
      4 C4          7.9405   -2.1300    0.9658 C.ar      1 <1>        -0.0862
      5 C5          5.5580    0.4715    1.7853 C.2       1 <1>        -0.0636
      6 C6          5.5618   -1.7624    1.4397 C.ar      1 <1>        -0.0839
      7 C7          4.7469   -0.6395    1.7557 C.2       1 <1>        -0.0850
      8 C8          6.8669   -1.2906    1.2837 C.ar      1 <1>        -0.0718
      9 C9          2.8442    1.4904    0.7052 C.2       1 <1>        -0.0264
     10 C10         2.2570    0.8071   -0.4839 C.3       1 <1>         0.0034
     11 C11         3.2919   -0.6522    2.0102 C.3       1 <1>        -0.0129
     12 C12         2.6773    0.7588    2.0197 C.3       1 <1>         0.0091
     13 N1          6.8348    0.0688    1.4991 N.pl3     1 <1>        -0.3688
     14 O1          3.4146    2.5656    0.5735 O.2       1 <1>        -0.5843
     15 H1          6.1924   -5.0532    0.8209 H         1 <1>         0.1120
     16 H2          8.4820   -4.1711    0.5563 H         1 <1>         0.1199
     17 H3          4.3115   -3.5433    1.3831 H         1 <1>         0.1243
     18 H4          8.9472   -1.7427    0.8503 H         1 <1>         0.1266
     19 H5          5.3419    1.5125    1.9826 H         1 <1>         0.1750
     20 H6          1.2099    1.0972   -0.6633 H         1 <1>         0.1035
     21 H7          2.7936    1.0466   -1.4153 H         1 <1>         0.1031
     22 H8          2.2517   -0.2921   -0.4212 H         1 <1>         0.1073
     23 H9          2.7637   -1.2684    1.2558 H         1 <1>         0.0873
     24 H10         3.0626   -1.1501    2.9733 H         1 <1>         0.0869
     25 H11         3.1482    1.3610    2.8059 H         1 <1>         0.1148
     26 H12         1.6045    0.6931    2.2372 H         1 <1>         0.1188
     27 H13         7.6381    0.6804    1.4525 H         1 <1>         0.2734
@<TRIPOS>BOND
     1    1    2 ar
     2    1    3 ar
     3    2    4 ar
     4    3    6 ar
     5    4    8 ar
     6    5    7 2
     7    5   13 1
     8    6    7 1
     9    6    8 ar
    10    7   11 1
    11    8   13 1
    12    9   10 1
    13    9   12 1
    14    9   14 2
    15   11   12 1
    16    1   15 1
    17    2   16 1
    18    3   17 1
    19    4   18 1
    20    5   19 1
    21   10   20 1
    22   10   21 1
    23   10   22 1
    24   11   23 1
    25   11   24 1
    26   12   25 1
    27   12   26 1
    28   13   27 1
@<TRIPOS>Similarity
1.5772
@<TRIPOS>ShapeSim
0.8607
@<TRIPOS>PharmSim
0.7165
# END
# Name:		ZINC04294565
# Created and modified by SHAFTS on Thu Mar 19 22:43:37 2015

# 

@<TRIPOS>MOLECULE
ZINC04294565
   27    28     0
SMALL
USER_CHARGE


@<TRIPOS>ATOM
      1 C1          6.6301   -4.0841    1.4656 C.ar      1 <1>        -0.1558
      2 C2          7.8707   -3.5562    1.8173 C.ar      1 <1>        -0.1036
      3 C3          5.5558   -3.2428    1.1544 C.ar      1 <1>        -0.0627
      4 C4          8.0778   -2.1748    1.8693 C.ar      1 <1>        -0.1373
      5 C5          5.6434    0.4114    1.1611 C.2       1 <1>         0.0384
      6 C6          5.7405   -1.8466    1.2001 C.ar      1 <1>        -0.1026
      7 C7          4.8982   -0.7264    0.9537 C.2       1 <1>        -0.1397
      8 C8          6.9948   -1.3459    1.5557 C.ar      1 <1>         0.0941
      9 C9          2.7891    1.7256    0.2116 C.2       1 <1>         0.4606
     10 C10         3.3090   -0.8626   -0.9871 C.3       1 <1>        -0.1392
     11 C11         2.6378    0.4457    1.0442 C.3       1 <1>        -0.1471
     12 C12         3.4780   -0.7657    0.5495 C.3       1 <1>        -0.0029
     13 N1          6.9066    0.0277    1.5237 N.pl3     1 <1>        -0.5993
     14 O1          2.4071    1.6156   -0.9889 O.co2     1 <1>        -0.5000
     15 O2          3.2853    2.7217    0.8062 O.co2     1 <1>        -0.5000
     16 H1          6.4937   -5.1616    1.4317 H         1 <1>         0.1187
     17 H2          8.6914   -4.2280    2.0554 H         1 <1>         0.1197
     18 H3          4.5950   -3.6698    0.8811 H         1 <1>         0.1230
     19 H4          9.0436   -1.7647    2.1444 H         1 <1>         0.1143
     20 H5          5.3895    1.4596    1.0820 H         1 <1>         0.1675
     21 H6          3.7635   -0.0116   -1.5059 H         1 <1>         0.0387
     22 H7          2.2511   -0.8987   -1.2692 H         1 <1>         0.0844
     23 H8          3.7856   -1.7755   -1.3618 H         1 <1>         0.0373
     24 H9          1.5669    0.2020    1.0321 H         1 <1>         0.0617
     25 H10         2.8899    0.6716    2.0880 H         1 <1>         0.0606
     26 H11         2.9809   -1.6757    0.9532 H         1 <1>         0.0756
     27 H12         7.6652    0.6605    1.7371 H         1 <1>         0.4112
@<TRIPOS>BOND
     1    1    2 ar
     2    1    3 ar
     3    2    4 ar
     4    3    6 ar
     5    4    8 ar
     6    5    7 2
     7    5   13 1
     8    6    7 1
     9    6    8 ar
    10    7   12 1
    11    8   13 1
    12    9   11 1
    13    9   14 1
    14    9   15 2
    15   10   12 1
    16   11   12 1
    17    1   16 1
    18    2   17 1
    19    3   18 1
    20    4   19 1
    21    5   20 1
    22   10   21 1
    23   10   22 1
    24   10   23 1
    25   11   24 1
    26   11   25 1
    27   12   26 1
    28   13   27 1
@<TRIPOS>Similarity
1.5683
@<TRIPOS>ShapeSim
0.7993
@<TRIPOS>PharmSim
0.7690
# END
# Name:		AG-690/11350932
# Created and modified by SHAFTS on Thu Mar 19 22:43:37 2015

# 

@<TRIPOS>MOLECULE
AG-690/11350932
   22    23     0
SMALL
USER_CHARGE


@<TRIPOS>ATOM
      1 C1          0.7425   -0.6341    1.1756 C.1       1 <1>         0.0506
      2 C2          2.4729    0.5544   -0.1092 C.1       1 <1>         0.0485
      3 C3          6.5895   -3.9105    0.8619 C.ar      1 <1>        -0.0883
      4 C4          7.8092   -3.2380    0.8204 C.ar      1 <1>        -0.0870
      5 C5          5.3966   -3.2169    1.0960 C.ar      1 <1>        -0.0781
      6 C6          7.8766   -1.8548    1.0105 C.ar      1 <1>        -0.0769
      7 C7          5.1020    0.3849    1.6451 C.2       1 <1>        -0.0263
      8 C8          5.4396   -1.8220    1.2907 C.ar      1 <1>        -0.0530
      9 C9          4.4558   -0.8255    1.5445 C.2       1 <1>        -0.0159
     10 C10         6.6760   -1.1745    1.2436 C.ar      1 <1>        -0.0532
     11 C11         3.0604   -0.9976    1.6779 C.2       1 <1>         0.0457
     12 C12         2.1236   -0.3742    0.9185 C.2       1 <1>         0.1647
     13 N1         -0.3800   -0.8445    1.3824 N.1       1 <1>        -0.3867
     14 N2          2.7518    1.3107   -0.9443 N.1       1 <1>        -0.3895
     15 N3          6.4408    0.1644    1.4618 N.pl3     1 <1>        -0.3488
     16 H1          6.5625   -4.9862    0.7090 H         1 <1>         0.1226
     17 H2          8.7232   -3.7967    0.6367 H         1 <1>         0.1271
     18 H3          4.4544   -3.7571    1.1244 H         1 <1>         0.1359
     19 H4          8.8264   -1.3316    0.9769 H         1 <1>         0.1357
     20 H5          4.7351    1.3856    1.8304 H         1 <1>         0.2175
     21 H6          2.7157   -1.6580    2.4831 H         1 <1>         0.2596
     22 H7          7.1533    0.8807    1.4838 H         1 <1>         0.2961
@<TRIPOS>BOND
     1    1   12 1
     2    1   13 3
     3    2   12 1
     4    2   14 3
     5    3    4 ar
     6    3    5 ar
     7    4    6 ar
     8    5    8 ar
     9    6   10 ar
    10    7    9 2
    11    7   15 1
    12    8    9 1
    13    8   10 ar
    14    9   11 1
    15   10   15 1
    16   11   12 2
    17    3   16 1
    18    4   17 1
    19    5   18 1
    20    6   19 1
    21    7   20 1
    22   11   21 1
    23   15   22 1
@<TRIPOS>Similarity
1.5377
@<TRIPOS>ShapeSim
0.8971
@<TRIPOS>PharmSim
0.6406
# END
# Name:		AB-337/13036099
# Created and modified by SHAFTS on Thu Mar 19 22:43:37 2015

# 

@<TRIPOS>MOLECULE
AB-337/13036099
   38    40     0
SMALL
USER_CHARGE


@<TRIPOS>ATOM
      1 C1          6.7690   -3.9973    1.0978 C.ar      1 <1>        -0.0971
      2 C2          7.9790   -3.3295    0.9296 C.ar      1 <1>        -0.0942
      3 C3          5.5893   -3.2862    1.3458 C.ar      1 <1>        -0.0928
      4 C4          8.0455   -1.9361    1.0030 C.ar      1 <1>        -0.0868
      5 C5          5.6303   -1.8768    1.4259 C.ar      1 <1>        -0.0885
      6 C6          4.6399   -0.8581    1.6591 C.2       1 <1>        -0.1017
      7 C7          6.8555   -1.2420    1.2507 C.ar      1 <1>        -0.0747
      8 C8          5.2957    0.3711    1.6100 C.2       1 <1>        -0.0907
      9 C9          3.1833   -1.1439    1.8863 C.3       1 <1>        -0.0386
     10 C10         4.8974    1.8142    1.7719 C.3       1 <1>        -0.0301
     11 C11         2.4191   -1.3335    0.5698 C.3       1 <1>        -0.0554
     12 C12         3.4220    2.1615    1.5904 C.3       1 <1>        -0.0497
     13 C13         0.9786   -0.8204    0.5743 C.3       1 <1>        -0.0628
     14 C14         2.9024    1.9030    0.1741 C.3       1 <1>        -0.0610
     15 C15         0.7306    0.6453    0.9530 C.3       1 <1>        -0.0652
     16 C16         1.3837    1.7235    0.0768 C.3       1 <1>        -0.0647
     17 N1          6.6272    0.1039    1.3702 N.pl3     1 <1>        -0.3772
     18 H1          6.7379   -5.0816    1.0357 H         1 <1>         0.1111
     19 H2          8.8848   -3.8987    0.7398 H         1 <1>         0.1190
     20 H3          4.6531   -3.8228    1.4738 H         1 <1>         0.1241
     21 H4          8.9878   -1.4146    0.8723 H         1 <1>         0.1261
     22 H5          3.0913   -2.0548    2.4753 H         1 <1>         0.0707
     23 H6          2.7293   -0.3545    2.4762 H         1 <1>         0.0663
     24 H7          5.2606    2.2028    2.7408 H         1 <1>         0.0780
     25 H8          5.4815    2.4031    1.0334 H         1 <1>         0.0845
     26 H9          2.9594   -0.8156   -0.2319 H         1 <1>         0.0424
     27 H10         2.4265   -2.3982    0.3091 H         1 <1>         0.0462
     28 H11         2.8370    1.6001    2.2982 H         1 <1>         0.0597
     29 H12         3.2921    3.2128    1.7964 H         1 <1>         0.0464
     30 H13         0.5230   -1.0651   -0.4129 H         1 <1>         0.0377
     31 H14         0.3858   -1.4568    1.2760 H         1 <1>         0.0352
     32 H15         3.1435    2.7913   -0.4097 H         1 <1>         0.0382
     33 H16         3.4364    1.0848   -0.2899 H         1 <1>         0.0365
     34 H17        -0.3689    0.8152    0.9343 H         1 <1>         0.0333
     35 H18         0.9862    0.8431    2.0102 H         1 <1>         0.0357
     36 H19         0.8964    2.6859    0.2927 H         1 <1>         0.0338
     37 H20         1.1376    1.4955   -0.9717 H         1 <1>         0.0364
     38 H21         7.3442    0.8170    1.2864 H         1 <1>         0.2697
@<TRIPOS>BOND
     1    1    2 ar
     2    1    3 ar
     3    2    4 ar
     4    3    5 ar
     5    4    7 ar
     6    5    6 1
     7    5    7 ar
     8    6    8 2
     9    6    9 1
    10    7   17 1
    11    8   10 1
    12    8   17 1
    13    9   11 1
    14   10   12 1
    15   11   13 1
    16   12   14 1
    17   13   15 1
    18   14   16 1
    19   15   16 1
    20    1   18 1
    21    2   19 1
    22    3   20 1
    23    4   21 1
    24    9   22 1
    25    9   23 1
    26   10   24 1
    27   10   25 1
    28   11   26 1
    29   11   27 1
    30   12   28 1
    31   12   29 1
    32   13   30 1
    33   13   31 1
    34   14   32 1
    35   14   33 1
    36   15   34 1
    37   15   35 1
    38   16   36 1
    39   16   37 1
    40   17   38 1
@<TRIPOS>Similarity
1.5317
@<TRIPOS>ShapeSim
0.9360
@<TRIPOS>PharmSim
0.5957
# END
# Name:		AH-357/02166042
# Created and modified by SHAFTS on Thu Mar 19 22:43:37 2015

# 

@<TRIPOS>MOLECULE
AH-357/02166042
   29    30     0
SMALL
USER_CHARGE


@<TRIPOS>ATOM
      1 C1          6.3872   -4.0428    0.9500 C.ar      1 <1>        -0.0970
      2 C2          7.6882   -3.5658    0.8042 C.ar      1 <1>        -0.0941
      3 C3          5.3377   -3.1746    1.2721 C.ar      1 <1>        -0.0923
      4 C4          7.9822   -2.2099    0.9749 C.ar      1 <1>        -0.0867
      5 C5          5.6449    0.4281    1.8078 C.2       1 <1>        -0.0658
      6 C6          5.6099   -1.8034    1.4491 C.ar      1 <1>        -0.0858
      7 C7          4.8145   -0.6683    1.7712 C.2       1 <1>        -0.0909
      8 C8          6.9232   -1.3537    1.2968 C.ar      1 <1>        -0.0725
      9 C9          2.4715    1.7968    0.3902 C.2       1 <1>         0.0023
     10 C10         3.3593   -0.6570    2.0246 C.3       1 <1>        -0.0276
     11 C11         2.7842    0.4438   -0.2210 C.3       1 <1>         0.0154
     12 C12         2.5288   -0.7284    0.7251 C.3       1 <1>        -0.0243
     13 N1          6.9147    0.0048    1.5201 N.pl3     1 <1>        -0.3696
     14 N2          1.1519    1.9061    0.7739 N.am      1 <1>        -0.3270
     15 O1          3.3017    2.6872    0.5473 O.2       1 <1>        -0.5793
     16 H1          6.1833   -5.1012    0.8118 H         1 <1>         0.1113
     17 H2          8.4882   -4.2579    0.5538 H         1 <1>         0.1192
     18 H3          4.3287   -3.5619    1.3815 H         1 <1>         0.1244
     19 H4          8.9956   -1.8397    0.8621 H         1 <1>         0.1260
     20 H5          5.4469    1.4716    2.0109 H         1 <1>         0.1735
     21 H6          3.0736   -1.4944    2.6898 H         1 <1>         0.0737
     22 H7          3.0637    0.2524    2.5844 H         1 <1>         0.0735
     23 H8          2.1411    0.3351   -1.1030 H         1 <1>         0.1262
     24 H9          3.8240    0.4335   -0.5681 H         1 <1>         0.1263
     25 H10         2.7810   -1.6589    0.2004 H         1 <1>         0.0714
     26 H11         1.4614   -0.7906    0.9722 H         1 <1>         0.0720
     27 H12         7.7286    0.6025    1.4775 H         1 <1>         0.2727
     28 H13         0.5224    1.1229    0.6296 H         1 <1>         0.2625
     29 H14         0.8009    2.7581    1.1987 H         1 <1>         0.2622
@<TRIPOS>BOND
     1    1    2 ar
     2    1    3 ar
     3    2    4 ar
     4    3    6 ar
     5    4    8 ar
     6    5    7 2
     7    5   13 1
     8    6    7 1
     9    6    8 ar
    10    7   10 1
    11    8   13 1
    12    9   11 1
    13    9   14 am
    14    9   15 2
    15   10   12 1
    16   11   12 1
    17    1   16 1
    18    2   17 1
    19    3   18 1
    20    4   19 1
    21    5   20 1
    22   10   21 1
    23   10   22 1
    24   11   23 1
    25   11   24 1
    26   12   25 1
    27   12   26 1
    28   13   27 1
    29   14   28 1
    30   14   29 1
@<TRIPOS>Similarity
1.5160
@<TRIPOS>ShapeSim
0.8947
@<TRIPOS>PharmSim
0.6213
# END
# Name:		AF-399/13479018
# Created and modified by SHAFTS on Thu Mar 19 22:43:37 2015

# 

@<TRIPOS>MOLECULE
AF-399/13479018
   29    31     0
SMALL
USER_CHARGE


@<TRIPOS>ATOM
      1 C1          6.5578   -3.9338    1.0387 C.ar      1 <1>        -0.0976
      2 C2          7.7576   -3.2581    1.2509 C.ar      1 <1>        -0.0948
      3 C3          5.3492   -3.2348    0.9439 C.ar      1 <1>        -0.0916
      4 C4          7.7882   -1.8665    1.3763 C.ar      1 <1>        -0.0861
      5 C5          5.3535   -1.8304    1.0651 C.ar      1 <1>        -0.0879
      6 C6          4.3471   -0.8245    1.0228 C.2       1 <1>        -0.1011
      7 C7          6.5730   -1.1788    1.2802 C.ar      1 <1>        -0.0742
      8 C8          4.9706    0.3899    1.2172 C.2       1 <1>        -0.0901
      9 C9          2.8720   -0.9447    0.8393 C.3       1 <1>        -0.0371
     10 C10         4.3177    1.7240    1.2315 C.3       1 <1>        -0.0286
     11 C11         2.7940    1.5566    1.3840 C.3       1 <1>        -0.0460
     12 C12         2.2359    0.4240    0.4860 C.3       1 <1>        -0.0508
     13 C13         0.7145    0.3477    0.5946 C.3       1 <1>        -0.0627
     14 N1          6.3098    0.1718    1.3671 N.pl3     1 <1>        -0.3768
     15 H1          6.5593   -5.0165    0.9448 H         1 <1>         0.1085
     16 H2          8.6848   -3.8209    1.3215 H         1 <1>         0.1164
     17 H3          4.4218   -3.7757    0.7784 H         1 <1>         0.1287
     18 H4          8.7234   -1.3423    1.5428 H         1 <1>         0.1295
     19 H5          2.6467   -1.6692    0.0480 H         1 <1>         0.0696
     20 H6          2.4377   -1.3311    1.7702 H         1 <1>         0.0696
     21 H7          4.7059    2.3438    2.0470 H         1 <1>         0.0839
     22 H8          4.5350    2.2394    0.2883 H         1 <1>         0.0822
     23 H9          2.5590    1.3319    2.4332 H         1 <1>         0.0569
     24 H10         2.3042    2.5086    1.1468 H         1 <1>         0.0553
     25 H11         2.4896    0.6648   -0.5558 H         1 <1>         0.0514
     26 H12         0.4289    0.1098    1.6181 H         1 <1>         0.0341
     27 H13         0.3353   -0.4266   -0.0704 H         1 <1>         0.0341
     28 H14         0.2759    1.3042    0.3151 H         1 <1>         0.0344
     29 H15         7.0067    0.8887    1.5169 H         1 <1>         0.2710
@<TRIPOS>BOND
     1    1    2 ar
     2    1    3 ar
     3    2    4 ar
     4    3    5 ar
     5    4    7 ar
     6    5    6 1
     7    5    7 ar
     8    6    8 2
     9    6    9 1
    10    7   14 1
    11    8   10 1
    12    8   14 1
    13    9   12 1
    14   10   11 1
    15   11   12 1
    16   12   13 1
    17    1   15 1
    18    2   16 1
    19    3   17 1
    20    4   18 1
    21    9   19 1
    22    9   20 1
    23   10   21 1
    24   10   22 1
    25   11   23 1
    26   11   24 1
    27   12   25 1
    28   13   26 1
    29   13   27 1
    30   13   28 1
    31   14   29 1
@<TRIPOS>Similarity
1.5095
@<TRIPOS>ShapeSim
0.8612
@<TRIPOS>PharmSim
0.6483
# END
# Name:		AG-205/34696016
# Created and modified by SHAFTS on Thu Mar 19 22:43:37 2015

# 

@<TRIPOS>MOLECULE
AG-205/34696016
   29    31     0
SMALL
USER_CHARGE


@<TRIPOS>ATOM
      1 C1          6.8147   -4.0105    1.0919 C.ar      1 <1>        -0.0983
      2 C2          7.9964   -3.2928    0.9267 C.ar      1 <1>        -0.0953
      3 C3          5.6062   -3.3507    1.3433 C.ar      1 <1>        -0.0941
      4 C4          8.0070   -1.8980    1.0076 C.ar      1 <1>        -0.0879
      5 C5          5.5887   -1.9421    1.4295 C.ar      1 <1>        -0.0895
      6 C6          4.5677   -0.9658    1.6661 C.2       1 <1>        -0.1022
      7 C7          6.7907   -1.2528    1.2596 C.ar      1 <1>        -0.0750
      8 C8          5.1765    0.2755    1.6335 C.2       1 <1>        -0.0897
      9 C9          3.1153   -1.2074    1.9096 C.3       1 <1>        -0.0392
     10 C10         4.5900    1.6313    1.8162 C.3       1 <1>        -0.0288
     11 C11         2.2037   -0.4185    0.9675 C.3       1 <1>        -0.0536
     12 C12         3.3974    1.8755    0.8910 C.3       1 <1>        -0.0488
     13 C13         2.1377    1.0846    1.2602 C.3       1 <1>        -0.0569
     14 N1          6.5116    0.0868    1.3894 N.pl3     1 <1>        -0.3751
     15 H1          6.8295   -5.0951    1.0254 H         1 <1>         0.1095
     16 H2          8.9247   -3.8233    0.7316 H         1 <1>         0.1175
     17 H3          4.6947   -3.9282    1.4696 H         1 <1>         0.1224
     18 H4          8.9282   -1.3392    0.8797 H         1 <1>         0.1246
     19 H5          2.8960   -2.2740    1.7805 H         1 <1>         0.0659
     20 H6          2.8774   -0.9679    2.9534 H         1 <1>         0.0664
     21 H7          4.2898    1.7622    2.8626 H         1 <1>         0.0801
     22 H8          5.3514    2.3942    1.6100 H         1 <1>         0.0875
     23 H9          2.4973   -0.5823   -0.0769 H         1 <1>         0.0453
     24 H10         1.1876   -0.8195    1.0733 H         1 <1>         0.0467
     25 H11         3.1460    2.9422    0.9455 H         1 <1>         0.0519
     26 H12         3.6721    1.6728   -0.1517 H         1 <1>         0.0526
     27 H13         1.3058    1.4985    0.6759 H         1 <1>         0.0417
     28 H14         1.8850    1.2515    2.3144 H         1 <1>         0.0407
     29 H15         7.1966    0.8262    1.3138 H         1 <1>         0.2813
@<TRIPOS>BOND
     1    1    2 ar
     2    1    3 ar
     3    2    4 ar
     4    3    5 ar
     5    4    7 ar
     6    5    6 1
     7    5    7 ar
     8    6    8 2
     9    6    9 1
    10    7   14 1
    11    8   10 1
    12    8   14 1
    13    9   11 1
    14   10   12 1
    15   11   13 1
    16   12   13 1
    17    1   15 1
    18    2   16 1
    19    3   17 1
    20    4   18 1
    21    9   19 1
    22    9   20 1
    23   10   21 1
    24   10   22 1
    25   11   23 1
    26   11   24 1
    27   12   25 1
    28   12   26 1
    29   13   27 1
    30   13   28 1
    31   14   29 1
@<TRIPOS>Similarity
1.4931
@<TRIPOS>ShapeSim
0.8719
@<TRIPOS>PharmSim
0.6211
# END
# Name:		AQ-776/42801706
# Created and modified by SHAFTS on Thu Mar 19 22:43:37 2015

# 

@<TRIPOS>MOLECULE
AQ-776/42801706
   27    29     0
SMALL
USER_CHARGE


@<TRIPOS>ATOM
      1 C1          0.8964    2.4781    0.2348 C.ar      1 <1>        -0.0936
      2 C2          6.8100   -4.0104    1.0919 C.ar      1 <1>        -0.0913
      3 C3          7.9938   -3.2938    0.9283 C.ar      1 <1>        -0.0897
      4 C4          2.1000    2.0214   -0.3020 C.ar      1 <1>        -0.0906
      5 C5          0.2980    1.7902    1.2905 C.ar      1 <1>        -0.0908
      6 C6          5.6017   -3.3500    1.3424 C.ar      1 <1>        -0.0812
      7 C7          8.0087   -1.8984    1.0092 C.ar      1 <1>        -0.0804
      8 C8          2.7053    0.8768    0.2170 C.ar      1 <1>        -0.0796
      9 C9          0.9031    0.6457    1.8094 C.ar      1 <1>        -0.0799
     10 C10         5.1748    0.2685    1.6338 C.2       1 <1>        -0.0436
     11 C11         5.5920   -1.9437    1.4282 C.ar      1 <1>        -0.0622
     12 C12         6.7933   -1.2517    1.2601 C.ar      1 <1>        -0.0592
     13 C13         2.1068    0.1889    1.2726 C.ar      1 <1>        -0.0650
     14 C14         4.5796   -0.9716    1.6630 C.2       1 <1>        -0.0475
     15 N1          6.5100    0.0894    1.3898 N.pl3     1 <1>        -0.3579
     16 S1          2.8854   -1.2840    1.9395 S.3       1 <1>        -0.1999
     17 H1          0.4256    3.3693   -0.1697 H         1 <1>         0.1214
     18 H2          6.8238   -5.0951    1.0245 H         1 <1>         0.1165
     19 H3          8.9213   -3.8270    0.7355 H         1 <1>         0.1239
     20 H4          2.5661    2.5566   -1.1241 H         1 <1>         0.1211
     21 H5         -0.6392    2.1466    1.7080 H         1 <1>         0.1207
     22 H6          4.6892   -3.9263    1.4665 H         1 <1>         0.1333
     23 H7          8.9312   -1.3414    0.8829 H         1 <1>         0.1313
     24 H8          3.6432    0.5360   -0.2148 H         1 <1>         0.1379
     25 H9          0.4215    0.1230    2.6320 H         1 <1>         0.1370
     26 H10         4.7727    1.2642    1.7626 H         1 <1>         0.1883
     27 H11         7.1895    0.8337    1.3150 H         1 <1>         0.2808
@<TRIPOS>BOND
     1    1    4 ar
     2    1    5 ar
     3    2    3 ar
     4    2    6 ar
     5    3    7 ar
     6    4    8 ar
     7    5    9 ar
     8    6   11 ar
     9    7   12 ar
    10    8   13 ar
    11    9   13 ar
    12   10   14 2
    13   10   15 1
    14   11   12 ar
    15   11   14 1
    16   12   15 1
    17   13   16 1
    18   14   16 1
    19    1   17 1
    20    2   18 1
    21    3   19 1
    22    4   20 1
    23    5   21 1
    24    6   22 1
    25    7   23 1
    26    8   24 1
    27    9   25 1
    28   10   26 1
    29   15   27 1
@<TRIPOS>Similarity
1.4825
@<TRIPOS>ShapeSim
0.8978
@<TRIPOS>PharmSim
0.5847
# END
# Name:		Building
# Created and modified by SHAFTS on Thu Mar 19 22:43:37 2015

# 

@<TRIPOS>MOLECULE
Building
   28    30     0
SMALL
USER_CHARGE


@<TRIPOS>ATOM
      1 C1          6.1964   -3.8887    0.7715 C.ar      1 <1>        -0.1387
      2 C2          7.5349   -3.5052    0.8193 C.ar      1 <1>        -0.0845
      3 C3          5.1760   -2.9584    0.9988 C.ar      1 <1>        -0.0636
      4 C4          7.8963   -2.1837    1.0957 C.ar      1 <1>        -0.1315
      5 C5          5.5141   -1.6188    1.2784 C.ar      1 <1>        -0.0984
      6 C6          4.7663   -0.4396    1.5517 C.2       1 <1>        -0.1430
      7 C7          6.8672   -1.2624    1.3216 C.ar      1 <1>         0.1098
      8 C8          5.6695    0.5807    1.7549 C.2       1 <1>         0.0158
      9 C9          2.8795    1.7830    0.1668 C.2       1 <1>         0.4573
     10 C10         3.2913   -0.2229    1.6481 C.3       1 <1>        -0.0498
     11 C11         5.3246    1.9863    2.0505 C.3       1 <1>         0.0791
     12 C12         2.9115    1.2700    1.5729 C.3       1 <1>        -0.0143
     13 N1          6.9315    0.0844    1.6127 N.pl3     1 <1>        -0.5742
     14 N2          3.8586    2.1025    2.4120 N.4       1 <1>        -0.4927
     15 O1          2.5137    0.9458   -0.7041 O.co2     1 <1>        -0.5000
     16 O2          3.2244    2.9908    0.0357 O.co2     1 <1>        -0.5000
     17 H1          5.9399   -4.9225    0.5553 H         1 <1>         0.1293
     18 H2          8.3113   -4.2443    0.6385 H         1 <1>         0.1314
     19 H3          4.1371   -3.2729    0.9591 H         1 <1>         0.1286
     20 H4          8.9393   -1.8868    1.1322 H         1 <1>         0.1246
     21 H5          2.8021   -0.7867    0.8373 H         1 <1>         0.1195
     22 H6          2.9142   -0.6485    2.5910 H         1 <1>         0.0975
     23 H7          5.8866    2.3588    2.9132 H         1 <1>         0.1404
     24 H8          5.4852    2.6469    1.1930 H         1 <1>         0.1365
     25 H9          1.9051    1.4530    2.0384 H         1 <1>         0.1393
     26 H10         7.7859    0.6165    1.7063 H         1 <1>         0.4198
     27 H11         3.7390    1.8597    3.4126 H         1 <1>         0.4349
     28 H12         3.5755    3.0980    2.3459 H         1 <1>         0.4408
@<TRIPOS>BOND
     1    1    2 ar
     2    1    3 ar
     3    2    4 ar
     4    3    5 ar
     5    4    7 ar
     6    5    6 1
     7    5    7 ar
     8    6    8 2
     9    6   10 1
    10    7   13 1
    11    8   11 1
    12    8   13 1
    13    9   12 1
    14    9   15 1
    15    9   16 2
    16   10   12 1
    17   11   14 1
    18   12   14 1
    19    1   17 1
    20    2   18 1
    21    3   19 1
    22    4   20 1
    23   10   21 1
    24   10   22 1
    25   11   23 1
    26   11   24 1
    27   12   25 1
    28   13   26 1
    29   14   27 1
    30   14   28 1
@<TRIPOS>Similarity
1.4816
@<TRIPOS>ShapeSim
0.8034
@<TRIPOS>PharmSim
0.6782
# END
# Name:		AH-262/34227019
# Created and modified by SHAFTS on Thu Mar 19 22:43:37 2015

# 

@<TRIPOS>MOLECULE
AH-262/34227019
   29    30     0
SMALL
USER_CHARGE


@<TRIPOS>ATOM
      1 C1          2.4362    0.6237   -0.1060 C.1       1 <1>         0.0158
      2 C2          6.4710   -3.9173    0.8908 C.ar      1 <1>        -0.0859
      3 C3          7.7158   -3.2972    0.8037 C.ar      1 <1>        -0.0852
      4 C4          5.3137   -3.1692    1.1358 C.ar      1 <1>        -0.0713
      5 C5          7.8446   -1.9140    0.9582 C.ar      1 <1>        -0.0714
      6 C6          5.4187   -1.7731    1.2950 C.ar      1 <1>        -0.0367
      7 C7          4.4831   -0.7309    1.5474 C.2       1 <1>         0.0044
      8 C8          6.6792   -1.1789    1.2028 C.ar      1 <1>        -0.0371
      9 C9          5.1808    0.4537    1.6026 C.2       1 <1>         0.0065
     10 C10         3.0852   -0.8510    1.7174 C.2       1 <1>         0.0374
     11 C11         2.0918   -0.2487    0.9699 C.2       1 <1>         0.1145
     12 C12         0.6572   -0.5166    1.3318 C.2       1 <1>         0.1030
     13 C13         4.1310    2.0183    3.0536 C.3       1 <1>         0.0231
     14 N1          2.7132    1.3342   -0.9809 N.1       1 <1>        -0.4079
     15 N2          6.5045    0.1733    1.3934 N.pl3     1 <1>        -0.3276
     16 N3          0.0845   -1.5867    0.6819 N.am      1 <1>        -0.2948
     17 O1          0.0410    0.1661    2.1474 O.2       1 <1>        -0.5234
     18 O2          4.7910    1.7043    1.8095 O.3       1 <1>        -0.4535
     19 H1          6.3960   -4.9945    0.7672 H         1 <1>         0.1238
     20 H2          8.6016   -3.8976    0.6122 H         1 <1>         0.1267
     21 H3          4.3517   -3.6697    1.2009 H         1 <1>         0.1401
     22 H4          8.8141   -1.4321    0.8897 H         1 <1>         0.1375
     23 H5          2.7494   -1.4918    2.5620 H         1 <1>         0.2561
     24 H6          3.8739    3.0803    3.0726 H         1 <1>         0.1334
     25 H7          4.7932    1.7779    3.8892 H         1 <1>         0.1338
     26 H8          3.2181    1.4233    3.1318 H         1 <1>         0.1547
     27 H9          7.2456    0.8599    1.3804 H         1 <1>         0.3109
     28 H10         0.5722   -2.1657    0.0068 H         1 <1>         0.2848
     29 H11        -0.8811   -1.8399    0.8656 H         1 <1>         0.2882
@<TRIPOS>BOND
     1    1   11 1
     2    1   14 3
     3    2    3 ar
     4    2    4 ar
     5    3    5 ar
     6    4    6 ar
     7    5    8 ar
     8    6    7 1
     9    6    8 ar
    10    7    9 2
    11    7   10 1
    12    8   15 1
    13    9   15 1
    14    9   18 1
    15   10   11 2
    16   11   12 1
    17   12   16 am
    18   12   17 2
    19   13   18 1
    20    2   19 1
    21    3   20 1
    22    4   21 1
    23    5   22 1
    24   10   23 1
    25   13   24 1
    26   13   25 1
    27   13   26 1
    28   15   27 1
    29   16   28 1
    30   16   29 1
@<TRIPOS>Similarity
1.4789
@<TRIPOS>ShapeSim
0.8719
@<TRIPOS>PharmSim
0.6070
# END
# Name:		AE-473/30364030
# Created and modified by SHAFTS on Thu Mar 19 22:43:37 2015

# 

@<TRIPOS>MOLECULE
AE-473/30364030
   39    40     0
SMALL
USER_CHARGE


@<TRIPOS>ATOM
      1 C1          5.5256   -3.2160    0.9167 C.ar      1 <1>        -0.0914
      2 C2          6.7365   -3.9157    0.8623 C.ar      1 <1>        -0.0994
      3 C3          7.9835   -1.9081    1.4265 C.ar      1 <1>        -0.0884
      4 C4          5.1538    0.3365    1.6928 C.2       1 <1>        -0.0579
      5 C5          5.5391   -1.8423    1.2303 C.ar      1 <1>        -0.0798
      6 C6          7.9454   -3.2699    1.1137 C.ar      1 <1>        -0.1059
      7 C7          4.5315   -0.8471    1.3695 C.2       1 <1>        -0.0723
      8 C8          6.7652   -1.2212    1.4775 C.ar      1 <1>        -0.0700
      9 C9          9.2213   -4.0420    1.0467 C.3       1 <1>        -0.0397
     10 C10         0.3524    2.2825    2.4567 C.3       1 <1>        -0.0623
     11 C11        -1.5865    1.1354    1.3692 C.3       1 <1>        -0.0631
     12 C12         3.0449   -1.0439    1.1970 C.3       1 <1>         0.0209
     13 C13         0.7445    0.0930    1.2838 C.3       1 <1>        -0.0038
     14 C14        -0.0821    1.3985    1.2837 C.3       1 <1>        -0.0488
     15 C15         2.2626    0.2750    1.1485 C.3       1 <1>         0.0910
     16 N1          6.5010    0.1009    1.7553 N.pl3     1 <1>        -0.3657
     17 N2          2.5301    0.8675   -0.1847 N.pl3     1 <1>        -0.1470
     18 O1          3.1012    1.9662   -0.2141 O.3       1 <1>        -0.2231
     19 O2          2.1785    0.2110   -1.1744 O.2       1 <1>        -0.3897
     20 H1          4.5910   -3.7322    0.7171 H         1 <1>         0.1247
     21 H2          6.7216   -4.9756    0.6190 H         1 <1>         0.1136
     22 H3          8.9219   -1.3986    1.6221 H         1 <1>         0.1286
     23 H4          4.7610    1.3254    1.8847 H         1 <1>         0.1809
     24 H5          9.6322   -4.0105    0.0308 H         1 <1>         0.0637
     25 H6          9.9689   -3.6341    1.7385 H         1 <1>         0.0625
     26 H7          9.0656   -5.0911    1.3281 H         1 <1>         0.0614
     27 H8          0.1796    1.7836    3.4165 H         1 <1>         0.0345
     28 H9          1.4179    2.5257    2.3869 H         1 <1>         0.0352
     29 H10        -0.2041    3.2259    2.4601 H         1 <1>         0.0344
     30 H11        -1.8412    0.5781    2.2771 H         1 <1>         0.0335
     31 H12        -1.9418    0.5644    0.5067 H         1 <1>         0.0319
     32 H13        -2.1453    2.0777    1.3839 H         1 <1>         0.0343
     33 H14         2.8484   -1.6368    0.2930 H         1 <1>         0.1182
     34 H15         2.6912   -1.6663    2.0313 H         1 <1>         0.1226
     35 H16         0.3846   -0.5373    0.4608 H         1 <1>         0.0903
     36 H17         0.5275   -0.4587    2.2092 H         1 <1>         0.0944
     37 H18         0.1177    1.9565    0.3610 H         1 <1>         0.0439
     38 H19         2.6574    0.9908    1.8749 H         1 <1>         0.2086
     39 H20         7.2007    0.7970    1.9734 H         1 <1>         0.2789
@<TRIPOS>BOND
     1    1    2 ar
     2    1    5 ar
     3    2    6 ar
     4    3    6 ar
     5    3    8 ar
     6    4    7 2
     7    4   16 1
     8    5    7 1
     9    5    8 ar
    10    6    9 1
    11    7   12 1
    12    8   16 1
    13   10   14 1
    14   11   14 1
    15   12   15 1
    16   13   14 1
    17   13   15 1
    18   15   17 1
    19   17   18 1
    20   17   19 2
    21    1   20 1
    22    2   21 1
    23    3   22 1
    24    4   23 1
    25    9   24 1
    26    9   25 1
    27    9   26 1
    28   10   27 1
    29   10   28 1
    30   10   29 1
    31   11   30 1
    32   11   31 1
    33   11   32 1
    34   12   33 1
    35   12   34 1
    36   13   35 1
    37   13   36 1
    38   14   37 1
    39   15   38 1
    40   16   39 1
@<TRIPOS>Similarity
1.4775
@<TRIPOS>ShapeSim
0.8673
@<TRIPOS>PharmSim
0.6102
# END
# Name:		AB-337/13036072
# Created and modified by SHAFTS on Thu Mar 19 22:43:37 2015

# 

@<TRIPOS>MOLECULE
AB-337/13036072
   31    33     0
SMALL
USER_CHARGE


@<TRIPOS>ATOM
      1 C1          6.7586   -3.9984    1.1016 C.ar      1 <1>        -0.0908
      2 C2          7.9703   -3.3320    0.9301 C.ar      1 <1>        -0.0891
      3 C3          5.5790   -3.2874    1.3500 C.ar      1 <1>        -0.0814
      4 C4          8.0424   -1.9378    1.0010 C.ar      1 <1>        -0.0779
      5 C5          5.3010    0.3474    1.6165 C.2       1 <1>        -0.0287
      6 C6          5.6270   -1.8813    1.4259 C.ar      1 <1>        -0.0587
      7 C7          4.6557   -0.8671    1.6562 C.2       1 <1>        -0.0355
      8 C8          6.8551   -1.2402    1.2499 C.ar      1 <1>        -0.0538
      9 C9          2.2896   -0.5386    1.1003 C.2       1 <1>         0.0202
     10 C10         0.8605   -0.7808    1.4619 C.2       1 <1>         0.0235
     11 C11         2.6744    0.2373   -0.1168 C.2       1 <1>         0.0221
     12 C12         3.2533   -1.0291    1.8914 C.2       1 <1>        -0.0155
     13 C13        -0.1916   -0.1752    0.5598 C.3       1 <1>         0.0238
     14 C14         1.5521    0.8034   -0.9576 C.3       1 <1>         0.0236
     15 C15         0.3099    1.0863   -0.1266 C.3       1 <1>        -0.0073
     16 N1          6.6270    0.1121    1.3708 N.pl3     1 <1>        -0.3482
     17 O1          0.5395   -1.4807    2.4207 O.2       1 <1>        -0.5597
     18 O2          3.8477    0.3765   -0.4581 O.2       1 <1>        -0.5618
     19 H1          6.7275   -5.0830    1.0401 H         1 <1>         0.1191
     20 H2          8.8741   -3.9041    0.7376 H         1 <1>         0.1233
     21 H3          4.6428   -3.8233    1.4807 H         1 <1>         0.1304
     22 H4          8.9860   -1.4195    0.8661 H         1 <1>         0.1340
     23 H5          4.9414    1.3600    1.7407 H         1 <1>         0.2237
     24 H6          2.9419   -1.6120    2.7552 H         1 <1>         0.2124
     25 H7         -0.4559   -0.9153   -0.2036 H         1 <1>         0.1221
     26 H8         -1.0821    0.0337    1.1626 H         1 <1>         0.1244
     27 H9          1.9142    1.7152   -1.4448 H         1 <1>         0.1232
     28 H10         1.3026    0.0716   -1.7340 H         1 <1>         0.1245
     29 H11        -0.4796    1.4929   -0.7715 H         1 <1>         0.0779
     30 H12         0.5376    1.8487    0.6269 H         1 <1>         0.0818
     31 H13         7.3363    0.8276    1.2896 H         1 <1>         0.2978
@<TRIPOS>BOND
     1    1    2 ar
     2    1    3 ar
     3    2    4 ar
     4    3    6 ar
     5    4    8 ar
     6    5    7 2
     7    5   16 1
     8    6    7 1
     9    6    8 ar
    10    7   12 1
    11    8   16 1
    12    9   10 1
    13    9   11 1
    14    9   12 2
    15   10   13 1
    16   10   17 2
    17   11   14 1
    18   11   18 2
    19   13   15 1
    20   14   15 1
    21    1   19 1
    22    2   20 1
    23    3   21 1
    24    4   22 1
    25    5   23 1
    26   12   24 1
    27   13   25 1
    28   13   26 1
    29   14   27 1
    30   14   28 1
    31   15   29 1
    32   15   30 1
    33   16   31 1
@<TRIPOS>Similarity
1.4673
@<TRIPOS>ShapeSim
0.8821
@<TRIPOS>PharmSim
0.5852
# END
# Name:		AS-662/43412967
# Created and modified by SHAFTS on Thu Mar 19 22:43:37 2015

# 

@<TRIPOS>MOLECULE
AS-662/43412967
   28    29     0
SMALL
USER_CHARGE


@<TRIPOS>ATOM
      1 C1          7.0102   -4.0982    1.3298 C.ar      1 <1>        -0.1483
      2 C2          8.0952   -3.3639    0.8550 C.ar      1 <1>        -0.1002
      3 C3          5.8308   -3.4579    1.7273 C.ar      1 <1>        -0.0630
      4 C4          8.0373   -1.9704    0.7623 C.ar      1 <1>        -0.1334
      5 C5          5.2397    0.1485    1.6562 C.2       1 <1>         0.0704
      6 C6          5.7491   -2.0537    1.6427 C.ar      1 <1>        -0.0925
      7 C7          4.7394   -1.0991    1.9496 C.2       1 <1>        -0.1501
      8 C8          6.8520   -1.3438    1.1632 C.ar      1 <1>         0.0939
      9 C9          1.6973    1.9082   -0.1125 C.2       1 <1>         0.4671
     10 C10         3.3938   -1.3841    2.4882 C.3       1 <1>        -0.0069
     11 C11         1.7462    0.6421    0.7517 C.3       1 <1>        -0.1421
     12 C12         2.2899   -0.6209    0.0976 C.3       1 <1>        -0.0513
     13 N1          6.5143   -0.0093    1.1822 N.pl3     1 <1>        -0.5943
     14 O1          1.1424    2.9172    0.4033 O.co2     1 <1>        -0.5000
     15 O2          2.2421    1.7843   -1.2472 O.co2     1 <1>        -0.5000
     16 S1          2.2449   -2.0298    1.2266 S.3       1 <1>        -0.2868
     17 H1          7.0790   -5.1809    1.3922 H         1 <1>         0.1216
     18 H2          9.0016   -3.8817    0.5518 H         1 <1>         0.1228
     19 H3          4.9934   -4.0445    2.0943 H         1 <1>         0.1233
     20 H4          8.8828   -1.3996    0.3936 H         1 <1>         0.1175
     21 H5          4.8034    1.1344    1.7402 H         1 <1>         0.1730
     22 H6          3.4338   -2.1181    3.3134 H         1 <1>         0.0846
     23 H7          2.9348   -0.4793    2.9261 H         1 <1>         0.0846
     24 H8          2.3010    0.8569    1.6743 H         1 <1>         0.0731
     25 H9          0.7089    0.4485    1.0552 H         1 <1>         0.0726
     26 H10         3.3211   -0.4802   -0.2410 H         1 <1>         0.0788
     27 H11         1.6839   -0.8730   -0.7785 H         1 <1>         0.0790
     28 H12         7.1204    0.7443    0.8887 H         1 <1>         0.4156
@<TRIPOS>BOND
     1    1    2 ar
     2    1    3 ar
     3    2    4 ar
     4    3    6 ar
     5    4    8 ar
     6    5    7 2
     7    5   13 1
     8    6    7 1
     9    6    8 ar
    10    7   10 1
    11    8   13 1
    12    9   11 1
    13    9   14 1
    14    9   15 2
    15   10   16 1
    16   11   12 1
    17   12   16 1
    18    1   17 1
    19    2   18 1
    20    3   19 1
    21    4   20 1
    22    5   21 1
    23   10   22 1
    24   10   23 1
    25   11   24 1
    26   11   25 1
    27   12   26 1
    28   12   27 1
    29   13   28 1
@<TRIPOS>Similarity
1.4598
@<TRIPOS>ShapeSim
0.8696
@<TRIPOS>PharmSim
0.5902
# END
# Name:		AL-182/12304024
# Created and modified by SHAFTS on Thu Mar 19 22:43:37 2015

# 

@<TRIPOS>MOLECULE
AL-182/12304024
   33    35     0
SMALL
USER_CHARGE


@<TRIPOS>ATOM
      1 C1          6.8099   -4.0103    1.0920 C.ar      1 <1>        -0.0857
      2 C2          7.9938   -3.2937    0.9283 C.ar      1 <1>        -0.0865
      3 C3          5.6017   -3.3500    1.3423 C.ar      1 <1>        -0.0712
      4 C4          8.0087   -1.8984    1.0093 C.ar      1 <1>        -0.0758
      5 C5          5.1748    0.2685    1.6338 C.2       1 <1>        -0.0263
      6 C6          5.5920   -1.9435    1.4282 C.ar      1 <1>        -0.0532
      7 C7          4.5795   -0.9716    1.6631 C.2       1 <1>        -0.0466
      8 C8          6.7934   -1.2516    1.2600 C.ar      1 <1>        -0.0488
      9 C9          3.1580   -1.1920    1.8970 C.2       1 <1>        -0.0745
     10 C10         1.3865    2.2411    0.3182 C.3       1 <1>        -0.0519
     11 C11         2.0973    2.2241    1.6721 C.3       1 <1>        -0.0444
     12 C12         1.8387    1.0682   -0.5522 C.3       1 <1>        -0.0444
     13 C13         1.9237    0.8787    2.3708 C.3       1 <1>        -0.0258
     14 C14         1.6698   -0.2607    0.1786 C.3       1 <1>        -0.0260
     15 N1          6.5100    0.0893    1.3898 N.pl3     1 <1>        -0.3446
     16 N2          2.3059   -0.2187    1.4900 N.pl3     1 <1>        -0.4191
     17 S1          2.5985   -2.5976    2.6127 S.2       1 <1>        -0.2471
     18 H1          6.8239   -5.0952    1.0240 H         1 <1>         0.1227
     19 H2          8.9213   -3.8269    0.7349 H         1 <1>         0.1260
     20 H3          4.6874   -3.9229    1.4673 H         1 <1>         0.1524
     21 H4          8.9310   -1.3418    0.8818 H         1 <1>         0.1336
     22 H5          4.7713    1.2633    1.7641 H         1 <1>         0.2299
     23 H6          0.3020    2.1870    0.4724 H         1 <1>         0.0464
     24 H7          1.5920    3.1861   -0.1967 H         1 <1>         0.0452
     25 H8          3.1660    2.4172    1.5167 H         1 <1>         0.0583
     26 H9          1.7110    3.0281    2.3079 H         1 <1>         0.0588
     27 H10         1.2697    1.0550   -1.4881 H         1 <1>         0.0586
     28 H11         2.8949    1.2055   -0.8157 H         1 <1>         0.0586
     29 H12         2.5191    0.8487    3.2898 H         1 <1>         0.0937
     30 H13         0.8747    0.7243    2.6493 H         1 <1>         0.0977
     31 H14         0.6070   -0.4780    0.3376 H         1 <1>         0.0931
     32 H15         2.0900   -1.0780   -0.4178 H         1 <1>         0.0974
     33 H16         7.1898    0.8336    1.3161 H         1 <1>         0.2992
@<TRIPOS>BOND
     1    1    2 ar
     2    1    3 ar
     3    2    4 ar
     4    3    6 ar
     5    4    8 ar
     6    5    7 2
     7    5   15 1
     8    6    7 1
     9    6    8 ar
    10    7    9 1
    11    8   15 1
    12    9   16 1
    13    9   17 2
    14   10   11 1
    15   10   12 1
    16   11   13 1
    17   12   14 1
    18   13   16 1
    19   14   16 1
    20    1   18 1
    21    2   19 1
    22    3   20 1
    23    4   21 1
    24    5   22 1
    25   10   23 1
    26   10   24 1
    27   11   25 1
    28   11   26 1
    29   12   27 1
    30   12   28 1
    31   13   29 1
    32   13   30 1
    33   14   31 1
    34   14   32 1
    35   15   33 1
@<TRIPOS>Similarity
1.4580
@<TRIPOS>ShapeSim
0.8733
@<TRIPOS>PharmSim
0.5847
# END
# Name:		AD-341/40841539
# Created and modified by SHAFTS on Thu Mar 19 22:43:37 2015

# 

@<TRIPOS>MOLECULE
AD-341/40841539
   36    38     0
SMALL
USER_CHARGE


@<TRIPOS>ATOM
      1 C1          6.5601   -4.0396    1.0214 C.ar      1 <1>        -0.0960
      2 C2          7.7949   -3.4429    0.7750 C.ar      1 <1>        -0.0936
      3 C3          5.4532   -3.2682    1.3940 C.ar      1 <1>        -0.0903
      4 C4          7.9635   -2.0603    0.8926 C.ar      1 <1>        -0.0863
      5 C5          5.4361    0.3619    1.8211 C.2       1 <1>        -0.0633
      6 C6          5.5990   -1.8724    1.5192 C.ar      1 <1>        -0.0829
      7 C7          4.7180   -0.8107    1.8681 C.2       1 <1>        -0.0853
      8 C8          6.8484   -1.3018    1.2660 C.ar      1 <1>        -0.0713
      9 C9          2.9711    1.7145   -0.1139 C.2       1 <1>        -0.0079
     10 C10         3.0284    1.8585   -1.6242 C.3       1 <1>         0.0161
     11 C11         1.9910    1.0509   -2.3799 C.3       1 <1>        -0.0261
     12 C12         2.0321   -0.3874   -1.9037 C.3       1 <1>        -0.0321
     13 C13         1.6911   -0.4285   -0.4258 C.3       1 <1>        -0.0112
     14 C14         3.2581   -0.9361    2.2280 C.3       1 <1>        -0.0162
     15 C15         2.4376    0.2859    1.8223 C.3       1 <1>        -0.0028
     16 N1          6.7199    0.0556    1.4570 N.pl3     1 <1>        -0.3685
     17 N2          2.4556    0.5190    0.3846 N.am      1 <1>        -0.3867
     18 O1          3.4481    2.6089    0.5902 O.2       1 <1>        -0.5763
     19 H1          6.4535   -5.1166    0.9226 H         1 <1>         0.1123
     20 H2          8.6412   -4.0611    0.4867 H         1 <1>         0.1198
     21 H3          4.4971   -3.7484    1.5817 H         1 <1>         0.1279
     22 H4          8.9254   -1.5968    0.7019 H         1 <1>         0.1257
     23 H5          5.1496    1.3867    2.0126 H         1 <1>         0.1749
     24 H6          2.9075    2.9251   -1.8492 H         1 <1>         0.1325
     25 H7          4.0289    1.5614   -1.9591 H         1 <1>         0.1319
     26 H8          0.9951    1.4761   -2.2144 H         1 <1>         0.0666
     27 H9          2.1902    1.0957   -3.4577 H         1 <1>         0.0691
     28 H10         1.3133   -0.9901   -2.4725 H         1 <1>         0.0690
     29 H11         3.0248   -0.8186   -2.0711 H         1 <1>         0.0644
     30 H12         0.6235   -0.2190   -0.2941 H         1 <1>         0.1018
     31 H13         1.8898   -1.4276   -0.0199 H         1 <1>         0.1056
     32 H14         3.1783   -1.0825    3.3127 H         1 <1>         0.0852
     33 H15         2.8392   -1.8413    1.7698 H         1 <1>         0.0871
     34 H16         1.3901    0.1426    2.1057 H         1 <1>         0.1196
     35 H17         2.8015    1.1965    2.3091 H         1 <1>         0.1143
     36 H18         7.4660    0.7280    1.3444 H         1 <1>         0.2732
@<TRIPOS>BOND
     1    1    2 ar
     2    1    3 ar
     3    2    4 ar
     4    3    6 ar
     5    4    8 ar
     6    5    7 2
     7    5   16 1
     8    6    7 1
     9    6    8 ar
    10    7   14 1
    11    8   16 1
    12    9   10 1
    13    9   17 am
    14    9   18 2
    15   10   11 1
    16   11   12 1
    17   12   13 1
    18   13   17 1
    19   14   15 1
    20   15   17 1
    21    1   19 1
    22    2   20 1
    23    3   21 1
    24    4   22 1
    25    5   23 1
    26   10   24 1
    27   10   25 1
    28   11   26 1
    29   11   27 1
    30   12   28 1
    31   12   29 1
    32   13   30 1
    33   13   31 1
    34   14   32 1
    35   14   33 1
    36   15   34 1
    37   15   35 1
    38   16   36 1
@<TRIPOS>Similarity
1.4507
@<TRIPOS>ShapeSim
0.8509
@<TRIPOS>PharmSim
0.5998
# END
# Name:		AH-262/01728005
# Created and modified by SHAFTS on Thu Mar 19 22:43:37 2015

# 

@<TRIPOS>MOLECULE
AH-262/01728005
   31    32     0
SMALL
USER_CHARGE


@<TRIPOS>ATOM
      1 C1          3.1314    1.5479    0.8985 C.1       1 <1>         0.0360
      2 C2          6.7051   -3.9190    0.8268 C.ar      1 <1>        -0.0854
      3 C3          7.9719   -3.3867    1.0577 C.ar      1 <1>        -0.0847
      4 C4          5.5572   -3.1368    0.9980 C.ar      1 <1>        -0.0705
      5 C5          8.1327   -2.0595    1.4659 C.ar      1 <1>        -0.0705
      6 C6          5.6943   -1.7959    1.4089 C.ar      1 <1>        -0.0346
      7 C7          4.7762   -0.7416    1.6747 C.2       1 <1>         0.0099
      8 C8          6.9763   -1.2893    1.6328 C.ar      1 <1>        -0.0358
      9 C9          5.5051    0.3639    2.0483 C.2       1 <1>         0.0093
     10 C10         3.3664   -0.7840    1.5842 C.2       1 <1>         0.0512
     11 C11         2.5879    0.2698    1.2319 C.2       1 <1>         0.1436
     12 C12         1.1122    0.0326    1.1749 C.2       1 <1>         0.1504
     13 C13         6.1729    2.5389    2.7406 C.3       1 <1>         0.0240
     14 C14        -0.9768    1.1140    1.4254 C.3       1 <1>         0.0401
     15 N1          3.5698    2.5873    0.6252 N.1       1 <1>        -0.3967
     16 N2          6.8310    0.0240    2.0198 N.pl3     1 <1>        -0.3262
     17 O1          0.5891   -1.0439    0.9239 O.2       1 <1>        -0.4784
     18 O2          5.1410    1.5904    2.3973 O.3       1 <1>        -0.4522
     19 O3          0.4525    1.1936    1.4449 O.3       1 <1>        -0.4009
     20 H1          6.6053   -4.9540    0.5100 H         1 <1>         0.1245
     21 H2          8.8500   -4.0122    0.9180 H         1 <1>         0.1274
     22 H3          4.5776   -3.5688    0.8138 H         1 <1>         0.1404
     23 H4          9.1194   -1.6458    1.6450 H         1 <1>         0.1387
     24 H5          2.8949   -1.7530    1.7801 H         1 <1>         0.2667
     25 H6          5.7160    3.4962    3.0034 H         1 <1>         0.1347
     26 H7          6.8487    2.6665    1.8912 H         1 <1>         0.1348
     27 H8          6.7346    2.1588    3.5970 H         1 <1>         0.1559
     28 H9         -1.4002    2.0952    1.6536 H         1 <1>         0.1401
     29 H10        -1.3118    0.3803    2.1626 H         1 <1>         0.1403
     30 H11        -1.3019    0.8021    0.4300 H         1 <1>         0.1551
     31 H12         7.5925    0.6471    2.2492 H         1 <1>         0.3128
@<TRIPOS>BOND
     1    1   11 1
     2    1   15 3
     3    2    3 ar
     4    2    4 ar
     5    3    5 ar
     6    4    6 ar
     7    5    8 ar
     8    6    7 1
     9    6    8 ar
    10    7    9 2
    11    7   10 1
    12    8   16 1
    13    9   16 1
    14    9   18 1
    15   10   11 2
    16   11   12 1
    17   12   17 2
    18   12   19 1
    19   13   18 1
    20   14   19 1
    21    2   20 1
    22    3   21 1
    23    4   22 1
    24    5   23 1
    25   10   24 1
    26   13   25 1
    27   13   26 1
    28   13   27 1
    29   14   28 1
    30   14   29 1
    31   14   30 1
    32   16   31 1
@<TRIPOS>Similarity
1.4490
@<TRIPOS>ShapeSim
0.8717
@<TRIPOS>PharmSim
0.5772
# END
# Name:		AD-266/41884718
# Created and modified by SHAFTS on Thu Mar 19 22:43:37 2015

# 

@<TRIPOS>MOLECULE
AD-266/41884718
   34    35     0
SMALL
USER_CHARGE


@<TRIPOS>ATOM
      1 C1          6.7587   -3.9984    1.1016 C.ar      1 <1>        -0.0942
      2 C2          7.9703   -3.3318    0.9300 C.ar      1 <1>        -0.0898
      3 C3          5.5790   -3.2875    1.3501 C.ar      1 <1>        -0.0928
      4 C4          8.0423   -1.9377    1.0009 C.ar      1 <1>        -0.0825
      5 C5          5.3010    0.3474    1.6166 C.2       1 <1>        -0.0634
      6 C6          5.6270   -1.8813    1.4259 C.ar      1 <1>        -0.0862
      7 C7          4.6556   -0.8671    1.6561 C.2       1 <1>        -0.0925
      8 C8          6.8551   -1.2402    1.2499 C.ar      1 <1>        -0.0701
      9 C9          0.4244    0.7518    0.9732 C.3       1 <1>        -0.0561
     10 C10         0.1126   -1.9713   -0.1852 C.3       1 <1>        -0.0445
     11 C11         3.2126   -1.0695    1.8971 C.3       1 <1>        -0.0314
     12 C12         0.4010   -0.5078    1.8113 C.3       1 <1>        -0.0477
     13 C13         2.3960   -1.4165    0.6442 C.3       1 <1>        -0.0388
     14 N1          6.6271    0.1121    1.3707 N.pl3     1 <1>        -0.3665
     15 N2          0.9767   -1.6491    1.0092 N.4       1 <1>         0.4457
     16 H1          6.7279   -5.0830    1.0416 H         1 <1>         0.1173
     17 H2          8.8744   -3.9039    0.7382 H         1 <1>         0.1269
     18 H3          4.6422   -3.8217    1.4806 H         1 <1>         0.1209
     19 H4          8.9862   -1.4199    0.8683 H         1 <1>         0.1335
     20 H5          4.9363    1.3580    1.7396 H         1 <1>         0.1810
     21 H6          1.4544    1.0125    0.7113 H         1 <1>         0.0516
     22 H7         -0.1379    0.6189    0.0431 H         1 <1>         0.0425
     23 H8         -0.0110    1.5970    1.5165 H         1 <1>         0.0424
     24 H9          0.1328   -1.1091   -0.8543 H         1 <1>         0.0625
     25 H10         0.5301   -2.8553   -0.6711 H         1 <1>         0.0624
     26 H11        -0.8994   -2.1634    0.1766 H         1 <1>         0.0625
     27 H12         3.0668   -1.8926    2.6217 H         1 <1>         0.0748
     28 H13         2.7552   -0.1880    2.3849 H         1 <1>         0.0747
     29 H14        -0.6184   -0.7911    2.0872 H         1 <1>         0.0607
     30 H15         1.0140   -0.4061    2.7110 H         1 <1>         0.0614
     31 H16         2.7485   -2.3408    0.1768 H         1 <1>         0.0705
     32 H17         2.4065   -0.6099   -0.0950 H         1 <1>         0.0701
     33 H18         7.3367    0.8272    1.2897 H         1 <1>         0.2810
     34 H19         0.9382   -2.4809    1.6228 H         1 <1>         0.1138
@<TRIPOS>BOND
     1    1    2 ar
     2    1    3 ar
     3    2    4 ar
     4    3    6 ar
     5    4    8 ar
     6    5    7 2
     7    5   14 1
     8    6    7 1
     9    6    8 ar
    10    7   11 1
    11    8   14 1
    12    9   12 1
    13   10   15 1
    14   11   13 1
    15   12   15 1
    16   13   15 1
    17    1   16 1
    18    2   17 1
    19    3   18 1
    20    4   19 1
    21    5   20 1
    22    9   21 1
    23    9   22 1
    24    9   23 1
    25   10   24 1
    26   10   25 1
    27   10   26 1
    28   11   27 1
    29   11   28 1
    30   12   29 1
    31   12   30 1
    32   13   31 1
    33   13   32 1
    34   14   33 1
    35   15   34 1
@<TRIPOS>Similarity
1.4434
@<TRIPOS>ShapeSim
0.8583
@<TRIPOS>PharmSim
0.5852
# END
# Name:		AN-648/41701062
# Created and modified by SHAFTS on Thu Mar 19 22:43:37 2015

# 

@<TRIPOS>MOLECULE
AN-648/41701062
   29    31     0
SMALL
USER_CHARGE


@<TRIPOS>ATOM
      1 C1          8.0623   -3.5633    0.7084 C.ar      1 <1>        -0.0950
      2 C2          6.8633   -4.2545    0.8550 C.ar      1 <1>        -0.0948
      3 C3          8.1061   -2.1863    0.9278 C.ar      1 <1>        -0.0914
      4 C4          5.7034   -3.5711    1.2215 C.ar      1 <1>        -0.0904
      5 C5          6.9743   -0.0963    1.5222 C.ar      1 <1>        -0.0869
      6 C6          5.8145    0.5871    1.8888 C.ar      1 <1>        -0.0825
      7 C7          4.5715   -1.4811    1.8158 C.ar      1 <1>        -0.0790
      8 C8          6.9486   -1.4824    1.2973 C.ar      1 <1>        -0.0874
      9 C9          5.7292   -2.1851    1.4463 C.ar      1 <1>        -0.0853
     10 C10         4.6155   -0.1040    2.0353 C.ar      1 <1>        -0.0658
     11 C11         1.4606   -0.0976    1.0446 C.2       1 <1>         0.0996
     12 C12         2.5901    1.9148    0.4796 C.2       1 <1>         0.1438
     13 C13         0.6427    0.3070   -0.1500 C.3       1 <1>         0.1284
     14 C14         3.3766    0.6283    2.4273 C.3       1 <1>         0.0587
     15 N1          2.4777    0.8174    1.3172 N.am      1 <1>        -0.2628
     16 O1          1.2284   -1.1230    1.6787 O.2       1 <1>        -0.5088
     17 O2          3.4077    2.8219    0.5347 O.2       1 <1>        -0.4718
     18 S1          1.3463    1.8522   -0.7540 S.3       1 <1>        -0.0435
     19 H1          8.9645   -4.0961    0.4228 H         1 <1>         0.1184
     20 H2          6.8298   -5.3264    0.6834 H         1 <1>         0.1179
     21 H3          9.0548   -1.6670    0.8077 H         1 <1>         0.1257
     22 H4          4.7771   -4.1317    1.3300 H         1 <1>         0.1271
     23 H5          7.9006    0.4643    1.4133 H         1 <1>         0.1298
     24 H6          5.8574    1.6599    2.0575 H         1 <1>         0.1298
     25 H7          3.6270   -2.0099    1.9341 H         1 <1>         0.1394
     26 H8          0.7092   -0.4659   -0.9196 H         1 <1>         0.2401
     27 H9         -0.3972    0.4562    0.1505 H         1 <1>         0.2405
     28 H10         2.8264    0.0855    3.2088 H         1 <1>         0.1739
     29 H11         3.6078    1.6221    2.8345 H         1 <1>         0.1723
@<TRIPOS>BOND
     1    1    2 ar
     2    1    3 ar
     3    2    4 ar
     4    3    8 ar
     5    4    9 ar
     6    5    6 ar
     7    5    8 ar
     8    6   10 ar
     9    7    9 ar
    10    7   10 ar
    11    8    9 ar
    12   10   14 1
    13   11   13 1
    14   11   15 am
    15   11   16 2
    16   12   15 am
    17   12   17 2
    18   12   18 1
    19   13   18 1
    20   14   15 1
    21    1   19 1
    22    2   20 1
    23    3   21 1
    24    4   22 1
    25    5   23 1
    26    6   24 1
    27    7   25 1
    28   13   26 1
    29   13   27 1
    30   14   28 1
    31   14   29 1
@<TRIPOS>Similarity
1.4404
@<TRIPOS>ShapeSim
0.9096
@<TRIPOS>PharmSim
0.5308
# END
# Name:		AE-473/30080045
# Created and modified by SHAFTS on Thu Mar 19 22:43:37 2015

# 

@<TRIPOS>MOLECULE
AE-473/30080045
   29    30     0
SMALL
USER_CHARGE


@<TRIPOS>ATOM
      1 C1          6.6748   -3.9675    1.4849 C.ar      1 <1>        -0.0965
      2 C2          7.8754   -3.2665    1.3910 C.ar      1 <1>        -0.0937
      3 C3          5.4500   -3.2904    1.5083 C.ar      1 <1>        -0.0917
      4 C4          7.8915   -1.8707    1.3176 C.ar      1 <1>        -0.0863
      5 C5          5.0196    0.3356    1.3406 C.2       1 <1>        -0.0640
      6 C6          5.4412   -1.8832    1.4354 C.ar      1 <1>        -0.0843
      7 C7          4.4154   -0.8970    1.4332 C.2       1 <1>        -0.0874
      8 C8          6.6596   -1.2072    1.3420 C.ar      1 <1>        -0.0717
      9 C9          2.2857    0.9144    0.2015 C.2       1 <1>        -0.0658
     10 C10         1.8663    1.7548    1.3846 C.3       1 <1>        -0.0119
     11 C11         2.9608   -1.1404    1.5167 C.3       1 <1>        -0.0204
     12 C12         2.1601   -0.5940    0.3204 C.3       1 <1>        -0.0118
     13 N1          2.7790    1.4005   -0.8965 N.2       1 <1>        -0.3834
     14 N2          6.3733    0.1383    1.2859 N.pl3     1 <1>        -0.3688
     15 O1          3.0721    0.3849   -1.8087 O.3       1 <1>        -0.4076
     16 H1          6.6879   -5.0526    1.5401 H         1 <1>         0.1119
     17 H2          8.8152   -3.8126    1.3746 H         1 <1>         0.1198
     18 H3          4.5226   -3.8512    1.5807 H         1 <1>         0.1249
     19 H4          8.8268   -1.3260    1.2457 H         1 <1>         0.1263
     20 H5          4.6088    1.3353    1.3071 H         1 <1>         0.1753
     21 H6          2.7252    1.9062    2.0441 H         1 <1>         0.0972
     22 H7          1.4909    2.7227    1.0419 H         1 <1>         0.0974
     23 H8          1.0725    1.2568    1.9473 H         1 <1>         0.0948
     24 H9          2.7607   -2.2265    1.5822 H         1 <1>         0.0811
     25 H10         2.5398   -0.7219    2.4501 H         1 <1>         0.0830
     26 H11         2.5011   -1.0586   -0.6126 H         1 <1>         0.0943
     27 H12         1.0960   -0.8333    0.4311 H         1 <1>         0.0954
     28 H13         7.0632    0.8733    1.2146 H         1 <1>         0.2733
     29 H14         3.4239    0.8924   -2.5594 H         1 <1>         0.3708
@<TRIPOS>BOND
     1    1    2 ar
     2    1    3 ar
     3    2    4 ar
     4    3    6 ar
     5    4    8 ar
     6    5    7 2
     7    5   14 1
     8    6    7 1
     9    6    8 ar
    10    7   11 1
    11    8   14 1
    12    9   10 1
    13    9   12 1
    14    9   13 2
    15   11   12 1
    16   13   15 1
    17    1   16 1
    18    2   17 1
    19    3   18 1
    20    4   19 1
    21    5   20 1
    22   10   21 1
    23   10   22 1
    24   10   23 1
    25   11   24 1
    26   11   25 1
    27   12   26 1
    28   12   27 1
    29   14   28 1
    30   15   29 1
@<TRIPOS>Similarity
1.4378
@<TRIPOS>ShapeSim
0.8773
@<TRIPOS>PharmSim
0.5605
# END
# Name:		AH-262/10804012
# Created and modified by SHAFTS on Thu Mar 19 22:43:37 2015

# 

@<TRIPOS>MOLECULE
AH-262/10804012
   35    36     0
SMALL
USER_CHARGE


@<TRIPOS>ATOM
      1 C1          6.5639   -4.1163    0.9045 C.ar      1 <1>        -0.0962
      2 C2          7.8207   -3.5222    0.8096 C.ar      1 <1>        -0.0935
      3 C3          5.4289   -3.3497    1.1930 C.ar      1 <1>        -0.0911
      4 C4          7.9840   -2.1470    0.9993 C.ar      1 <1>        -0.0860
      5 C5          5.3882    0.2609    1.7614 C.2       1 <1>        -0.0637
      6 C6          5.5689   -1.9612    1.3882 C.ar      1 <1>        -0.0831
      7 C7          4.6627   -0.9058    1.6876 C.2       1 <1>        -0.0853
      8 C8          6.8407   -1.3931    1.2870 C.ar      1 <1>        -0.0712
      9 C9          2.5179    0.5112   -1.4433 C.2       1 <1>        -0.0031
     10 C10         2.7300    0.9166   -3.9269 C.3       1 <1>        -0.0361
     11 C11         0.8464   -0.3123    1.2066 C.3       1 <1>        -0.0423
     12 C12         3.2043   -1.0285    1.8872 C.3       1 <1>        -0.0151
     13 C13         2.8600   -0.0868   -2.7954 C.3       1 <1>         0.0109
     14 C14         2.3437   -0.1309    0.9570 C.3       1 <1>        -0.0037
     15 N1          6.7008   -0.0432    1.5181 N.pl3     1 <1>        -0.3686
     16 N2          2.6169   -0.4364   -0.4505 N.am      1 <1>        -0.3565
     17 O1          2.2011    1.6878   -1.2898 O.2       1 <1>        -0.5766
     18 H1          6.4621   -5.1876    0.7524 H         1 <1>         0.1124
     19 H2          8.6887   -4.1365    0.5847 H         1 <1>         0.1201
     20 H3          4.4559   -3.8277    1.2627 H         1 <1>         0.1253
     21 H4          8.9629   -1.6854    0.9263 H         1 <1>         0.1264
     22 H5          5.0892    1.2803    1.9634 H         1 <1>         0.1735
     23 H6          1.7103    1.3114   -3.9874 H         1 <1>         0.0565
     24 H7          3.4134    1.7568   -3.7718 H         1 <1>         0.0562
     25 H8          2.9692    0.4554   -4.8909 H         1 <1>         0.0561
     26 H9          0.5470   -1.3547    1.0477 H         1 <1>         0.0520
     27 H10         0.2470    0.3160    0.5379 H         1 <1>         0.0505
     28 H11         0.5836   -0.0553    2.2378 H         1 <1>         0.0541
     29 H12         2.8679   -2.0801    1.7731 H         1 <1>         0.0889
     30 H13         2.9597   -0.7807    2.9404 H         1 <1>         0.0932
     31 H14         3.8878   -0.4657   -2.7570 H         1 <1>         0.1219
     32 H15         2.1922   -0.9359   -2.9792 H         1 <1>         0.1227
     33 H16         2.5990    0.9217    1.1264 H         1 <1>         0.1133
     34 H17         7.4582    0.6260    1.5093 H         1 <1>         0.2731
     35 H18         2.8869   -1.3733   -0.6997 H         1 <1>         0.2643
@<TRIPOS>BOND
     1    1    2 ar
     2    1    3 ar
     3    2    4 ar
     4    3    6 ar
     5    4    8 ar
     6    5    7 2
     7    5   15 1
     8    6    7 1
     9    6    8 ar
    10    7   12 1
    11    8   15 1
    12    9   13 1
    13    9   16 am
    14    9   17 2
    15   10   13 1
    16   11   14 1
    17   12   14 1
    18   14   16 1
    19    1   18 1
    20    2   19 1
    21    3   20 1
    22    4   21 1
    23    5   22 1
    24   10   23 1
    25   10   24 1
    26   10   25 1
    27   11   26 1
    28   11   27 1
    29   11   28 1
    30   12   29 1
    31   12   30 1
    32   13   31 1
    33   13   32 1
    34   14   33 1
    35   15   34 1
    36   16   35 1
@<TRIPOS>Similarity
1.4342
@<TRIPOS>ShapeSim
0.8210
@<TRIPOS>PharmSim
0.6132
# END
# Name:		AE-641/00364007
# Created and modified by SHAFTS on Thu Mar 19 22:43:37 2015

# 

@<TRIPOS>MOLECULE
AE-641/00364007
   26    27     0
SMALL
USER_CHARGE


@<TRIPOS>ATOM
      1 C1          6.2401   -3.9921    1.2384 C.ar      1 <1>        -0.1689
      2 C2          7.5491   -3.5182    1.2967 C.ar      1 <1>        -0.1213
      3 C3          5.1564   -3.1063    1.2490 C.ar      1 <1>        -0.0624
      4 C4          7.8173   -2.1482    1.3671 C.ar      1 <1>        -0.1342
      5 C5          5.4021   -1.7207    1.3196 C.ar      1 <1>        -0.1000
      6 C6          4.5702   -0.5665    1.3497 C.2       1 <1>        -0.1286
      7 C7          6.7242   -1.2745    1.3770 C.ar      1 <1>         0.0780
      8 C8          5.3882    0.5374    1.4236 C.2       1 <1>         0.0295
      9 C9          4.9482    1.9993    1.4805 C.2       1 <1>         0.5409
     10 C10         2.9621    0.1885   -1.1801 C.2       1 <1>         0.4969
     11 C11         3.0924   -0.5581    1.3095 C.3       1 <1>        -0.0204
     12 C12         2.5260   -0.8034   -0.0968 C.3       1 <1>        -0.1608
     13 N1          6.6856    0.1003    1.4394 N.pl3     1 <1>        -0.5695
     14 O1          5.8666    2.8623    1.5462 O.co2     1 <1>        -0.5000
     15 O2          2.5945    1.3800   -0.9655 O.co2     1 <1>        -0.5000
     16 O3          3.7053    2.2155    1.4574 O.co2     1 <1>        -0.5000
     17 O4          3.6259   -0.2813   -2.1443 O.co2     1 <1>        -0.5000
     18 H1          6.0565   -5.0618    1.1842 H         1 <1>         0.1092
     19 H2          8.3763   -4.2241    1.2880 H         1 <1>         0.1103
     20 H3          4.1417   -3.4913    1.2034 H         1 <1>         0.1177
     21 H4          8.8372   -1.7808    1.4123 H         1 <1>         0.1074
     22 H5          2.6794   -1.3201    1.9960 H         1 <1>         0.0921
     23 H6          2.6973    0.4023    1.6886 H         1 <1>         0.0465
     24 H7          1.4292   -0.7843   -0.0542 H         1 <1>         0.0399
     25 H8          2.8129   -1.8080   -0.4333 H         1 <1>         0.0583
     26 H9          7.4988    0.6984    1.4887 H         1 <1>         0.4129
@<TRIPOS>BOND
     1    1    2 ar
     2    1    3 ar
     3    2    4 ar
     4    3    5 ar
     5    4    7 ar
     6    5    6 1
     7    5    7 ar
     8    6    8 2
     9    6   11 1
    10    7   13 1
    11    8    9 1
    12    8   13 1
    13    9   14 1
    14    9   16 2
    15   10   12 1
    16   10   15 1
    17   10   17 2
    18   11   12 1
    19    1   18 1
    20    2   19 1
    21    3   20 1
    22    4   21 1
    23   11   22 1
    24   11   23 1
    25   12   24 1
    26   12   25 1
    27   13   26 1
@<TRIPOS>Similarity
1.4182
@<TRIPOS>ShapeSim
0.7500
@<TRIPOS>PharmSim
0.6682
# END
# Name:		AF-399/13479018
# Created and modified by SHAFTS on Thu Mar 19 22:43:37 2015

# 

@<TRIPOS>MOLECULE
AF-399/13479018
   29    31     0
SMALL
USER_CHARGE


@<TRIPOS>ATOM
      1 C1          6.8134   -4.0118    1.0928 C.ar      1 <1>        -0.0976
      2 C2          7.9948   -3.2925    0.9275 C.ar      1 <1>        -0.0948
      3 C3          5.6037   -3.3542    1.3436 C.ar      1 <1>        -0.0916
      4 C4          8.0062   -1.8971    1.0076 C.ar      1 <1>        -0.0861
      5 C5          5.5882   -1.9472    1.4280 C.ar      1 <1>        -0.0879
      6 C6          4.5746   -0.9752    1.6622 C.2       1 <1>        -0.1011
      7 C7          6.7903   -1.2513    1.2595 C.ar      1 <1>        -0.0742
      8 C8          5.1795    0.2641    1.6360 C.2       1 <1>        -0.0901
      9 C9          3.1158   -1.1503    1.9234 C.3       1 <1>        -0.0371
     10 C10         4.5088    1.5785    1.8068 C.3       1 <1>        -0.0286
     11 C11         3.0969    1.3691    2.3866 C.3       1 <1>        -0.0460
     12 C12         2.3336    0.1777    1.7534 C.3       1 <1>        -0.0508
     13 C13         2.0003    0.4431    0.2813 C.3       1 <1>        -0.0627
     14 N1          6.5112    0.0924    1.3898 N.pl3     1 <1>        -0.3768
     15 H1          6.8299   -5.0965    1.0266 H         1 <1>         0.1085
     16 H2          8.9232   -3.8234    0.7324 H         1 <1>         0.1164
     17 H3          4.6906   -3.9288    1.4713 H         1 <1>         0.1287
     18 H4          8.9272   -1.3388    0.8777 H         1 <1>         0.1295
     19 H5          2.7283   -1.9060    1.2244 H         1 <1>         0.0695
     20 H6          2.9581   -1.5413    2.9386 H         1 <1>         0.0695
     21 H7          5.0985    2.1946    2.4956 H         1 <1>         0.0839
     22 H8          4.4428    2.1136    0.8535 H         1 <1>         0.0822
     23 H9          3.1767    1.2331    3.4782 H         1 <1>         0.0553
     24 H10         2.5064    2.2913    2.2392 H         1 <1>         0.0569
     25 H11         1.3726    0.0766    2.2990 H         1 <1>         0.0514
     26 H12         2.9197    0.5490   -0.2922 H         1 <1>         0.0344
     27 H13         1.4180    1.3590    0.1940 H         1 <1>         0.0341
     28 H14         1.4221   -0.3868   -0.1218 H         1 <1>         0.0341
     29 H15         7.1934    0.8350    1.3158 H         1 <1>         0.2709
@<TRIPOS>BOND
     1    1    2 ar
     2    1    3 ar
     3    2    4 ar
     4    3    5 ar
     5    4    7 ar
     6    5    6 1
     7    5    7 ar
     8    6    8 2
     9    6    9 1
    10    7   14 1
    11    8   10 1
    12    8   14 1
    13    9   12 1
    14   10   11 1
    15   11   12 1
    16   12   13 1
    17    1   15 1
    18    2   16 1
    19    3   17 1
    20    4   18 1
    21    9   19 1
    22    9   20 1
    23   10   21 1
    24   10   22 1
    25   11   23 1
    26   11   24 1
    27   12   25 1
    28   13   26 1
    29   13   27 1
    30   13   28 1
    31   14   29 1
@<TRIPOS>Similarity
1.4132
@<TRIPOS>ShapeSim
0.8287
@<TRIPOS>PharmSim
0.5845
# END
# Name:		AE-641/00851021
# Created and modified by SHAFTS on Thu Mar 19 22:43:37 2015

# 

@<TRIPOS>MOLECULE
AE-641/00851021
   27    28     0
SMALL
USER_CHARGE


@<TRIPOS>ATOM
      1 C1          5.8629   -3.6784    0.6399 C.ar      1 <1>        -0.1549
      2 C2          7.2172   -3.3786    0.5075 C.ar      1 <1>        -0.1039
      3 C3          4.9565   -2.7129    1.0928 C.ar      1 <1>        -0.0628
      4 C4          7.7085   -2.1084    0.8221 C.ar      1 <1>        -0.1370
      5 C5          5.4284   -1.4252    1.4161 C.ar      1 <1>        -0.0994
      6 C6          4.8122   -0.2337    1.8911 C.2       1 <1>        -0.1457
      7 C7          6.7908   -1.1532    1.2737 C.ar      1 <1>         0.0956
      8 C8          5.7941    0.7206    2.0257 C.2       1 <1>         0.0634
      9 C9          2.8905    1.3105    0.0249 C.2       1 <1>         0.4587
     10 C10         5.7262    2.1243    2.4764 C.3       1 <1>        -0.0909
     11 C11         3.3761   -0.0522    2.1891 C.3       1 <1>        -0.0279
     12 C12         2.5169    0.1312    0.9291 C.3       1 <1>        -0.1474
     13 N1          6.9840    0.1568    1.6506 N.pl3     1 <1>        -0.5965
     14 O1          2.7695    2.4420    0.5781 O.co2     1 <1>        -0.5000
     15 O2          3.2704    1.0297   -1.1445 O.co2     1 <1>        -0.5000
     16 H1          5.5049   -4.6730    0.3881 H         1 <1>         0.1189
     17 H2          7.9036   -4.1438    0.1541 H         1 <1>         0.1199
     18 H3          3.9038   -2.9624    1.1903 H         1 <1>         0.1233
     19 H4          8.7629   -1.8752    0.7181 H         1 <1>         0.1142
     20 H5          5.8700    2.1990    3.5668 H         1 <1>         0.0760
     21 H6          6.4946    2.7520    1.9935 H         1 <1>         0.0617
     22 H7          4.7558    2.5905    2.2338 H         1 <1>         0.0880
     23 H8          2.9844   -0.9125    2.7627 H         1 <1>         0.0682
     24 H9          3.2217    0.8186    2.8529 H         1 <1>         0.0679
     25 H10         1.4669    0.2599    1.2223 H         1 <1>         0.0619
     26 H11         2.5666   -0.7809    0.3204 H         1 <1>         0.0604
     27 H12         7.8770    0.6303    1.6490 H         1 <1>         0.4093
@<TRIPOS>BOND
     1    1    2 ar
     2    1    3 ar
     3    2    4 ar
     4    3    5 ar
     5    4    7 ar
     6    5    6 1
     7    5    7 ar
     8    6    8 2
     9    6   11 1
    10    7   13 1
    11    8   10 1
    12    8   13 1
    13    9   12 1
    14    9   14 1
    15    9   15 2
    16   11   12 1
    17    1   16 1
    18    2   17 1
    19    3   18 1
    20    4   19 1
    21   10   20 1
    22   10   21 1
    23   10   22 1
    24   11   23 1
    25   11   24 1
    26   12   25 1
    27   12   26 1
    28   13   27 1
@<TRIPOS>Similarity
1.4076
@<TRIPOS>ShapeSim
0.8034
@<TRIPOS>PharmSim
0.6042
# END
# Name:		AN-652/40071745
# Created and modified by SHAFTS on Thu Mar 19 22:43:37 2015

# 

@<TRIPOS>MOLECULE
AN-652/40071745
   28    29     0
SMALL
USER_CHARGE


@<TRIPOS>ATOM
      1 C1          8.1154   -3.4443    1.2379 C.ar      1 <1>        -0.0896
      2 C2          6.9805   -4.1820    1.5611 C.ar      1 <1>        -0.0883
      3 C3          8.0120   -2.0744    0.9943 C.ar      1 <1>        -0.0840
      4 C4          5.7380   -3.5530    1.6420 C.ar      1 <1>        -0.0786
      5 C5          6.6468   -0.0467    0.8292 C.ar      1 <1>        -0.0596
      6 C6          5.4042    0.5825    0.9101 C.ar      1 <1>        -0.0237
      7 C7          4.3725   -1.5253    1.4769 C.ar      1 <1>        -0.0166
      8 C8          6.7693   -1.4246    1.0712 C.ar      1 <1>        -0.0701
      9 C9          5.6152   -2.1750    1.3998 C.ar      1 <1>        -0.0573
     10 C10         4.2692   -0.1554    1.2333 C.ar      1 <1>         0.0491
     11 C11         0.0898    0.5982    1.9248 C.3       1 <1>         0.0111
     12 C12         0.7521    1.4765    0.8869 C.3       1 <1>         0.1047
     13 O1          2.6209    1.5236   -0.9362 O.2       1 <1>        -0.4988
     14 O2          1.5346   -0.6913   -0.3404 O.2       1 <1>        -0.4988
     15 O3          3.0578    0.4600    1.3119 O.3       1 <1>        -0.3299
     16 S1          2.0455    0.6125    0.0329 S.o2      1 <1>        -0.1880
     17 H1          9.0822   -3.9348    1.1745 H         1 <1>         0.1246
     18 H2          7.0614   -5.2485    1.7510 H         1 <1>         0.1252
     19 H3          8.9118   -1.5168    0.7427 H         1 <1>         0.1323
     20 H4          4.8641   -4.1497    1.8956 H         1 <1>         0.1371
     21 H5          7.5205    0.5497    0.5742 H         1 <1>         0.1522
     22 H6          5.3294    1.6494    0.7188 H         1 <1>         0.1690
     23 H7          3.4752   -2.0878    1.7287 H         1 <1>         0.1914
     24 H8         -0.3599   -0.2799    1.4522 H         1 <1>         0.1036
     25 H9          0.8160    0.2538    2.6685 H         1 <1>         0.0999
     26 H10        -0.6971    1.1433    2.4561 H         1 <1>         0.0998
     27 H11         1.2046    2.3572    1.3508 H         1 <1>         0.2633
     28 H12         0.0309    1.8038    0.1334 H         1 <1>         0.2646
@<TRIPOS>BOND
     1    1    2 ar
     2    1    3 ar
     3    2    4 ar
     4    3    8 ar
     5    4    9 ar
     6    5    6 ar
     7    5    8 ar
     8    6   10 ar
     9    7    9 ar
    10    7   10 ar
    11    8    9 ar
    12   10   15 1
    13   11   12 1
    14   12   16 1
    15   13   16 2
    16   14   16 2
    17   15   16 1
    18    1   17 1
    19    2   18 1
    20    3   19 1
    21    4   20 1
    22    5   21 1
    23    6   22 1
    24    7   23 1
    25   11   24 1
    26   11   25 1
    27   11   26 1
    28   12   27 1
    29   12   28 1
@<TRIPOS>Similarity
1.4073
@<TRIPOS>ShapeSim
0.8650
@<TRIPOS>PharmSim
0.5422
# END
# Name:		ZINC00054337
# Created and modified by SHAFTS on Thu Mar 19 22:43:37 2015

# 

@<TRIPOS>MOLECULE
ZINC00054337
   35    37     0
SMALL
USER_CHARGE


@<TRIPOS>ATOM
      1 C1          6.5241   -3.9466    1.4032 C.ar      1 <1>        -0.0948
      2 C2          7.7991   -3.5039    1.0566 C.ar      1 <1>        -0.0918
      3 C3          5.4669   -3.0413    1.5505 C.ar      1 <1>        -0.0896
      4 C4          8.0586   -2.1465    0.8467 C.ar      1 <1>        -0.0841
      5 C5          5.6879    0.5796    1.1012 C.2       1 <1>        -0.0570
      6 C6          5.7044   -1.6678    1.3440 C.ar      1 <1>        -0.0781
      7 C7          4.8922   -0.5009    1.4055 C.2       1 <1>        -0.0699
      8 C8          6.9922   -1.2529    0.9977 C.ar      1 <1>        -0.0686
      9 C9          2.5980    1.7143    0.7533 C.2       1 <1>         0.0741
     10 C10         0.4370    1.0603    0.9257 C.2       1 <1>        -0.0163
     11 C11        -0.1661    4.3138    3.1968 C.2       1 <1>        -0.1076
     12 C12         0.9041    3.8830    2.5197 C.2       1 <1>        -0.0917
     13 C13         2.6087    0.1958    0.6395 C.3       1 <1>         0.0890
     14 C14         3.4232   -0.4457    1.7438 C.3       1 <1>         0.0232
     15 C15         0.8850    3.5292    1.0686 C.3       1 <1>         0.0329
     16 N1          6.9526    0.1160    0.8565 N.pl3     1 <1>        -0.3655
     17 N2          1.2030   -0.0878    0.7626 N.pl3     1 <1>        -0.3192
     18 N3          1.2945    2.1402    0.9201 N.am      1 <1>        -0.3246
     19 O1          3.6084    2.4045    0.7035 O.2       1 <1>        -0.5106
     20 S1         -1.2197    1.0365    1.0863 S.2       1 <1>        -0.2215
     21 H1          6.3469   -5.0071    1.5606 H         1 <1>         0.1148
     22 H2          8.6057   -4.2244    0.9476 H         1 <1>         0.1227
     23 H3          4.4785   -3.4022    1.8200 H         1 <1>         0.1260
     24 H4          9.0517   -1.8026    0.5782 H         1 <1>         0.1293
     25 H5          5.4681    1.6362    1.0352 H         1 <1>         0.1808
     26 H6         -0.0864    4.5611    4.2497 H         1 <1>         0.0958
     27 H7         -1.1331    4.4260    2.7188 H         1 <1>         0.0945
     28 H8          1.8513    3.7945    3.0462 H         1 <1>         0.1029
     29 H9          2.9419   -0.1058   -0.3573 H         1 <1>         0.2262
     30 H10         3.0556   -1.4624    1.9408 H         1 <1>         0.1210
     31 H11         3.2857    0.1078    2.6833 H         1 <1>         0.1277
     32 H12         1.5882    4.1658    0.5229 H         1 <1>         0.1635
     33 H13        -0.1070    3.6539    0.6226 H         1 <1>         0.1590
     34 H14         7.7433    0.6943    0.6082 H         1 <1>         0.2779
     35 H15         0.8065   -1.0204    0.7032 H         1 <1>         0.3295
@<TRIPOS>BOND
     1    1    2 ar
     2    1    3 ar
     3    2    4 ar
     4    3    6 ar
     5    4    8 ar
     6    5    7 2
     7    5   16 1
     8    6    7 1
     9    6    8 ar
    10    7   14 1
    11    8   16 1
    12    9   13 1
    13    9   18 am
    14    9   19 2
    15   10   17 1
    16   10   18 1
    17   10   20 2
    18   11   12 2
    19   12   15 1
    20   13   14 1
    21   13   17 1
    22   15   18 1
    23    1   21 1
    24    2   22 1
    25    3   23 1
    26    4   24 1
    27    5   25 1
    28   11   26 1
    29   11   27 1
    30   12   28 1
    31   13   29 1
    32   14   30 1
    33   14   31 1
    34   15   32 1
    35   15   33 1
    36   16   34 1
    37   17   35 1
@<TRIPOS>Similarity
1.4051
@<TRIPOS>ShapeSim
0.8397
@<TRIPOS>PharmSim
0.5654
# END
# Name:		AE-848/00990055
# Created and modified by SHAFTS on Thu Mar 19 22:43:37 2015

# 

@<TRIPOS>MOLECULE
AE-848/00990055
   21    21     0
SMALL
USER_CHARGE


@<TRIPOS>ATOM
      1 C1          7.5393   -3.2949    0.6959 C.ar      1 <1>        -0.1354
      2 C2          6.3450   -3.7227    1.2753 C.ar      1 <1>        -0.1002
      3 C3          7.8018   -1.9313    0.5646 C.ar      1 <1>        -0.1059
      4 C4          5.4127   -2.7869    1.7236 C.ar      1 <1>        -0.1336
      5 C5          6.8696   -0.9954    1.0128 C.ar      1 <1>        -0.1071
      6 C6          5.6751   -1.4232    1.5923 C.ar      1 <1>        -0.0717
      7 C7          2.8141    1.6691    0.0583 C.2       1 <1>         0.4686
      8 C8          2.1813    0.5060    0.8324 C.3       1 <1>        -0.1451
      9 C9          3.0740   -0.6901    1.1345 C.3       1 <1>        -0.0705
     10 O1          3.7327    2.3006    0.6494 O.co2     1 <1>        -0.5000
     11 O2          2.3378    1.8425   -1.1004 O.co2     1 <1>        -0.5000
     12 S1          4.4837   -0.2276    2.1644 S.3       1 <1>        -0.1469
     13 H1          8.2648   -4.0241    0.3470 H         1 <1>         0.1205
     14 H2          6.1402   -4.7845    1.3773 H         1 <1>         0.1235
     15 H3          8.7321   -1.5990    0.1133 H         1 <1>         0.1232
     16 H4          4.4874   -3.1396    2.1723 H         1 <1>         0.1297
     17 H5          7.0918    0.0632    0.9016 H         1 <1>         0.1250
     18 H6          1.7389    0.8895    1.7609 H         1 <1>         0.0762
     19 H7          1.3435    0.1575    0.2141 H         1 <1>         0.0762
     20 H8          3.4513   -1.1464    0.2141 H         1 <1>         0.0887
     21 H9          2.5006   -1.4520    1.6723 H         1 <1>         0.0888
@<TRIPOS>BOND
     1    1    2 ar
     2    1    3 ar
     3    2    4 ar
     4    3    5 ar
     5    4    6 ar
     6    5    6 ar
     7    6   12 1
     8    7    8 1
     9    7   10 1
    10    7   11 2
    11    8    9 1
    12    9   12 1
    13    1   13 1
    14    2   14 1
    15    3   15 1
    16    4   16 1
    17    5   17 1
    18    8   18 1
    19    8   19 1
    20    9   20 1
    21    9   21 1
@<TRIPOS>Similarity
1.4001
@<TRIPOS>ShapeSim
0.8524
@<TRIPOS>PharmSim
0.5477
# END
# Name:		AN-858/37395001
# Created and modified by SHAFTS on Thu Mar 19 22:43:37 2015

# 

@<TRIPOS>MOLECULE
AN-858/37395001
   38    40     0
SMALL
USER_CHARGE


@<TRIPOS>ATOM
      1 C1          6.7756   -3.9592    1.0657 C.ar      1 <1>        -0.0963
      2 C2          7.9663   -3.2372    1.1005 C.ar      1 <1>        -0.0938
      3 C3          5.5399   -3.3049    1.1209 C.ar      1 <1>        -0.0888
      4 C4          7.9604   -1.8427    1.1905 C.ar      1 <1>        -0.0846
      5 C5          5.5058   -1.8982    1.2136 C.ar      1 <1>        -0.0814
      6 C6          4.4629   -0.9279    1.2898 C.2       1 <1>        -0.0854
      7 C7          6.7180   -1.2005    1.2452 C.ar      1 <1>        -0.0708
      8 C8          5.0638    0.3124    1.3495 C.2       1 <1>        -0.0797
      9 C9          2.1647    0.4851   -0.4694 C.2       1 <1>         0.0487
     10 C10         4.3833    1.6310    1.3797 C.3       1 <1>        -0.0131
     11 C11         2.8903    1.4501    1.7080 C.3       1 <1>        -0.0077
     12 C12         2.9709   -1.1113    1.3024 C.3       1 <1>        -0.0047
     13 C13         2.2417    0.2331    1.0111 C.3       1 <1>         0.0400
     14 C14         2.5061   -1.6863    2.6460 C.3       1 <1>        -0.0434
     15 C15         3.0488   -1.8221   -2.4085 C.3       1 <1>        -0.0286
     16 C16         1.9130   -0.8214   -2.4223 C.3       1 <1>         0.0175
     17 N1          6.4183    0.1415    1.3307 N.pl3     1 <1>        -0.3729
     18 O1          2.6233    1.4767   -1.0204 O.2       1 <1>        -0.5315
     19 O2          1.5147   -0.5495   -1.0749 O.3       1 <1>        -0.4370
     20 H1          6.8048   -5.0433    0.9949 H         1 <1>         0.1095
     21 H2          8.9152   -3.7654    1.0564 H         1 <1>         0.1173
     22 H3          4.6202   -3.8826    1.0918 H         1 <1>         0.1315
     23 H4          8.8886   -1.2817    1.2159 H         1 <1>         0.1307
     24 H5          4.8458    2.2942    2.1191 H         1 <1>         0.0947
     25 H6          4.4879    2.1098    0.3987 H         1 <1>         0.0956
     26 H7          2.7807    1.3277    2.7936 H         1 <1>         0.0921
     27 H8          2.3554    2.3707    1.4443 H         1 <1>         0.0875
     28 H9          2.7074   -1.8355    0.5195 H         1 <1>         0.1038
     29 H10         1.1979    0.1612    1.3432 H         1 <1>         0.1629
     30 H11         2.7532   -0.9905    3.4432 H         1 <1>         0.0518
     31 H12         3.0045   -2.6349    2.8264 H         1 <1>         0.0509
     32 H13         1.4309   -1.8415    2.6217 H         1 <1>         0.0474
     33 H14         3.9103   -1.4269   -1.8630 H         1 <1>         0.0655
     34 H15         2.7321   -2.7590   -1.9385 H         1 <1>         0.0655
     35 H16         3.3593   -2.0674   -3.4296 H         1 <1>         0.0705
     36 H17         1.0546   -1.2227   -2.9692 H         1 <1>         0.1312
     37 H18         2.2311    0.1144   -2.8914 H         1 <1>         0.1312
     38 H19         7.1019    0.8858    1.3592 H         1 <1>         0.2737
@<TRIPOS>BOND
     1    1    2 ar
     2    1    3 ar
     3    2    4 ar
     4    3    5 ar
     5    4    7 ar
     6    5    6 1
     7    5    7 ar
     8    6    8 2
     9    6   12 1
    10    7   17 1
    11    8   10 1
    12    8   17 1
    13    9   13 1
    14    9   18 2
    15    9   19 1
    16   10   11 1
    17   11   13 1
    18   12   13 1
    19   12   14 1
    20   15   16 1
    21   16   19 1
    22    1   20 1
    23    2   21 1
    24    3   22 1
    25    4   23 1
    26   10   24 1
    27   10   25 1
    28   11   26 1
    29   11   27 1
    30   12   28 1
    31   13   29 1
    32   14   30 1
    33   14   31 1
    34   14   32 1
    35   15   33 1
    36   15   34 1
    37   15   35 1
    38   16   36 1
    39   16   37 1
    40   17   38 1
@<TRIPOS>Similarity
1.3974
@<TRIPOS>ShapeSim
0.8152
@<TRIPOS>PharmSim
0.5823
# END
# Name:		AI-981/34479008
# Created and modified by SHAFTS on Thu Mar 19 22:43:37 2015

# 

@<TRIPOS>MOLECULE
AI-981/34479008
   26    27     0
SMALL
USER_CHARGE


@<TRIPOS>ATOM
      1 C1          6.7587   -3.9985    1.1016 C.ar      1 <1>        -0.0887
      2 C2          7.9703   -3.3319    0.9301 C.ar      1 <1>        -0.0874
      3 C3          5.5790   -3.2875    1.3501 C.ar      1 <1>        -0.0767
      4 C4          8.0424   -1.9377    1.0009 C.ar      1 <1>        -0.0760
      5 C5          5.3009    0.3474    1.6167 C.2       1 <1>        -0.0214
      6 C6          5.6269   -1.8813    1.4259 C.ar      1 <1>        -0.0489
      7 C7          4.6557   -0.8671    1.6561 C.2       1 <1>        -0.0229
      8 C8          6.8551   -1.2402    1.2499 C.ar      1 <1>        -0.0492
      9 C9          3.2484   -1.0251    1.8914 C.2       1 <1>        -0.0142
     10 C10         1.1422   -1.0900   -0.1846 C.3       1 <1>        -0.0313
     11 C11         1.1535   -0.1299    0.9859 C.3       1 <1>         0.0077
     12 N1          2.6941   -2.0680    2.4745 N.2       1 <1>        -0.3949
     13 N2          6.6271    0.1121    1.3707 N.pl3     1 <1>        -0.3455
     14 O1          2.5047    0.0383    1.4397 O.3       1 <1>        -0.4646
     15 H1          6.7281   -5.0833    1.0412 H         1 <1>         0.1204
     16 H2          8.8747   -3.9038    0.7383 H         1 <1>         0.1261
     17 H3          4.6425   -3.8217    1.4811 H         1 <1>         0.1323
     18 H4          8.9864   -1.4203    0.8674 H         1 <1>         0.1357
     19 H5          4.9385    1.3586    1.7408 H         1 <1>         0.2255
     20 H6          1.7427   -0.7032   -1.0124 H         1 <1>         0.0639
     21 H7          1.5383   -2.0665    0.1134 H         1 <1>         0.0694
     22 H8          0.1191   -1.2559   -0.5376 H         1 <1>         0.0639
     23 H9          0.5511   -0.5228    1.8104 H         1 <1>         0.1286
     24 H10         0.7583    0.8453    0.6862 H         1 <1>         0.1286
     25 H11         3.3694   -2.7813    2.7564 H         1 <1>         0.2259
     26 H12         7.3365    0.8275    1.2902 H         1 <1>         0.2938
@<TRIPOS>BOND
     1    1    2 ar
     2    1    3 ar
     3    2    4 ar
     4    3    6 ar
     5    4    8 ar
     6    5    7 2
     7    5   13 1
     8    6    7 1
     9    6    8 ar
    10    7    9 1
    11    8   13 1
    12    9   12 2
    13    9   14 1
    14   10   11 1
    15   11   14 1
    16    1   15 1
    17    2   16 1
    18    3   17 1
    19    4   18 1
    20    5   19 1
    21   10   20 1
    22   10   21 1
    23   10   22 1
    24   11   23 1
    25   11   24 1
    26   12   25 1
    27   13   26 1
@<TRIPOS>Similarity
1.3901
@<TRIPOS>ShapeSim
0.8665
@<TRIPOS>PharmSim
0.5236
# END
# Name:		AE-842/33001023
# Created and modified by SHAFTS on Thu Mar 19 22:43:37 2015

# 

@<TRIPOS>MOLECULE
AE-842/33001023
   25    26     0
SMALL
USER_CHARGE


@<TRIPOS>ATOM
      1 C1          7.9504   -3.5591    1.2682 C.ar      1 <1>        -0.0916
      2 C2          6.7684   -4.1875    0.8875 C.ar      1 <1>        -0.0910
      3 C3          7.9564   -2.1918    1.5461 C.ar      1 <1>        -0.0856
      4 C4          5.5880   -3.4512    0.7833 C.ar      1 <1>        -0.0835
      5 C5          6.7652   -0.0582    1.7223 C.ar      1 <1>        -0.0681
      6 C6          5.5847    0.6781    1.6180 C.ar      1 <1>        -0.0501
      7 C7          4.3966   -1.3175    0.9593 C.ar      1 <1>        -0.0476
      8 C8          6.7774   -1.4352    1.4463 C.ar      1 <1>        -0.0747
      9 C9          5.5756   -2.0742    1.0592 C.ar      1 <1>        -0.0690
     10 C10         4.4028    0.0497    1.2373 C.ar      1 <1>        -0.0075
     11 C11         3.0109    1.9605    1.9879 C.3       1 <1>         0.0488
     12 N1          3.2099    0.7951    1.1329 N.pl3     1 <1>        -0.2630
     13 N2          2.4439    0.6607   -0.0258 N.pl3     1 <1>        -0.0642
     14 O1          1.5798   -0.2254   -0.0157 O.3       1 <1>        -0.1637
     15 O2          2.6524    1.4333   -0.9705 O.2       1 <1>        -0.3302
     16 H1          8.8691   -4.1327    1.3488 H         1 <1>         0.1215
     17 H2          6.7646   -5.2520    0.6716 H         1 <1>         0.1220
     18 H3          8.8918   -1.7206    1.8407 H         1 <1>         0.1311
     19 H4          4.6763   -3.9636    0.4829 H         1 <1>         0.1314
     20 H5          7.6776    0.4533    2.0216 H         1 <1>         0.1496
     21 H6          5.5998    1.7428    1.8371 H         1 <1>         0.1584
     22 H7          3.4661   -1.7988    0.6626 H         1 <1>         0.1676
     23 H8          3.3952    2.8577    1.4955 H         1 <1>         0.1471
     24 H9          3.5371    1.8273    2.9370 H         1 <1>         0.1558
     25 H10         1.9464    2.1008    2.1939 H         1 <1>         0.1568
@<TRIPOS>BOND
     1    1    2 ar
     2    1    3 ar
     3    2    4 ar
     4    3    8 ar
     5    4    9 ar
     6    5    6 ar
     7    5    8 ar
     8    6   10 ar
     9    7    9 ar
    10    7   10 ar
    11    8    9 ar
    12   10   12 1
    13   11   12 1
    14   12   13 1
    15   13   14 1
    16   13   15 2
    17    1   16 1
    18    2   17 1
    19    3   18 1
    20    4   19 1
    21    5   20 1
    22    6   21 1
    23    7   22 1
    24   11   23 1
    25   11   24 1
    26   11   25 1
@<TRIPOS>Similarity
1.3846
@<TRIPOS>ShapeSim
0.8099
@<TRIPOS>PharmSim
0.5747
# END
# Name:		AE-473/30364041
# Created and modified by SHAFTS on Thu Mar 19 22:43:37 2015

# 

@<TRIPOS>MOLECULE
AE-473/30364041
   29    31     0
SMALL
USER_CHARGE


@<TRIPOS>ATOM
      1 C1          6.8132   -4.0120    1.0925 C.ar      1 <1>        -0.0903
      2 C2          7.9947   -3.2925    0.9280 C.ar      1 <1>        -0.0862
      3 C3          5.6032   -3.3549    1.3428 C.ar      1 <1>        -0.0880
      4 C4          8.0062   -1.8971    1.0086 C.ar      1 <1>        -0.0785
      5 C5          5.5879   -1.9480    1.4278 C.ar      1 <1>        -0.0857
      6 C6          4.5767   -0.9764    1.6618 C.2       1 <1>        -0.0973
      7 C7          6.7902   -1.2512    1.2598 C.ar      1 <1>        -0.0696
      8 C8          5.1797    0.2624    1.6358 C.2       1 <1>        -0.0862
      9 C9          3.1239   -1.1318    1.9209 C.3       1 <1>        -0.0216
     10 C10         4.4947    1.5691    1.8113 C.3       1 <1>        -0.0174
     11 C11         3.1107    1.3571    2.4454 C.3       1 <1>        -0.0269
     12 C12         1.9219    0.4862    0.3846 C.3       1 <1>        -0.0382
     13 N1          6.5111    0.0933    1.3899 N.pl3     1 <1>        -0.3725
     14 N2          2.3644    0.1941    1.7935 N.4       1 <1>         0.4510
     15 H1          6.8291   -5.0966    1.0244 H         1 <1>         0.1216
     16 H2          8.9230   -3.8233    0.7328 H         1 <1>         0.1305
     17 H3          4.6901   -3.9294    1.4699 H         1 <1>         0.1330
     18 H4          8.9275   -1.3389    0.8800 H         1 <1>         0.1418
     19 H5          2.6804   -1.8258    1.1931 H         1 <1>         0.0953
     20 H6          2.9347   -1.5001    2.9379 H         1 <1>         0.0945
     21 H7          5.1033    2.2086    2.4626 H         1 <1>         0.0988
     22 H8          4.3833    2.0845    0.8506 H         1 <1>         0.1043
     23 H9          3.2100    1.1270    3.5185 H         1 <1>         0.0859
     24 H10         2.4684    2.2478    2.3353 H         1 <1>         0.0843
     25 H11         2.8170    0.6162   -0.2264 H         1 <1>         0.0688
     26 H12         1.3296   -0.3625    0.0377 H         1 <1>         0.0687
     27 H13         1.3245    1.3997    0.4046 H         1 <1>         0.0689
     28 H14         7.1927    0.8364    1.3158 H         1 <1>         0.2836
     29 H15         1.4848    0.0757    2.3496 H         1 <1>         0.1270
@<TRIPOS>BOND
     1    1    2 ar
     2    1    3 ar
     3    2    4 ar
     4    3    5 ar
     5    4    7 ar
     6    5    6 1
     7    5    7 ar
     8    6    8 2
     9    6    9 1
    10    7   13 1
    11    8   10 1
    12    8   13 1
    13    9   14 1
    14   10   11 1
    15   11   14 1
    16   12   14 1
    17    1   15 1
    18    2   16 1
    19    3   17 1
    20    4   18 1
    21    9   19 1
    22    9   20 1
    23   10   21 1
    24   10   22 1
    25   11   23 1
    26   11   24 1
    27   12   25 1
    28   12   26 1
    29   12   27 1
    30   13   28 1
    31   14   29 1
@<TRIPOS>Similarity
1.3843
@<TRIPOS>ShapeSim
0.8254
@<TRIPOS>PharmSim
0.5589
# END
# Name:		Building
# Created and modified by SHAFTS on Thu Mar 19 22:43:37 2015

# 

@<TRIPOS>MOLECULE
Building
   25    27     0
SMALL
USER_CHARGE


@<TRIPOS>ATOM
      1 C1          6.8256   -4.0196    1.0885 C.ar      1 <1>        -0.0723
      2 C2          7.9983   -3.2502    0.9300 C.ar      1 <1>        -0.0700
      3 C3          2.5528    0.0266    2.0756 C.ar      1 <1>        -0.0236
      4 C4          5.5773   -3.4364    1.3414 C.ar      1 <1>        -0.0601
      5 C5          3.2210   -1.1914    1.8865 C.ar      1 <1>        -0.0218
      6 C6          7.9995   -1.8509    1.0139 C.ar      1 <1>        -0.0575
      7 C7          3.2072    1.2661    2.0356 C.ar      1 <1>        -0.0099
      8 C8          5.5671   -2.0521    1.4262 C.ar      1 <1>        -0.0320
      9 C9          4.5845   -1.1126    1.6538 C.ar      1 <1>        -0.0128
     10 C10         6.7700   -1.2373    1.2652 C.ar      1 <1>        -0.0264
     11 C11         5.2162    0.2696    1.6263 C.ar      1 <1>         0.0012
     12 C12         5.1655    2.6677    1.7767 C.3       1 <1>         0.0276
     13 N1          6.5168    0.1472    1.3921 N.pl3     1 <1>        -0.3215
     14 N2          4.5234    1.3613    1.8120 N.ar      1 <1>        -0.3940
     15 H1          6.8952   -5.1027    1.0121 H         1 <1>         0.1429
     16 H2          8.9376   -3.7648    0.7358 H         1 <1>         0.1515
     17 H3          1.4806    0.0097    2.2611 H         1 <1>         0.2014
     18 H4          4.6787   -4.0288    1.4631 H         1 <1>         0.1565
     19 H5          2.6984   -2.1397    1.9202 H         1 <1>         0.2151
     20 H6          8.9035   -1.2675    0.8908 H         1 <1>         0.1568
     21 H7          2.6738    2.1983    2.1831 H         1 <1>         0.2642
     22 H8          5.4987    2.9257    2.7857 H         1 <1>         0.1521
     23 H9          6.0259    2.6520    1.1018 H         1 <1>         0.1564
     24 H10         4.4545    3.4184    1.4199 H         1 <1>         0.1474
     25 H11         7.2087    0.8876    1.3150 H         1 <1>         0.3287
@<TRIPOS>BOND
     1    1    2 ar
     2    1    4 ar
     3    2    6 ar
     4    3    5 ar
     5    3    7 ar
     6    4    8 ar
     7    5    9 ar
     8    6   10 ar
     9    7   14 ar
    10    8    9 1
    11    8   10 ar
    12    9   11 ar
    13   10   13 1
    14   11   13 1
    15   11   14 ar
    16   12   14 1
    17    1   15 1
    18    2   16 1
    19    3   17 1
    20    4   18 1
    21    5   19 1
    22    6   20 1
    23    7   21 1
    24   12   22 1
    25   12   23 1
    26   12   24 1
    27   13   25 1
@<TRIPOS>Similarity
1.3796
@<TRIPOS>ShapeSim
0.7577
@<TRIPOS>PharmSim
0.6220
# END
# Name:		AJ-292/13893310
# Created and modified by SHAFTS on Thu Mar 19 22:43:37 2015

# 

@<TRIPOS>MOLECULE
AJ-292/13893310
   31    33     0
SMALL
USER_CHARGE


@<TRIPOS>ATOM
      1 C1          6.3511   -1.2051    1.6230 C.2       1 <1>        -0.2407
      2 C2          5.0938   -1.4574    1.1675 C.2       1 <1>         0.0747
      3 C3          6.4173    0.1481    1.8792 C.2       1 <1>         0.0782
      4 C4          3.0108    1.3894    0.1672 C.2       1 <1>         0.4526
      5 C5          4.7930   -2.8612    0.8183 C.3       1 <1>        -0.0205
      6 C6          7.1520   -2.5025    1.6610 C.3       1 <1>        -0.0565
      7 C7          6.1287   -3.5601    1.1675 C.3       1 <1>        -0.1580
      8 C8          7.3976   -3.2885    0.4026 C.3       1 <1>        -0.1000
      9 C9          7.5469    0.9397    2.3863 C.3       1 <1>        -0.0631
     10 C10         7.3288   -2.5951   -0.9168 C.3       1 <1>        -0.1136
     11 C11         8.4568   -4.3372    0.4577 C.3       1 <1>        -0.1082
     12 C12         3.0891   -0.0107    0.7538 C.3       1 <1>         0.0823
     13 N1          5.2414    0.7430    1.5961 N.2       1 <1>        -0.2807
     14 N2          4.4470   -0.2734    1.1589 N.pl3     1 <1>        -0.3137
     15 O1          3.3481    2.3206    0.9514 O.co2     1 <1>        -0.5000
     16 O2          2.6026    1.4499   -1.0269 O.co2     1 <1>        -0.5000
     17 H1          3.9866   -3.2621    1.4393 H         1 <1>         0.0888
     18 H2          4.5474   -2.9885   -0.2393 H         1 <1>         0.0806
     19 H3          7.7081   -2.7280    2.5612 H         1 <1>         0.1061
     20 H4          6.0181   -4.4791    1.7256 H         1 <1>         0.1214
     21 H5          8.1728    1.3242    1.5615 H         1 <1>         0.0683
     22 H6          7.2159    1.8102    2.9825 H         1 <1>         0.0671
     23 H7          8.2049    0.3528    3.0539 H         1 <1>         0.0706
     24 H8          7.5284   -3.2885   -1.7488 H         1 <1>         0.0575
     25 H9          8.0667   -1.7806   -0.9846 H         1 <1>         0.0532
     26 H10         6.3352   -2.1530   -1.0897 H         1 <1>         0.0584
     27 H11         8.5628   -4.8568   -0.5077 H         1 <1>         0.0569
     28 H12         8.2304   -5.1016    1.2178 H         1 <1>         0.0592
     29 H13         9.4396   -3.9074    0.7079 H         1 <1>         0.0603
     30 H14         2.4370   -0.1161    1.6277 H         1 <1>         0.0987
     31 H15         2.7895   -0.7697    0.0226 H         1 <1>         0.0951
@<TRIPOS>BOND
     1    1    2 2
     2    1    3 1
     3    1    6 1
     4    2    5 1
     5    2   14 1
     6    3    9 1
     7    3   13 2
     8    4   12 1
     9    4   15 1
    10    4   16 2
    11    5    7 1
    12    6    7 1
    13    6    8 1
    14    7    8 1
    15    8   10 1
    16    8   11 1
    17   12   14 1
    18   13   14 1
    19    5   17 1
    20    5   18 1
    21    6   19 1
    22    7   20 1
    23    9   21 1
    24    9   22 1
    25    9   23 1
    26   10   24 1
    27   10   25 1
    28   10   26 1
    29   11   27 1
    30   11   28 1
    31   11   29 1
    32   12   30 1
    33   12   31 1
@<TRIPOS>Similarity
1.3740
@<TRIPOS>ShapeSim
0.7702
@<TRIPOS>PharmSim
0.6038
# END
# Name:		ZINC00574168
# Created and modified by SHAFTS on Thu Mar 19 22:43:37 2015

# 

@<TRIPOS>MOLECULE
ZINC00574168
   30    31     0
SMALL
USER_CHARGE


@<TRIPOS>ATOM
      1 C1          7.8176   -2.1479    1.3670 C.ar      1 <1>        -0.0978
      2 C2          7.5496   -3.5180    1.2967 C.ar      1 <1>        -0.1936
      3 C3          5.1569   -3.1065    1.2493 C.ar      1 <1>        -0.0974
      4 C4          5.4023   -1.7208    1.3198 C.ar      1 <1>        -0.0626
      5 C5          4.5702   -0.5668    1.3497 C.2       1 <1>        -0.1344
      6 C6          6.7243   -1.2744    1.3770 C.ar      1 <1>         0.0549
      7 C7          6.2408   -3.9922    1.2386 C.ar      1 <1>         0.0712
      8 C8          5.3879    0.5372    1.4236 C.2       1 <1>         0.0424
      9 C9          4.9482    1.9995    1.4789 C.2       1 <1>         0.5406
     10 C10         2.9617    0.1883   -1.1799 C.2       1 <1>         0.4972
     11 C11         7.1525   -6.1874    1.1661 C.3       1 <1>         0.0346
     12 C12         3.0925   -0.5580    1.3100 C.3       1 <1>        -0.0204
     13 C13         2.5256   -0.8032   -0.0962 C.3       1 <1>        -0.1612
     14 N1          6.6854    0.1004    1.4392 N.pl3     1 <1>        -0.5705
     15 O1          5.8668    2.8622    1.5446 O.co2     1 <1>        -0.5000
     16 O2          2.5947    1.3801   -0.9655 O.co2     1 <1>        -0.5000
     17 O3          3.7053    2.2157    1.4544 O.co2     1 <1>        -0.5000
     18 O4          3.6251   -0.2818   -2.1443 O.co2     1 <1>        -0.5000
     19 O5          6.0102   -5.3340    1.1720 O.3       1 <1>        -0.3233
     20 H1          8.8372   -1.7798    1.4107 H         1 <1>         0.1124
     21 H2          8.3816   -4.2185    1.2872 H         1 <1>         0.1183
     22 H3          4.1396   -3.4859    1.2047 H         1 <1>         0.1276
     23 H4          6.8292   -7.2297    1.1106 H         1 <1>         0.0879
     24 H5          7.7355   -6.0237    2.0759 H         1 <1>         0.0461
     25 H6          7.7675   -5.9519    0.2943 H         1 <1>         0.0466
     26 H7          2.6792   -1.3198    1.9965 H         1 <1>         0.0924
     27 H8          2.6976    0.4026    1.6889 H         1 <1>         0.0476
     28 H9          1.4288   -0.7837   -0.0532 H         1 <1>         0.0406
     29 H10         2.8121   -1.8080   -0.4328 H         1 <1>         0.0582
     30 H11         7.4981    0.6990    1.4885 H         1 <1>         0.4135
@<TRIPOS>BOND
     1    1    2 ar
     2    1    6 ar
     3    2    7 ar
     4    3    4 ar
     5    3    7 ar
     6    4    5 1
     7    4    6 ar
     8    5    8 2
     9    5   12 1
    10    6   14 1
    11    7   19 1
    12    8    9 1
    13    8   14 1
    14    9   15 1
    15    9   17 2
    16   10   13 1
    17   10   16 1
    18   10   18 2
    19   11   19 1
    20   12   13 1
    21    1   20 1
    22    2   21 1
    23    3   22 1
    24   11   23 1
    25   11   24 1
    26   11   25 1
    27   12   26 1
    28   12   27 1
    29   13   28 1
    30   13   29 1
    31   14   30 1
@<TRIPOS>Similarity
1.3703
@<TRIPOS>ShapeSim
0.7307
@<TRIPOS>PharmSim
0.6397
# END
# Name:		AK-968/40721996
# Created and modified by SHAFTS on Thu Mar 19 22:43:37 2015

# 

@<TRIPOS>MOLECULE
AK-968/40721996
   38    39     0
SMALL
USER_CHARGE


@<TRIPOS>ATOM
      1 C1          6.7878   -3.9661    1.0985 C.ar      1 <1>        -0.0921
      2 C2          7.9929   -3.2874    0.9288 C.ar      1 <1>        -0.0879
      3 C3          5.6010   -3.2672    1.3475 C.ar      1 <1>        -0.0909
      4 C4          8.0512   -1.8927    1.0021 C.ar      1 <1>        -0.0813
      5 C5          5.2869    0.3642    1.6200 C.2       1 <1>        -0.0623
      6 C6          5.6350   -1.8607    1.4257 C.ar      1 <1>        -0.0834
      7 C7          4.6537   -0.8566    1.6571 C.2       1 <1>        -0.0822
      8 C8          6.8569   -1.2073    1.2516 C.ar      1 <1>        -0.0695
      9 C9          2.3281    0.6320    0.2010 C.2       1 <1>         0.0074
     10 C10         2.8594    1.2546   -3.7138 C.3       1 <1>        -0.0583
     11 C11         3.1856   -1.0777    1.9016 C.3       1 <1>        -0.0002
     12 C12         2.6372    2.3104   -2.6400 C.3       1 <1>        -0.0416
     13 C13         3.5111    2.0930   -1.4107 C.3       1 <1>        -0.0035
     14 C14         2.2710   -0.8038    0.6983 C.3       1 <1>         0.0346
     15 N1          6.6155    0.1424    1.3746 N.pl3     1 <1>        -0.3665
     16 N2          3.2798    0.8100   -0.7917 N.am      1 <1>        -0.3522
     17 N3          0.8696   -1.1852    1.0367 N.4       1 <1>         0.4689
     18 O1          1.6033    1.5199    0.6452 O.2       1 <1>        -0.5713
     19 H1          6.7677   -5.0508    1.0366 H         1 <1>         0.1212
     20 H2          8.9027   -3.8502    0.7362 H         1 <1>         0.1304
     21 H3          4.6695   -3.8109    1.4766 H         1 <1>         0.1240
     22 H4          8.9899   -1.3653    0.8708 H         1 <1>         0.1353
     23 H5          4.9123    1.3709    1.7446 H         1 <1>         0.1773
     24 H6          3.9021    1.2478   -4.0472 H         1 <1>         0.0381
     25 H7          2.6237    0.2611   -3.3194 H         1 <1>         0.0404
     26 H8          2.2200    1.4303   -4.5843 H         1 <1>         0.0379
     27 H9          2.8714   -0.4463    2.7437 H         1 <1>         0.1092
     28 H10         3.0275   -2.1099    2.2438 H         1 <1>         0.1030
     29 H11         1.5846    2.2840   -2.3353 H         1 <1>         0.0571
     30 H12         2.8269    3.3028   -3.0660 H         1 <1>         0.0568
     31 H13         4.5683    2.1266   -1.6920 H         1 <1>         0.1073
     32 H14         3.3347    2.8659   -0.6559 H         1 <1>         0.1076
     33 H15         2.5547   -1.4658   -0.1286 H         1 <1>         0.1571
     34 H16         7.3181    0.8646    1.2952 H         1 <1>         0.2820
     35 H17         3.8315    0.0121   -1.0927 H         1 <1>         0.2771
     36 H18         0.4951   -0.5697    1.7627 H         1 <1>         0.1566
     37 H19         0.8330   -2.1482    1.3802 H         1 <1>         0.1565
     38 H20         0.2688   -1.1139    0.2119 H         1 <1>         0.1568
@<TRIPOS>BOND
     1    1    2 ar
     2    1    3 ar
     3    2    4 ar
     4    3    6 ar
     5    4    8 ar
     6    5    7 2
     7    5   15 1
     8    6    7 1
     9    6    8 ar
    10    7   11 1
    11    8   15 1
    12    9   14 1
    13    9   16 am
    14    9   18 2
    15   10   12 1
    16   11   14 1
    17   12   13 1
    18   13   16 1
    19   14   17 1
    20    1   19 1
    21    2   20 1
    22    3   21 1
    23    4   22 1
    24    5   23 1
    25   10   24 1
    26   10   25 1
    27   10   26 1
    28   11   27 1
    29   11   28 1
    30   12   29 1
    31   12   30 1
    32   13   31 1
    33   13   32 1
    34   14   33 1
    35   15   34 1
    36   16   35 1
    37   17   36 1
    38   17   37 1
    39   17   38 1
@<TRIPOS>Similarity
1.3682
@<TRIPOS>ShapeSim
0.8711
@<TRIPOS>PharmSim
0.4971
# END
# Name:		AI-204/31682052
# Created and modified by SHAFTS on Thu Mar 19 22:43:37 2015

# 

@<TRIPOS>MOLECULE
AI-204/31682052
   31    32     0
SMALL
USER_CHARGE


@<TRIPOS>ATOM
      1 C1          8.1806   -3.4366    0.9030 C.ar      1 <1>        -0.0793
      2 C2          7.0788   -4.2674    1.0904 C.ar      1 <1>        -0.0804
      3 C3          8.0375   -2.0542    1.0159 C.ar      1 <1>        -0.0634
      4 C4          5.8334   -3.7173    1.3964 C.ar      1 <1>        -0.0651
      5 C5          6.7853   -1.4954    1.2997 C.ar      1 <1>        -0.0242
      6 C6          5.6794   -2.3294    1.5002 C.ar      1 <1>        -0.0328
      7 C7          5.5386    0.6419    1.5413 C.2       1 <1>         0.0606
      8 C8          2.7414    1.8552    0.4505 C.2       1 <1>         0.0186
      9 C9          4.2436   -0.0576    1.1573 C.3       1 <1>         0.0908
     10 C10         1.5530    2.3936   -1.6864 C.3       1 <1>        -0.0069
     11 C11         1.3322    0.1403   -0.7141 C.3       1 <1>        -0.0078
     12 C12         3.0180    0.7847    1.4944 C.3       1 <1>         0.0647
     13 N1          6.7010   -0.0959    1.4333 N.am      1 <1>        -0.3059
     14 N2          1.9086    1.4788   -0.6085 N.am      1 <1>        -0.3814
     15 O1          5.5680    1.8424    1.8226 O.2       1 <1>        -0.5360
     16 O2          3.2377    2.9796    0.5577 O.2       1 <1>        -0.5590
     17 S1          4.1020   -1.6631    1.9815 S.3       1 <1>        -0.1612
     18 H1          9.1518   -3.8656    0.6746 H         1 <1>         0.1342
     19 H2          7.1910   -5.3446    1.0092 H         1 <1>         0.1297
     20 H3          8.9093   -1.4198    0.8741 H         1 <1>         0.1452
     21 H4          4.9912   -4.3863    1.5574 H         1 <1>         0.1492
     22 H5          4.2672   -0.2227    0.0732 H         1 <1>         0.2259
     23 H6          2.2808    2.3187   -2.4984 H         1 <1>         0.1023
     24 H7          1.5400    3.4234   -1.3192 H         1 <1>         0.1018
     25 H8          0.5620    2.1489   -2.0784 H         1 <1>         0.1070
     26 H9          0.3644    0.1068   -0.2070 H         1 <1>         0.0983
     27 H10         1.9970   -0.5951   -0.2525 H         1 <1>         0.1027
     28 H11         1.1888   -0.1277   -1.7644 H         1 <1>         0.1049
     29 H12         3.1838    1.2667    2.4623 H         1 <1>         0.1752
     30 H13         2.1500    0.1225    1.5629 H         1 <1>         0.1713
     31 H14         7.5798    0.4123    1.4882 H         1 <1>         0.3211
@<TRIPOS>BOND
     1    1    2 ar
     2    1    3 ar
     3    2    4 ar
     4    3    5 ar
     5    4    6 ar
     6    5    6 ar
     7    5   13 1
     8    6   17 1
     9    7    9 1
    10    7   13 am
    11    7   15 2
    12    8   12 1
    13    8   14 am
    14    8   16 2
    15    9   12 1
    16    9   17 1
    17   10   14 1
    18   11   14 1
    19    1   18 1
    20    2   19 1
    21    3   20 1
    22    4   21 1
    23    9   22 1
    24   10   23 1
    25   10   24 1
    26   10   25 1
    27   11   26 1
    28   11   27 1
    29   11   28 1
    30   12   29 1
    31   12   30 1
    32   13   31 1
@<TRIPOS>Similarity
1.3679
@<TRIPOS>ShapeSim
0.8360
@<TRIPOS>PharmSim
0.5319
# END
# Name:		ZINC00287726
# Created and modified by SHAFTS on Thu Mar 19 22:43:37 2015

# 

@<TRIPOS>MOLECULE
ZINC00287726
   34    35     0
SMALL
USER_CHARGE


@<TRIPOS>ATOM
      1 C1          8.0470   -1.8589    0.7473 C.ar      1 <1>        -0.0414
      2 C2          8.1607   -3.2518    0.7172 C.ar      1 <1>        -0.0051
      3 C3          5.9280   -3.5119    1.6360 C.ar      1 <1>        -0.0023
      4 C4          5.1977    0.0603    1.8937 C.2       1 <1>        -0.0486
      5 C5          5.7904   -2.1101    1.6759 C.ar      1 <1>        -0.0411
      6 C6          4.7542   -1.2271    2.0904 C.2       1 <1>        -0.0666
      7 C7          6.8509   -1.3176    1.2316 C.ar      1 <1>        -0.0402
      8 C8          7.1190   -4.0675    1.1542 C.ar      1 <1>         0.0834
      9 C9          1.6372    0.6664    0.2755 C.2       1 <1>        -0.0029
     10 C10         0.9849    1.7598   -1.9056 C.3       1 <1>        -0.0358
     11 C11         3.4367   -1.6124    2.6354 C.3       1 <1>        -0.0084
     12 C12         1.5232    0.5117   -1.2298 C.3       1 <1>         0.0115
     13 C13         2.3050   -0.6247    2.2981 C.3       1 <1>         0.0038
     14 N1          6.4632   -0.0044    1.3751 N.pl3     1 <1>        -0.3525
     15 N2          2.1014   -0.4971    0.8799 N.am      1 <1>        -0.3544
     16 N3          7.2653   -5.4801    1.1109 N.pl3     1 <1>        -0.1041
     17 O1          8.3371   -5.9663    0.6771 O.3       1 <1>        -0.1990
     18 O2          1.3512    1.7035    0.8679 O.2       1 <1>        -0.5769
     19 O3          6.3187   -6.2010    1.5077 O.2       1 <1>        -0.3649
     20 H1          8.8586   -1.2247    0.4070 H         1 <1>         0.1674
     21 H2          9.0837   -3.6913    0.3439 H         1 <1>         0.1977
     22 H3          5.1163   -4.1498    1.9763 H         1 <1>         0.2075
     23 H4          4.7282    1.0171    2.0753 H         1 <1>         0.1930
     24 H5         -0.0081    2.0175   -1.5225 H         1 <1>         0.0567
     25 H6          1.6517    2.6084   -1.7255 H         1 <1>         0.0564
     26 H7          0.9003    1.6155   -2.9879 H         1 <1>         0.0569
     27 H8          3.4926   -1.7003    3.7384 H         1 <1>         0.0945
     28 H9          3.1381   -2.6233    2.2914 H         1 <1>         0.0939
     29 H10         2.5157    0.2762   -1.6306 H         1 <1>         0.1237
     30 H11         0.8616   -0.3356   -1.4432 H         1 <1>         0.1241
     31 H12         1.3535   -0.9573    2.7249 H         1 <1>         0.1086
     32 H13         2.5252    0.3733    2.6913 H         1 <1>         0.1088
     33 H14         7.0313    0.7954    1.1329 H         1 <1>         0.2913
     34 H15         2.3078   -1.3002    0.2877 H         1 <1>         0.2652
@<TRIPOS>BOND
     1    1    2 ar
     2    1    7 ar
     3    2    8 ar
     4    3    5 ar
     5    3    8 ar
     6    4    6 2
     7    4   14 1
     8    5    6 1
     9    5    7 ar
    10    6   11 1
    11    7   14 1
    12    8   16 1
    13    9   12 1
    14    9   15 am
    15    9   18 2
    16   10   12 1
    17   11   13 1
    18   13   15 1
    19   16   17 1
    20   16   19 2
    21    1   20 1
    22    2   21 1
    23    3   22 1
    24    4   23 1
    25   10   24 1
    26   10   25 1
    27   10   26 1
    28   11   27 1
    29   11   28 1
    30   12   29 1
    31   12   30 1
    32   13   31 1
    33   13   32 1
    34   14   33 1
    35   15   34 1
@<TRIPOS>Similarity
1.3617
@<TRIPOS>ShapeSim
0.8028
@<TRIPOS>PharmSim
0.5589
# END
# Name:		AI-942/13331877
# Created and modified by SHAFTS on Thu Mar 19 22:43:37 2015

# 

@<TRIPOS>MOLECULE
AI-942/13331877
   29    30     0
SMALL
USER_CHARGE


@<TRIPOS>ATOM
      1 C1          8.3663   -2.9845    1.1782 C.ar      1 <1>        -0.0965
      2 C2          7.4270   -4.0015    1.3213 C.ar      1 <1>        -0.0949
      3 C3          7.9514   -1.6537    1.1204 C.ar      1 <1>        -0.0913
      4 C4          6.0695   -3.6918    1.4071 C.ar      1 <1>        -0.0881
      5 C5          6.1535    0.0106    1.1488 C.ar      1 <1>        -0.0779
      6 C6          4.7959    0.3204    1.2345 C.ar      1 <1>        -0.0680
      7 C7          4.2716   -2.0275    1.4353 C.ar      1 <1>        -0.0637
      8 C8          6.5889   -1.3235    1.2052 C.ar      1 <1>        -0.0823
      9 C9          5.6340   -2.3578    1.3505 C.ar      1 <1>        -0.0769
     10 C10         3.8568   -0.6967    1.3775 C.ar      1 <1>        -0.0517
     11 C11         0.4816    0.5464    0.6463 C.3       1 <1>        -0.0322
     12 C12         2.1361   -0.5617   -0.8915 C.3       1 <1>         0.0081
     13 C13         1.9533    0.2959    0.3541 C.3       1 <1>         0.0073
     14 O1          1.5820    0.1233   -2.0098 O.3       1 <1>        -0.4719
     15 O2          2.5328   -0.3928    1.4612 O.3       1 <1>        -0.4789
     16 H1          9.4228   -3.2265    1.1108 H         1 <1>         0.1139
     17 H2          7.7505   -5.0376    1.3667 H         1 <1>         0.1179
     18 H3          8.7023   -0.8743    1.0078 H         1 <1>         0.1246
     19 H4          5.3531   -4.5031    1.5180 H         1 <1>         0.1269
     20 H5          6.8701    0.8217    1.0365 H         1 <1>         0.1383
     21 H6          4.4784    1.3585    1.1882 H         1 <1>         0.1397
     22 H7          3.5242   -2.8111    1.5477 H         1 <1>         0.1528
     23 H8         -0.0539   -0.4024    0.7592 H         1 <1>         0.0610
     24 H9          0.3520    1.1291    1.5636 H         1 <1>         0.0644
     25 H10         0.0027    1.0812   -0.1813 H         1 <1>         0.0672
     26 H11         3.1965   -0.7397   -1.0983 H         1 <1>         0.1190
     27 H12         1.6177   -1.5202   -0.7896 H         1 <1>         0.1148
     28 H13         2.4891    1.2448    0.2414 H         1 <1>         0.1402
     29 H14         1.7160   -0.4499   -2.7810 H         1 <1>         0.2784
@<TRIPOS>BOND
     1    1    2 ar
     2    1    3 ar
     3    2    4 ar
     4    3    8 ar
     5    4    9 ar
     6    5    6 ar
     7    5    8 ar
     8    6   10 ar
     9    7    9 ar
    10    7   10 ar
    11    8    9 ar
    12   10   15 1
    13   11   13 1
    14   12   13 1
    15   12   14 1
    16   13   15 1
    17    1   16 1
    18    2   17 1
    19    3   18 1
    20    4   19 1
    21    5   20 1
    22    6   21 1
    23    7   22 1
    24   11   23 1
    25   11   24 1
    26   11   25 1
    27   12   26 1
    28   12   27 1
    29   13   28 1
    30   14   29 1
@<TRIPOS>Similarity
1.3586
@<TRIPOS>ShapeSim
0.8448
@<TRIPOS>PharmSim
0.5138
# END
# Name:		AI-204/31730045
# Created and modified by SHAFTS on Thu Mar 19 22:43:37 2015

# 

@<TRIPOS>MOLECULE
AI-204/31730045
   24    25     0
SMALL
USER_CHARGE


@<TRIPOS>ATOM
      1 C1          2.3007   -0.1605    1.3787 C.1       1 <1>        -0.0653
      2 C2          6.8100   -4.0104    1.0920 C.ar      1 <1>        -0.0903
      3 C3          7.9938   -3.2938    0.9283 C.ar      1 <1>        -0.0887
      4 C4          5.6017   -3.3500    1.3424 C.ar      1 <1>        -0.0796
      5 C5          8.0087   -1.8983    1.0092 C.ar      1 <1>        -0.0786
      6 C6          5.5920   -1.9436    1.4282 C.ar      1 <1>        -0.0560
      7 C7          4.5796   -0.9716    1.6631 C.2       1 <1>        -0.0288
      8 C8          6.7933   -1.2516    1.2600 C.ar      1 <1>        -0.0547
      9 C9          5.1748    0.2685    1.6338 C.2       1 <1>        -0.0343
     10 C10         4.7452    2.0945    3.6323 C.3       1 <1>        -0.0085
     11 C11         3.1467   -1.2519    1.8980 C.3       1 <1>         0.0896
     12 N1          1.6423    0.7026    0.9686 N.1       1 <1>        -0.4527
     13 N2          6.5100    0.0894    1.3898 N.pl3     1 <1>        -0.3517
     14 S1          4.5630    1.8701    1.8392 S.3       1 <1>        -0.2133
     15 H1          6.8241   -5.0952    1.0257 H         1 <1>         0.1182
     16 H2          8.9214   -3.8269    0.7360 H         1 <1>         0.1248
     17 H3          4.6876   -3.9235    1.4681 H         1 <1>         0.1339
     18 H4          8.9310   -1.3420    0.8825 H         1 <1>         0.1323
     19 H5          4.3905    3.0870    3.9208 H         1 <1>         0.1075
     20 H6          5.7965    1.9961    3.9137 H         1 <1>         0.0944
     21 H7          4.1610    1.3382    4.1622 H         1 <1>         0.0949
     22 H8          2.9384   -1.3869    2.9727 H         1 <1>         0.2113
     23 H9          2.8427   -2.1993    1.4219 H         1 <1>         0.2096
     24 H10         7.1891    0.8341    1.3156 H         1 <1>         0.2859
@<TRIPOS>BOND
     1    1   11 1
     2    1   12 3
     3    2    3 ar
     4    2    4 ar
     5    3    5 ar
     6    4    6 ar
     7    5    8 ar
     8    6    7 1
     9    6    8 ar
    10    7    9 2
    11    7   11 1
    12    8   13 1
    13    9   13 1
    14    9   14 1
    15   10   14 1
    16    2   15 1
    17    3   16 1
    18    4   17 1
    19    5   18 1
    20   10   19 1
    21   10   20 1
    22   10   21 1
    23   11   22 1
    24   11   23 1
    25   13   24 1
@<TRIPOS>Similarity
1.3506
@<TRIPOS>ShapeSim
0.8275
@<TRIPOS>PharmSim
0.5231
# END
# Name:		AI-204/31701021
# Created and modified by SHAFTS on Thu Mar 19 22:43:37 2015

# 

@<TRIPOS>MOLECULE
AI-204/31701021
   29    31     0
SMALL
USER_CHARGE


@<TRIPOS>ATOM
      1 C1          6.7128   -4.1136    0.8558 C.ar      1 <1>        -0.0795
      2 C2          7.9418   -3.4659    0.8617 C.ar      1 <1>        -0.0758
      3 C3          5.5508   -3.3849    1.0931 C.ar      1 <1>        -0.0694
      4 C4          8.0063   -2.0916    1.1048 C.ar      1 <1>        -0.0608
      5 C5          4.5599    0.1186    1.8173 C.ar      1 <1>        -0.0393
      6 C6          5.8207    0.6799    1.8045 C.ar      1 <1>        -0.0324
      7 C7          5.6160   -2.0026    1.3375 C.ar      1 <1>        -0.0416
      8 C8          4.4623   -1.2448    1.5794 C.ar      1 <1>        -0.0183
      9 C9          6.8604   -1.3383    1.3449 C.ar      1 <1>        -0.0411
     10 C10         1.9402    0.7472   -0.1074 C.2       1 <1>         0.1524
     11 C11         3.1246   -1.8293    1.5942 C.2       1 <1>         0.0209
     12 C12         3.5130   -0.6432   -1.1034 C.3       1 <1>         0.0706
     13 C13         3.6702    0.7742   -1.6034 C.3       1 <1>         0.0797
     14 N1          6.9583   -0.0154    1.5755 N.ar      1 <1>        -0.4040
     15 N2          2.1852   -1.4476    0.7795 N.2       1 <1>        -0.3272
     16 N3          2.5557   -0.4776   -0.0664 N.am      1 <1>        -0.2668
     17 O1          1.0223    1.1540    0.5910 O.2       1 <1>        -0.4624
     18 O2          2.5226    1.4898   -1.1061 O.3       1 <1>        -0.3764
     19 H1          6.6587   -5.1815    0.6674 H         1 <1>         0.1327
     20 H2          8.8536   -4.0264    0.6775 H         1 <1>         0.1379
     21 H3          4.6028   -3.9172    1.0830 H         1 <1>         0.1402
     22 H4          8.9813   -1.6076    1.1048 H         1 <1>         0.1621
     23 H5          3.6859    0.7321    2.0085 H         1 <1>         0.1664
     24 H6          5.9589    1.7411    1.9832 H         1 <1>         0.2168
     25 H7          2.9300   -2.6296    2.3422 H         1 <1>         0.2873
     26 H8          3.0870   -1.2976   -1.8716 H         1 <1>         0.1679
     27 H9          4.4476   -1.0712   -0.7297 H         1 <1>         0.1710
     28 H10         4.5688    1.2538   -1.2016 H         1 <1>         0.1939
     29 H11         3.6968    0.8285   -2.6955 H         1 <1>         0.1950
@<TRIPOS>BOND
     1    1    2 ar
     2    1    3 ar
     3    2    4 ar
     4    3    7 ar
     5    4    9 ar
     6    5    6 ar
     7    5    8 ar
     8    6   14 ar
     9    7    8 ar
    10    7    9 ar
    11    8   11 1
    12    9   14 ar
    13   10   16 am
    14   10   17 2
    15   10   18 1
    16   11   15 2
    17   12   13 1
    18   12   16 1
    19   13   18 1
    20   15   16 1
    21    1   19 1
    22    2   20 1
    23    3   21 1
    24    4   22 1
    25    5   23 1
    26    6   24 1
    27   11   25 1
    28   12   26 1
    29   12   27 1
    30   13   28 1
    31   13   29 1
@<TRIPOS>Similarity
1.3479
@<TRIPOS>ShapeSim
0.8319
@<TRIPOS>PharmSim
0.5160
# END
# Name:		AE-473/30364030
# Created and modified by SHAFTS on Thu Mar 19 22:43:37 2015

# 

@<TRIPOS>MOLECULE
AE-473/30364030
   39    40     0
SMALL
USER_CHARGE


@<TRIPOS>ATOM
      1 C1          5.0980   -3.1031    1.1899 C.ar      1 <1>        -0.0896
      2 C2          6.0873   -4.0930    1.1652 C.ar      1 <1>        -0.0982
      3 C3          7.8335   -2.4309    1.4688 C.ar      1 <1>        -0.0893
      4 C4          5.6844    0.4812    1.6008 C.2       1 <1>        -0.0592
      5 C5          5.4776   -1.7564    1.3565 C.ar      1 <1>        -0.0799
      6 C6          7.4332   -3.7598    1.3026 C.ar      1 <1>        -0.1057
      7 C7          4.7645   -0.5270    1.4269 C.2       1 <1>        -0.0730
      8 C8          6.8338   -1.4520    1.4918 C.ar      1 <1>        -0.0709
      9 C9          8.4663   -4.8373    1.2706 C.3       1 <1>        -0.0396
     10 C10         1.2051   -3.0527   -0.2669 C.3       1 <1>        -0.0632
     11 C11        -0.9034   -1.8532    0.3441 C.3       1 <1>        -0.0624
     12 C12         3.2687   -0.3494    1.3307 C.3       1 <1>         0.0205
     13 C13         1.2183   -0.5389   -0.2027 C.3       1 <1>        -0.0038
     14 C14         0.6235   -1.8178    0.4284 C.3       1 <1>        -0.0488
     15 C15         2.7449   -0.4080   -0.1100 C.3       1 <1>         0.0910
     16 N1          6.9297   -0.0864    1.6384 N.pl3     1 <1>        -0.3670
     17 N2          3.1284    0.8773   -0.7436 N.pl3     1 <1>        -0.1461
     18 O1          4.3333    1.1628   -0.7656 O.3       1 <1>        -0.2227
     19 O2          2.2156    1.5648   -1.2217 O.2       1 <1>        -0.3878
     20 H1          4.0527   -3.3775    1.0802 H         1 <1>         0.1307
     21 H2          5.7901   -5.1312    1.0355 H         1 <1>         0.1156
     22 H3          8.8803   -2.1644    1.5751 H         1 <1>         0.1265
     23 H4          5.5669    1.5513    1.7018 H         1 <1>         0.1790
     24 H5          8.8076   -5.0066    0.2426 H         1 <1>         0.0637
     25 H6          9.3342   -4.5735    1.8879 H         1 <1>         0.0615
     26 H7          8.0684   -5.7803    1.6664 H         1 <1>         0.0632
     27 H8          0.9543   -3.0643   -1.3332 H         1 <1>         0.0316
     28 H9          2.2961   -3.0738   -0.1741 H         1 <1>         0.0334
     29 H10         0.8156   -3.9722    0.1828 H         1 <1>         0.0342
     30 H11        -1.2449   -1.8027   -0.6954 H         1 <1>         0.0344
     31 H12        -1.3532   -1.0204    0.8926 H         1 <1>         0.0351
     32 H13        -1.2954   -2.7771    0.7835 H         1 <1>         0.0344
     33 H14         2.7620   -1.1012    1.9513 H         1 <1>         0.1216
     34 H15         3.0169    0.6179    1.7886 H         1 <1>         0.1178
     35 H16         0.7542    0.3280    0.2848 H         1 <1>         0.0941
     36 H17         0.9147   -0.4954   -1.2579 H         1 <1>         0.0903
     37 H18         0.9112   -1.8709    1.4852 H         1 <1>         0.0442
     38 H19         3.2596   -1.1849   -0.6820 H         1 <1>         0.2078
     39 H20         7.7946    0.4230    1.7561 H         1 <1>         0.2766
@<TRIPOS>BOND
     1    1    2 ar
     2    1    5 ar
     3    2    6 ar
     4    3    6 ar
     5    3    8 ar
     6    4    7 2
     7    4   16 1
     8    5    7 1
     9    5    8 ar
    10    6    9 1
    11    7   12 1
    12    8   16 1
    13   10   14 1
    14   11   14 1
    15   12   15 1
    16   13   14 1
    17   13   15 1
    18   15   17 1
    19   17   18 1
    20   17   19 2
    21    1   20 1
    22    2   21 1
    23    3   22 1
    24    4   23 1
    25    9   24 1
    26    9   25 1
    27    9   26 1
    28   10   27 1
    29   10   28 1
    30   10   29 1
    31   11   30 1
    32   11   31 1
    33   11   32 1
    34   12   33 1
    35   12   34 1
    36   13   35 1
    37   13   36 1
    38   14   37 1
    39   15   38 1
    40   16   39 1
@<TRIPOS>Similarity
1.3453
@<TRIPOS>ShapeSim
0.7858
@<TRIPOS>PharmSim
0.5595
# END
# Name:		AG-690/36467004
# Created and modified by SHAFTS on Thu Mar 19 22:43:37 2015

# 

@<TRIPOS>MOLECULE
AG-690/36467004
   26    27     0
SMALL
USER_CHARGE


@<TRIPOS>ATOM
      1 C1          6.6573   -3.9685    1.1211 C.ar      1 <1>        -0.0877
      2 C2          7.8835   -3.3302    0.9453 C.ar      1 <1>        -0.0879
      3 C3          5.4944   -3.2299    1.3683 C.ar      1 <1>        -0.0704
      4 C4          7.9872   -1.9378    1.0105 C.ar      1 <1>        -0.0759
      5 C5          5.2992    0.4114    1.6206 C.2       1 <1>        -0.0038
      6 C6          5.5743   -1.8249    1.4385 C.ar      1 <1>        -0.0323
      7 C7          4.6266   -0.7881    1.6659 C.2       1 <1>         0.0255
      8 C8          6.8164   -1.2125    1.2583 C.ar      1 <1>        -0.0442
      9 C9          3.2165   -0.9132    1.9036 C.2       1 <1>         0.1065
     10 C10         2.2085   -0.2575    0.9561 C.2       1 <1>         0.1451
     11 C11         0.9161   -0.7055   -0.9458 C.3       1 <1>         0.0439
     12 N1          2.7159   -1.5912    2.9271 N.2       1 <1>        -0.2722
     13 N2          6.6194    0.1451    1.3741 N.pl3     1 <1>        -0.3407
     14 O1          1.8089    0.8761    1.1351 O.2       1 <1>        -0.4738
     15 O2          1.3192   -1.5918    2.9696 O.3       1 <1>        -0.3539
     16 O3          1.8845   -1.1553    0.0055 O.3       1 <1>        -0.3971
     17 H1          6.6021   -5.0526    1.0652 H         1 <1>         0.1190
     18 H2          8.7744   -3.9233    0.7547 H         1 <1>         0.1242
     19 H3          4.5461   -3.7422    1.5027 H         1 <1>         0.1412
     20 H4          8.9425   -1.4425    0.8737 H         1 <1>         0.1335
     21 H5          4.9601    1.4311    1.7411 H         1 <1>         0.2373
     22 H6          0.7207   -1.4992   -1.6711 H         1 <1>         0.1439
     23 H7          1.2919    0.1848   -1.4564 H         1 <1>         0.1605
     24 H8         -0.0098   -0.4587   -0.4210 H         1 <1>         0.1439
     25 H9          7.3447    0.8438    1.2895 H         1 <1>         0.2962
     26 H10         1.1000   -1.0604    2.1856 H         1 <1>         0.4193
@<TRIPOS>BOND
     1    1    2 ar
     2    1    3 ar
     3    2    4 ar
     4    3    6 ar
     5    4    8 ar
     6    5    7 2
     7    5   13 1
     8    6    7 1
     9    6    8 ar
    10    7    9 1
    11    8   13 1
    12    9   10 1
    13    9   12 2
    14   10   14 2
    15   10   16 1
    16   11   16 1
    17   12   15 1
    18    1   17 1
    19    2   18 1
    20    3   19 1
    21    4   20 1
    22    5   21 1
    23   11   22 1
    24   11   23 1
    25   11   24 1
    26   13   25 1
    27   15   26 1
@<TRIPOS>Similarity
1.3432
@<TRIPOS>ShapeSim
0.8469
@<TRIPOS>PharmSim
0.4963
# END
# Name:		AN-652/42476886
# Created and modified by SHAFTS on Thu Mar 19 22:43:37 2015

# 

@<TRIPOS>MOLECULE
AN-652/42476886
   28    29     0
SMALL
USER_CHARGE


@<TRIPOS>ATOM
      1 C1          7.0675   -0.2682    1.7512 C.ar      1 <1>        -0.0520
      2 C2          5.6021   -3.5856    0.9583 C.ar      1 <1>        -0.0624
      3 C3          5.9178    0.5063    1.9100 C.ar      1 <1>        -0.0192
      4 C4          6.7518   -4.3600    0.7996 C.ar      1 <1>        -0.0584
      5 C5          4.5495   -1.4259    1.4391 C.ar      1 <1>        -0.0112
      6 C6          8.1201   -2.4278    1.2704 C.ar      1 <1>        -0.0535
      7 C7          5.6959   -2.2207    1.2756 C.ar      1 <1>        -0.0461
      8 C8          6.9737   -1.6332    1.4340 C.ar      1 <1>        -0.0546
      9 C9          4.6615   -0.0715    1.7542 C.ar      1 <1>         0.0528
     10 C10         8.0082   -3.7823    0.9552 C.ar      1 <1>        -0.0345
     11 C11         0.5406    0.3494    1.6139 C.3       1 <1>         0.0113
     12 C12         1.2352    1.6821    1.4439 C.3       1 <1>         0.1050
     13 O1          3.4155    2.8122    0.5571 O.2       1 <1>        -0.4986
     14 O2          2.6685    0.6087   -0.4564 O.2       1 <1>        -0.4986
     15 O3          3.5407    0.6850    1.9119 O.3       1 <1>        -0.3282
     16 S1          2.8257    1.4941    0.6800 S.o2      1 <1>        -0.1874
     17 Br1         9.5637   -4.8339    0.7390 Br        1 <1>        -0.1556
     18 H1          8.0394    0.2045    1.8775 H         1 <1>         0.1594
     19 H2          4.6303   -4.0584    0.8326 H         1 <1>         0.1532
     20 H3          6.0107    1.5607    2.1555 H         1 <1>         0.1741
     21 H4          6.6472   -5.4139    0.5542 H         1 <1>         0.1528
     22 H5          3.5593   -1.8625    1.3212 H         1 <1>         0.1965
     23 H6          9.1057   -1.9809    1.3916 H         1 <1>         0.1630
     24 H7          0.3826   -0.1263    0.6414 H         1 <1>         0.1001
     25 H8          1.1370   -0.3275    2.2344 H         1 <1>         0.1001
     26 H9         -0.4334    0.4732    2.0981 H         1 <1>         0.1039
     27 H10         1.3973    2.1650    2.4115 H         1 <1>         0.2635
     28 H11         0.6489    2.3507    0.8078 H         1 <1>         0.2651
@<TRIPOS>BOND
     1    1    3 ar
     2    1    8 ar
     3    2    4 ar
     4    2    7 ar
     5    3    9 ar
     6    4   10 ar
     7    5    7 ar
     8    5    9 ar
     9    6    8 ar
    10    6   10 ar
    11    7    8 ar
    12    9   15 1
    13   10   17 1
    14   11   12 1
    15   12   16 1
    16   13   16 2
    17   14   16 2
    18   15   16 1
    19    1   18 1
    20    2   19 1
    21    3   20 1
    22    4   21 1
    23    5   22 1
    24    6   23 1
    25   11   24 1
    26   11   25 1
    27   11   26 1
    28   12   27 1
    29   12   28 1
@<TRIPOS>Similarity
1.3396
@<TRIPOS>ShapeSim
0.8447
@<TRIPOS>PharmSim
0.4949
# END
# Name:		AI-204/42879130
# Created and modified by SHAFTS on Thu Mar 19 22:43:37 2015

# 

@<TRIPOS>MOLECULE
AI-204/42879130
   27    28     0
SMALL
USER_CHARGE


@<TRIPOS>ATOM
      1 C1          6.7587   -3.9984    1.1016 C.ar      1 <1>        -0.1660
      2 C2          7.9703   -3.3319    0.9300 C.ar      1 <1>        -0.1096
      3 C3          5.5790   -3.2875    1.3502 C.ar      1 <1>        -0.0558
      4 C4          8.0424   -1.9378    1.0009 C.ar      1 <1>        -0.1405
      5 C5          5.3009    0.3474    1.6166 C.2       1 <1>         0.0409
      6 C6          5.6269   -1.8813    1.4259 C.ar      1 <1>        -0.0788
      7 C7          6.8550   -1.2401    1.2499 C.ar      1 <1>         0.1002
      8 C8          4.6556   -0.8671    1.6562 C.2       1 <1>        -0.1607
      9 C9         -0.1367   -1.0322    1.0537 C.2       1 <1>         0.4601
     10 C10         2.3623    0.4553   -0.0662 C.2       1 <1>         0.4759
     11 C11         0.9371   -1.6987    0.1822 C.3       1 <1>        -0.1240
     12 C12         2.3144   -1.0501    0.2424 C.3       1 <1>        -0.0877
     13 N1          6.6271    0.1122    1.3707 N.pl3     1 <1>        -0.5933
     14 O1          0.0986   -1.0898    2.2956 O.co2     1 <1>        -0.5000
     15 O2          1.5950    1.1656    0.6477 O.co2     1 <1>        -0.5000
     16 O3         -1.1175   -0.5177    0.4499 O.co2     1 <1>        -0.5000
     17 O4          3.1666    0.8160   -0.9714 O.co2     1 <1>        -0.5000
     18 S1          2.9508   -1.1082    1.9388 S.3       1 <1>        -0.0416
     19 H1          6.7280   -5.0832    1.0419 H         1 <1>         0.1143
     20 H2          8.8747   -3.9039    0.7388 H         1 <1>         0.1145
     21 H3          4.6441   -3.8251    1.4804 H         1 <1>         0.1215
     22 H4          8.9864   -1.4199    0.8685 H         1 <1>         0.1112
     23 H5          4.9401    1.3595    1.7392 H         1 <1>         0.1920
     24 H6          0.9882   -2.7559    0.4745 H         1 <1>         0.0778
     25 H7          0.5555   -1.6673   -0.8472 H         1 <1>         0.0714
     26 H8          3.0194   -1.5837   -0.4050 H         1 <1>         0.0797
     27 H9          7.3362    0.8275    1.2890 H         1 <1>         0.4092
@<TRIPOS>BOND
     1    1    2 ar
     2    1    3 ar
     3    2    4 ar
     4    3    6 ar
     5    4    7 ar
     6    5    8 2
     7    5   13 1
     8    6    7 ar
     9    6    8 1
    10    7   13 1
    11    8   18 1
    12    9   11 1
    13    9   14 1
    14    9   16 2
    15   10   12 1
    16   10   15 1
    17   10   17 2
    18   11   12 1
    19   12   18 1
    20    1   19 1
    21    2   20 1
    22    3   21 1
    23    4   22 1
    24    5   23 1
    25   11   24 1
    26   11   25 1
    27   12   26 1
    28   13   27 1
@<TRIPOS>Similarity
1.3327
@<TRIPOS>ShapeSim
0.8805
@<TRIPOS>PharmSim
0.4522
# END
# Name:		AK-968/40721996
# Created and modified by SHAFTS on Thu Mar 19 22:43:37 2015

# 

@<TRIPOS>MOLECULE
AK-968/40721996
   38    39     0
SMALL
USER_CHARGE


@<TRIPOS>ATOM
      1 C1          6.7587   -3.9985    1.1016 C.ar      1 <1>        -0.0942
      2 C2          7.9703   -3.3319    0.9301 C.ar      1 <1>        -0.0882
      3 C3          5.5789   -3.2875    1.3501 C.ar      1 <1>        -0.0955
      4 C4          8.0424   -1.9377    1.0008 C.ar      1 <1>        -0.0806
      5 C5          5.3009    0.3474    1.6166 C.2       1 <1>        -0.0586
      6 C6          5.6269   -1.8813    1.4259 C.ar      1 <1>        -0.0852
      7 C7          4.6556   -0.8671    1.6562 C.2       1 <1>        -0.0817
      8 C8          6.8552   -1.2402    1.2500 C.ar      1 <1>        -0.0692
      9 C9          2.3497    0.2178   -0.1426 C.2       1 <1>         0.0071
     10 C10         3.9421    3.6053   -1.5515 C.3       1 <1>        -0.0583
     11 C11         3.1857   -1.0734    1.9016 C.3       1 <1>        -0.0001
     12 C12         3.4524    2.4155   -2.3648 C.3       1 <1>        -0.0418
     13 C13         2.0813    1.9217   -1.9190 C.3       1 <1>        -0.0037
     14 C14         2.2682    0.0354    1.3648 C.3       1 <1>         0.0344
     15 N1          6.6271    0.1121    1.3707 N.pl3     1 <1>        -0.3645
     16 N2          2.0661    1.5176   -0.5336 N.am      1 <1>        -0.3525
     17 N3          0.8592   -0.2188    1.7820 N.4       1 <1>         0.4689
     18 O1          2.6350   -0.6993   -0.9099 O.2       1 <1>        -0.5715
     19 H1          6.7279   -5.0830    1.0416 H         1 <1>         0.1201
     20 H2          8.8745   -3.9039    0.7381 H         1 <1>         0.1308
     21 H3          4.6421   -3.8217    1.4805 H         1 <1>         0.1126
     22 H4          8.9862   -1.4199    0.8684 H         1 <1>         0.1383
     23 H5          4.9363    1.3578    1.7396 H         1 <1>         0.1878
     24 H6          3.2467    4.4470   -1.6300 H         1 <1>         0.0404
     25 H7          4.0233    3.3311   -0.4947 H         1 <1>         0.0382
     26 H8          4.9281    3.9399   -1.8878 H         1 <1>         0.0381
     27 H9          3.0228   -1.1835    2.9825 H         1 <1>         0.1094
     28 H10         2.8778   -2.0345    1.4670 H         1 <1>         0.1030
     29 H11         4.1747    1.5979   -2.2591 H         1 <1>         0.0567
     30 H12         3.4268    2.6907   -3.4258 H         1 <1>         0.0568
     31 H13         1.3419    2.7215   -2.0270 H         1 <1>         0.1074
     32 H14         1.7511    1.0691   -2.5206 H         1 <1>         0.1071
     33 H15         2.5364    0.9860    1.8414 H         1 <1>         0.1567
     34 H16         7.3368    0.8271    1.2898 H         1 <1>         0.2851
     35 H17         1.8407    2.2071    0.1773 H         1 <1>         0.2764
     36 H18         0.2516   -0.3025    0.9634 H         1 <1>         0.1563
     37 H19         0.5133    0.5487    2.3632 H         1 <1>         0.1572
     38 H20         0.7952   -1.0858    2.3211 H         1 <1>         0.1566
@<TRIPOS>BOND
     1    1    2 ar
     2    1    3 ar
     3    2    4 ar
     4    3    6 ar
     5    4    8 ar
     6    5    7 2
     7    5   15 1
     8    6    7 1
     9    6    8 ar
    10    7   11 1
    11    8   15 1
    12    9   14 1
    13    9   16 am
    14    9   18 2
    15   10   12 1
    16   11   14 1
    17   12   13 1
    18   13   16 1
    19   14   17 1
    20    1   19 1
    21    2   20 1
    22    3   21 1
    23    4   22 1
    24    5   23 1
    25   10   24 1
    26   10   25 1
    27   10   26 1
    28   11   27 1
    29   11   28 1
    30   12   29 1
    31   12   30 1
    32   13   31 1
    33   13   32 1
    34   14   33 1
    35   15   34 1
    36   16   35 1
    37   17   36 1
    38   17   37 1
    39   17   38 1
@<TRIPOS>Similarity
1.3315
@<TRIPOS>ShapeSim
0.8341
@<TRIPOS>PharmSim
0.4974
# END
# Name:		AI-204/31682059
# Created and modified by SHAFTS on Thu Mar 19 22:43:37 2015

# 

@<TRIPOS>MOLECULE
AI-204/31682059
   23    24     0
SMALL
USER_CHARGE


@<TRIPOS>ATOM
      1 C1          7.8098   -3.0983    0.4153 C.ar      1 <1>        -0.0991
      2 C2          6.9477   -3.9816    1.0593 C.ar      1 <1>        -0.1150
      3 C3          7.5823   -1.7248    0.4903 C.ar      1 <1>        -0.1245
      4 C4          5.8601   -3.4923    1.7840 C.ar      1 <1>        -0.0647
      5 C5          6.4798   -1.2299    1.1978 C.ar      1 <1>         0.1146
      6 C6          5.6179   -2.1144    1.8559 C.ar      1 <1>        -0.1174
      7 C7          5.2181    0.8186    1.7718 C.2       1 <1>         0.2822
      8 C8          2.3838    0.9994    0.1998 C.2       1 <1>         0.4726
      9 C9          3.9345    0.0450    2.0212 C.3       1 <1>        -0.0375
     10 C10         3.1748   -0.1986    0.7164 C.3       1 <1>        -0.1485
     11 N1          6.3106    0.1662    1.2623 N.pl3     1 <1>        -0.5813
     12 O1          1.4632    1.4417    0.9401 O.co2     1 <1>        -0.5000
     13 O2          2.7647    1.4066   -0.9359 O.co2     1 <1>        -0.5000
     14 S1          5.2671    2.4849    1.9971 S.2       1 <1>        -0.4276
     15 S2          4.2706   -1.5293    2.8612 S.3       1 <1>        -0.0407
     16 H1          8.6613   -3.4782   -0.1415 H         1 <1>         0.1314
     17 H2          7.1275   -5.0514    1.0065 H         1 <1>         0.1328
     18 H3          8.2690   -1.0479   -0.0122 H         1 <1>         0.1308
     19 H4          5.2115   -4.2009    2.2941 H         1 <1>         0.1390
     20 H5          3.2825    0.6162    2.6925 H         1 <1>         0.1606
     21 H6          2.4836   -1.0302    0.8706 H         1 <1>         0.0862
     22 H7          3.8934   -0.4966   -0.0502 H         1 <1>         0.0676
     23 H8          7.0856    0.7376    0.9359 H         1 <1>         0.4208
@<TRIPOS>BOND
     1    1    2 ar
     2    1    3 ar
     3    2    4 ar
     4    3    5 ar
     5    4    6 ar
     6    5    6 ar
     7    5   11 1
     8    6   15 1
     9    7    9 1
    10    7   11 1
    11    7   14 2
    12    8   10 1
    13    8   12 1
    14    8   13 2
    15    9   10 1
    16    9   15 1
    17    1   16 1
    18    2   17 1
    19    3   18 1
    20    4   19 1
    21    9   20 1
    22   10   21 1
    23   10   22 1
    24   11   23 1
@<TRIPOS>Similarity
1.3276
@<TRIPOS>ShapeSim
0.8093
@<TRIPOS>PharmSim
0.5184
# END
# Name:		AG-205/03663045
# Created and modified by SHAFTS on Thu Mar 19 22:43:37 2015

# 

@<TRIPOS>MOLECULE
AG-205/03663045
   23    24     0
SMALL
USER_CHARGE


@<TRIPOS>ATOM
      1 C1          6.3472   -3.8601    1.1818 C.ar      1 <1>        -0.1160
      2 C2          7.6166   -3.3174    0.9926 C.ar      1 <1>        -0.0876
      3 C3          5.2437   -3.0340    1.4239 C.ar      1 <1>        -0.0873
      4 C4          7.8240   -1.9358    1.0391 C.ar      1 <1>        -0.1119
      5 C5          5.3214    0.6147    1.6290 C.2       1 <1>         0.1947
      6 C6          5.4284   -1.6381    1.4751 C.ar      1 <1>        -0.0874
      7 C7          6.7117   -1.1222    1.2820 C.ar      1 <1>         0.0845
      8 C8          4.5616   -0.5306    1.6927 C.2       1 <1>        -0.3272
      9 C9          2.2884   -0.5089    0.3335 C.cat     1 <1>         0.4534
     10 N1          6.6168    0.2477    1.3807 N.pl3     1 <1>        -0.5829
     11 N2          3.1854   -0.4192   -0.6388 N.pl3     1 <1>        -0.8111
     12 N3          0.9836   -0.5226    0.0934 N.pl3     1 <1>        -0.7798
     13 S1          2.8434   -0.6002    1.9879 S.3       1 <1>         0.2243
     14 H1          6.2110   -4.9376    1.1408 H         1 <1>         0.1338
     15 H2          8.4599   -3.9776    0.8068 H         1 <1>         0.1379
     16 H3          4.2620   -3.4760    1.5681 H         1 <1>         0.1252
     17 H4          8.8130   -1.5143    0.8931 H         1 <1>         0.1331
     18 H5          5.0613    1.6590    1.7359 H         1 <1>         0.1947
     19 H6          7.3914    0.8894    1.2830 H         1 <1>         0.4655
     20 H7          2.8843   -0.3596   -1.6046 H         1 <1>         0.4516
     21 H8          4.1778   -0.4120   -0.4316 H         1 <1>         0.4711
     22 H9          0.6300   -0.4650   -0.8550 H         1 <1>         0.4517
     23 H10         0.3233   -0.5930    0.8589 H         1 <1>         0.4696
@<TRIPOS>BOND
     1    1    2 ar
     2    1    3 ar
     3    2    4 ar
     4    3    6 ar
     5    4    7 ar
     6    5    8 2
     7    5   10 1
     8    6    7 ar
     9    6    8 1
    10    7   10 1
    11    8   13 1
    12    9   11 1
    13    9   12 2
    14    9   13 1
    15    1   14 1
    16    2   15 1
    17    3   16 1
    18    4   17 1
    19    5   18 1
    20   10   19 1
    21   11   20 1
    22   11   21 1
    23   12   22 1
    24   12   23 1
@<TRIPOS>Similarity
1.3252
@<TRIPOS>ShapeSim
0.8239
@<TRIPOS>PharmSim
0.5013
# END
# Name:		AG-690/11081038
# Created and modified by SHAFTS on Thu Mar 19 22:43:37 2015

# 

@<TRIPOS>MOLECULE
AG-690/11081038
   22    24     0
SMALL
USER_CHARGE


@<TRIPOS>ATOM
      1 C1          6.9419   -3.9892    1.2566 C.ar      1 <1>        -0.0845
      2 C2          8.0429   -3.1950    1.5855 C.ar      1 <1>        -0.0866
      3 C3          5.7055   -3.4126    0.9398 C.ar      1 <1>        -0.0661
      4 C4          7.9500   -1.7995    1.6100 C.ar      1 <1>        -0.0722
      5 C5          5.5940   -2.0121    0.9597 C.ar      1 <1>        -0.0370
      6 C6          6.7089   -1.2473    1.2912 C.ar      1 <1>        -0.0372
      7 C7          2.8233    1.0802    0.0114 C.2       1 <1>         0.0413
      8 C8          4.9490    0.0210    0.8564 C.2       1 <1>        -0.0096
      9 C9          4.1741    1.2645    0.6887 C.3       1 <1>         0.0691
     10 N1          2.4557    1.7559   -1.0938 N.2       1 <1>        -0.3131
     11 N2          4.5104   -1.2071    0.6928 N.2       1 <1>        -0.3911
     12 N3          1.8847    0.2262    0.4619 N.2       1 <1>        -0.3137
     13 N4          1.2061    1.2958   -1.3525 N.2       1 <1>        -0.2888
     14 N5          0.8628    0.3768   -0.4180 N.2       1 <1>        -0.2892
     15 N6          6.2675    0.0489    1.2172 N.pl3     1 <1>        -0.3331
     16 H1          7.0457   -5.0712    1.2456 H         1 <1>         0.1215
     17 H2          8.9904   -3.6700    1.8283 H         1 <1>         0.1206
     18 H3          4.8566   -4.0387    0.6847 H         1 <1>         0.1500
     19 H4          8.8037   -1.1816    1.8638 H         1 <1>         0.1337
     20 H5          4.7467    2.0221    0.1136 H         1 <1>         0.1846
     21 H6          4.0050    1.7689    1.6631 H         1 <1>         0.1925
     22 H7          6.8213    0.8760    1.3968 H         1 <1>         0.3089
@<TRIPOS>BOND
     1    1    2 ar
     2    1    3 ar
     3    2    4 ar
     4    3    5 ar
     5    4    6 ar
     6    5    6 ar
     7    5   11 1
     8    6   15 1
     9    7    9 1
    10    7   10 1
    11    7   12 2
    12    8    9 1
    13    8   11 2
    14    8   15 1
    15   10   13 1
    16   12   14 1
    17   13   14 2
    18    1   16 1
    19    2   17 1
    20    3   18 1
    21    4   19 1
    22    9   20 1
    23    9   21 1
    24   15   22 1
@<TRIPOS>Similarity
1.3239
@<TRIPOS>ShapeSim
0.7914
@<TRIPOS>PharmSim
0.5325
# END
# Name:		AN-858/37395001
# Created and modified by SHAFTS on Thu Mar 19 22:43:37 2015

# 

@<TRIPOS>MOLECULE
AN-858/37395001
   38    40     0
SMALL
USER_CHARGE


@<TRIPOS>ATOM
      1 C1          6.8234   -4.0106    1.1035 C.ar      1 <1>        -0.0962
      2 C2          7.9986   -3.2894    0.9199 C.ar      1 <1>        -0.0936
      3 C3          5.6126   -3.3548    1.3584 C.ar      1 <1>        -0.0890
      4 C4          8.0008   -1.8955    0.9919 C.ar      1 <1>        -0.0843
      5 C5          5.5787   -1.9449    1.4250 C.ar      1 <1>        -0.0813
      6 C6          4.5596   -0.9639    1.6536 C.2       1 <1>        -0.0852
      7 C7          6.7836   -1.2531    1.2491 C.ar      1 <1>        -0.0705
      8 C8          5.1894    0.2669    1.6627 C.2       1 <1>        -0.0793
      9 C9          2.0196    0.6994    0.4617 C.2       1 <1>         0.0483
     10 C10         4.5659    1.5925    1.9082 C.3       1 <1>        -0.0127
     11 C11         3.1743    1.4056    2.5361 C.3       1 <1>        -0.0074
     12 C12         3.0824   -1.1023    1.9335 C.3       1 <1>        -0.0049
     13 C13         2.3587    0.2791    1.8670 C.3       1 <1>         0.0395
     14 C14         2.3731   -2.1375    1.0570 C.3       1 <1>        -0.0437
     15 C15         1.8997   -0.5449   -2.4196 C.3       1 <1>        -0.0286
     16 C16         2.7515    0.5300   -1.7788 C.3       1 <1>         0.0175
     17 N1          6.5135    0.0887    1.3892 N.pl3     1 <1>        -0.3724
     18 O1          1.0476    1.3811    0.1660 O.2       1 <1>        -0.5319
     19 O2          2.9533    0.2045   -0.3999 O.3       1 <1>        -0.4371
     20 H1          6.8418   -5.0961    1.0490 H         1 <1>         0.1098
     21 H2          8.9268   -3.8161    0.7185 H         1 <1>         0.1175
     22 H3          4.7039   -3.9375    1.5036 H         1 <1>         0.1304
     23 H4          8.9181   -1.3310    0.8528 H         1 <1>         0.1311
     24 H5          5.2000    2.1606    2.5968 H         1 <1>         0.0958
     25 H6          4.4816    2.1659    0.9804 H         1 <1>         0.0955
     26 H7          3.2880    1.2084    3.6139 H         1 <1>         0.0899
     27 H8          2.6160    2.3540    2.4721 H         1 <1>         0.0918
     28 H9          2.9609   -1.4607    2.9956 H         1 <1>         0.1032
     29 H10         1.4020    0.2004    2.3942 H         1 <1>         0.1605
     30 H11         2.4562   -1.8452    0.0144 H         1 <1>         0.0508
     31 H12         1.3252   -2.1900    1.3370 H         1 <1>         0.0470
     32 H13         2.8366   -3.1093    1.1998 H         1 <1>         0.0508
     33 H14         2.3915   -1.5198   -2.3596 H         1 <1>         0.0654
     34 H15         0.9244   -0.6100   -1.9262 H         1 <1>         0.0705
     35 H16         1.7090   -0.3096   -3.4719 H         1 <1>         0.0656
     36 H17         2.2540    1.5024   -1.8422 H         1 <1>         0.1312
     37 H18         3.7259    0.5930   -2.2725 H         1 <1>         0.1313
     38 H19         7.1999    0.8279    1.3147 H         1 <1>         0.2744
@<TRIPOS>BOND
     1    1    2 ar
     2    1    3 ar
     3    2    4 ar
     4    3    5 ar
     5    4    7 ar
     6    5    6 1
     7    5    7 ar
     8    6    8 2
     9    6   12 1
    10    7   17 1
    11    8   10 1
    12    8   17 1
    13    9   13 1
    14    9   18 2
    15    9   19 1
    16   10   11 1
    17   11   13 1
    18   12   13 1
    19   12   14 1
    20   15   16 1
    21   16   19 1
    22    1   20 1
    23    2   21 1
    24    3   22 1
    25    4   23 1
    26   10   24 1
    27   10   25 1
    28   11   26 1
    29   11   27 1
    30   12   28 1
    31   13   29 1
    32   14   30 1
    33   14   31 1
    34   14   32 1
    35   15   33 1
    36   15   34 1
    37   15   35 1
    38   16   36 1
    39   16   37 1
    40   17   38 1
@<TRIPOS>Similarity
1.3235
@<TRIPOS>ShapeSim
0.8268
@<TRIPOS>PharmSim
0.4967
# END
# Name:		AA-516/30012046
# Created and modified by SHAFTS on Thu Mar 19 22:43:37 2015

# 

@<TRIPOS>MOLECULE
AA-516/30012046
   42    43     0
SMALL
USER_CHARGE


@<TRIPOS>ATOM
      1 C1          2.9689    1.5904   -0.0085 C.2       1 <1>         0.4631
      2 C2          5.1948    0.3623    1.3569 C.3       1 <1>        -0.1185
      3 C3          4.5891   -1.2084   -0.4938 C.3       1 <1>        -0.1103
      4 C4          3.8758   -1.7053    1.8522 C.3       1 <1>        -0.1185
      5 C5          6.4989   -0.4136    1.5877 C.3       1 <1>        -0.1013
      6 C6          5.8919   -1.9858   -0.2615 C.3       1 <1>        -0.1011
      7 C7          5.1800   -2.4805    2.0854 C.3       1 <1>        -0.1013
      8 C8          4.0895   -0.5743    0.8227 C.3       1 <1>        -0.0302
      9 C9          6.3207   -1.9027    1.2197 C.3       1 <1>        -0.0537
     10 C10         9.7027   -7.2198    2.0764 C.3       1 <1>        -0.1519
     11 C11         2.7904    0.1990    0.5912 C.3       1 <1>        -0.1515
     12 C12         7.6199   -2.6759    1.4504 C.3       1 <1>        -0.1052
     13 C13         8.4105   -6.4513    1.8497 C.3       1 <1>        -0.1269
     14 C14         7.3603   -4.1765    1.5350 C.3       1 <1>        -0.1250
     15 C15         8.6574   -4.9438    1.7971 C.3       1 <1>        -0.1185
     16 O1          3.6337    2.4248    0.6645 O.co2     1 <1>        -0.5000
     17 O2          2.4122    1.7315   -1.1359 O.co2     1 <1>        -0.5000
     18 H1          4.8783    0.8305    2.2976 H         1 <1>         0.1011
     19 H2          5.3783    1.1823    0.6510 H         1 <1>         0.0407
     20 H3          4.7573   -0.4335   -1.2526 H         1 <1>         0.0534
     21 H4          3.8298   -1.8845   -0.9067 H         1 <1>         0.0534
     22 H5          3.0973   -2.3969    1.5061 H         1 <1>         0.0407
     23 H6          3.5210   -1.2942    2.8057 H         1 <1>         0.1011
     24 H7          7.3009    0.0355    0.9884 H         1 <1>         0.0472
     25 H8          6.8039   -0.3109    2.6368 H         1 <1>         0.0586
     26 H9          5.7509   -3.0318   -0.5616 H         1 <1>         0.0531
     27 H10         6.6781   -1.5821   -0.9120 H         1 <1>         0.0531
     28 H11         5.4457   -2.4355    3.1492 H         1 <1>         0.0586
     29 H12         5.0203   -3.5407    1.8521 H         1 <1>         0.0472
     30 H13        10.4293   -7.0079    1.2856 H         1 <1>         0.0509
     31 H14        10.1535   -6.9542    3.0380 H         1 <1>         0.0515
     32 H15         9.5075   -8.2967    2.0789 H         1 <1>         0.0515
     33 H16         2.2734    0.2976    1.5483 H         1 <1>         0.0594
     34 H17         2.1545   -0.3875   -0.0756 H         1 <1>         0.0594
     35 H18         8.0808   -2.3186    2.3750 H         1 <1>         0.0555
     36 H19         8.3087   -2.4564    0.6304 H         1 <1>         0.0555
     37 H20         7.7068   -6.6855    2.6569 H         1 <1>         0.0607
     38 H21         7.9524   -6.7868    0.9120 H         1 <1>         0.0607
     39 H22         6.9082   -4.5277    0.5994 H         1 <1>         0.0657
     40 H23         6.6423   -4.3834    2.3381 H         1 <1>         0.0656
     41 H24         9.0968   -4.6100    2.7449 H         1 <1>         0.0571
     42 H25         9.3838   -4.7179    1.0069 H         1 <1>         0.0571
@<TRIPOS>BOND
     1    1   11 1
     2    1   16 1
     3    1   17 2
     4    2    5 1
     5    2    8 1
     6    3    6 1
     7    3    8 1
     8    4    7 1
     9    4    8 1
    10    5    9 1
    11    6    9 1
    12    7    9 1
    13    8   11 1
    14    9   12 1
    15   10   13 1
    16   12   14 1
    17   13   15 1
    18   14   15 1
    19    2   18 1
    20    2   19 1
    21    3   20 1
    22    3   21 1
    23    4   22 1
    24    4   23 1
    25    5   24 1
    26    5   25 1
    27    6   26 1
    28    6   27 1
    29    7   28 1
    30    7   29 1
    31   10   30 1
    32   10   31 1
    33   10   32 1
    34   11   33 1
    35   11   34 1
    36   12   35 1
    37   12   36 1
    38   13   37 1
    39   13   38 1
    40   14   39 1
    41   14   40 1
    42   15   41 1
    43   15   42 1
@<TRIPOS>Similarity
1.3224
@<TRIPOS>ShapeSim
0.7191
@<TRIPOS>PharmSim
0.6034
# END
# Name:		ZINC00141641
# Created and modified by SHAFTS on Thu Mar 19 22:43:37 2015

# 

@<TRIPOS>MOLECULE
ZINC00141641
   31    32     0
SMALL
USER_CHARGE


@<TRIPOS>ATOM
      1 C1          6.7588   -3.9984    1.1017 C.ar      1 <1>        -0.0950
      2 C2          5.5790   -3.2875    1.3501 C.ar      1 <1>        -0.0933
      3 C3          7.9703   -3.3320    0.9301 C.ar      1 <1>        -0.0944
      4 C4          5.6269   -1.8814    1.4259 C.ar      1 <1>        -0.0894
      5 C5          8.0424   -1.9377    1.0008 C.ar      1 <1>        -0.0974
      6 C6          4.6556   -0.8671    1.6562 C.2       1 <1>        -0.1004
      7 C7          6.8551   -1.2402    1.2499 C.ar      1 <1>        -0.0769
      8 C8          5.3010    0.3474    1.6166 C.2       1 <1>        -0.0879
      9 C9          9.3567   -1.2563    0.8127 C.3       1 <1>        -0.0358
     10 C10         4.7916    1.7218    1.7875 C.3       1 <1>        -0.0235
     11 C11         3.2125   -1.0781    1.8949 C.3       1 <1>        -0.0314
     12 C12         2.4007   -1.4290    0.6404 C.3       1 <1>        -0.0313
     13 N1          6.6271    0.1122    1.3707 N.pl3     1 <1>        -0.3752
     14 N2          0.9820   -1.6702    1.0021 N.4       1 <1>         0.4566
     15 H1          6.7279   -5.0831    1.0422 H         1 <1>         0.1181
     16 H2          4.6423   -3.8218    1.4808 H         1 <1>         0.1205
     17 H3          8.8692   -3.9137    0.7385 H         1 <1>         0.1250
     18 H4          9.5161   -1.0220   -0.2466 H         1 <1>         0.0672
     19 H5          9.4065   -0.3230    1.3877 H         1 <1>         0.0683
     20 H6         10.1849   -1.8879    1.1586 H         1 <1>         0.0617
     21 H7          4.8304    2.0315    2.8448 H         1 <1>         0.0856
     22 H8          5.3730    2.4547    1.2024 H         1 <1>         0.0841
     23 H9          3.7463    1.8213    1.4477 H         1 <1>         0.0868
     24 H10         3.0713   -1.9023    2.6186 H         1 <1>         0.0743
     25 H11         2.7503   -0.1992    2.3822 H         1 <1>         0.0736
     26 H12         2.7600   -2.3509    0.1737 H         1 <1>         0.0716
     27 H13         2.4080   -0.6220   -0.0986 H         1 <1>         0.0736
     28 H14         7.3380    0.8259    1.2885 H         1 <1>         0.2778
     29 H15         0.4303   -0.8102    0.9161 H         1 <1>         0.1284
     30 H16         0.9022   -2.0020    1.9694 H         1 <1>         0.1296
     31 H17         0.5627   -2.3777    0.3894 H         1 <1>         0.1290
@<TRIPOS>BOND
     1    1    2 ar
     2    1    3 ar
     3    2    4 ar
     4    3    5 ar
     5    4    6 1
     6    4    7 ar
     7    5    7 ar
     8    5    9 1
     9    6    8 2
    10    6   11 1
    11    7   13 1
    12    8   10 1
    13    8   13 1
    14   11   12 1
    15   12   14 1
    16    1   15 1
    17    2   16 1
    18    3   17 1
    19    9   18 1
    20    9   19 1
    21    9   20 1
    22   10   21 1
    23   10   22 1
    24   10   23 1
    25   11   24 1
    26   11   25 1
    27   12   26 1
    28   12   27 1
    29   13   28 1
    30   14   29 1
    31   14   30 1
    32   14   31 1
@<TRIPOS>Similarity
1.3160
@<TRIPOS>ShapeSim
0.7924
@<TRIPOS>PharmSim
0.5236
# END
# Name:		Building
# Created and modified by SHAFTS on Thu Mar 19 22:43:37 2015

# 

@<TRIPOS>MOLECULE
Building
   33    34     0
SMALL
USER_CHARGE


@<TRIPOS>ATOM
      1 C1          6.7041   -3.9936    1.1114 C.ar      1 <1>        -0.0870
      2 C2          7.9053   -3.3078    0.9429 C.ar      1 <1>        -0.0844
      3 C3          5.5132   -3.3019    1.3607 C.ar      1 <1>        -0.0781
      4 C4          7.9555   -1.9128    1.0176 C.ar      1 <1>        -0.0740
      5 C5          5.5391   -1.8954    1.4403 C.ar      1 <1>        -0.0506
      6 C6          4.5518   -0.8971    1.6724 C.2       1 <1>        -0.0218
      7 C7          6.7572   -1.2346    1.2674 C.ar      1 <1>        -0.0519
      8 C8          5.1781    0.3275    1.6368 C.2       1 <1>        -0.0488
      9 C9          3.1471   -1.0873    1.9047 C.2       1 <1>         0.0173
     10 C10         4.6507    1.6953    1.8102 C.3       1 <1>        -0.0082
     11 C11         0.8020    0.7302    1.7075 C.3       1 <1>        -0.0345
     12 C12        -0.1786   -0.7420   -0.0451 C.3       1 <1>        -0.0339
     13 C13         2.1608   -1.1108    0.7243 C.3       1 <1>         0.0334
     14 N1          6.5080    0.1137    1.3916 N.pl3     1 <1>        -0.3543
     15 N2          0.7987   -0.6501    1.0999 N.4       1 <1>         0.4564
     16 O1          2.6857   -1.2371    3.0642 O.2       1 <1>        -0.5540
     17 H1          6.6898   -5.0786    1.0498 H         1 <1>         0.1252
     18 H2          8.8183   -3.8650    0.7501 H         1 <1>         0.1321
     19 H3          4.5851   -3.8513    1.4901 H         1 <1>         0.1285
     20 H4          8.8910   -1.3794    0.8866 H         1 <1>         0.1413
     21 H5          4.6847    2.0027    2.8683 H         1 <1>         0.0990
     22 H6          5.2235    2.4365    1.2272 H         1 <1>         0.0972
     23 H7          3.6048    1.7817    1.4693 H         1 <1>         0.0974
     24 H8          1.1744    1.4261    0.9533 H         1 <1>         0.0689
     25 H9         -0.2234    0.9722    1.9929 H         1 <1>         0.0704
     26 H10         1.4579    0.7096    2.5800 H         1 <1>         0.0700
     27 H11         0.1721   -0.0783   -0.8376 H         1 <1>         0.0701
     28 H12        -0.2007   -1.7797   -0.3833 H         1 <1>         0.0715
     29 H13        -1.1567   -0.4287    0.3245 H         1 <1>         0.0709
     30 H14         2.0464   -2.1332    0.3558 H         1 <1>         0.1457
     31 H15         2.5058   -0.4344   -0.0616 H         1 <1>         0.1534
     32 H16         7.2086    0.8380    1.3121 H         1 <1>         0.2951
     33 H17         0.4431   -1.2862    1.8330 H         1 <1>         0.1379
@<TRIPOS>BOND
     1    1    2 ar
     2    1    3 ar
     3    2    4 ar
     4    3    5 ar
     5    4    7 ar
     6    5    6 1
     7    5    7 ar
     8    6    8 2
     9    6    9 1
    10    7   14 1
    11    8   10 1
    12    8   14 1
    13    9   13 1
    14    9   16 2
    15   11   15 1
    16   12   15 1
    17   13   15 1
    18    1   17 1
    19    2   18 1
    20    3   19 1
    21    4   20 1
    22   10   21 1
    23   10   22 1
    24   10   23 1
    25   11   24 1
    26   11   25 1
    27   11   26 1
    28   12   27 1
    29   12   28 1
    30   12   29 1
    31   13   30 1
    32   13   31 1
    33   14   32 1
    34   15   33 1
@<TRIPOS>Similarity
1.3158
@<TRIPOS>ShapeSim
0.8729
@<TRIPOS>PharmSim
0.4429
# END
# Name:		AG-205/14785177
# Created and modified by SHAFTS on Thu Mar 19 22:43:37 2015

# 

@<TRIPOS>MOLECULE
AG-205/14785177
   28    29     0
SMALL
USER_CHARGE


@<TRIPOS>ATOM
      1 C1          8.0424   -1.9377    1.0010 C.ar      1 <1>        -0.0659
      2 C2          7.9703   -3.3320    0.9301 C.ar      1 <1>        -0.0592
      3 C3          5.5789   -3.2875    1.3501 C.ar      1 <1>        -0.0622
      4 C4          5.6270   -1.8813    1.4259 C.ar      1 <1>        -0.0730
      5 C5          4.6557   -0.8671    1.6562 C.2       1 <1>        -0.0937
      6 C6          6.8550   -1.2401    1.2499 C.ar      1 <1>        -0.0608
      7 C7          6.7587   -3.9984    1.1016 C.ar      1 <1>        -0.0385
      8 C8          5.3010    0.3475    1.6166 C.2       1 <1>        -0.0835
      9 C9          4.7923    1.7216    1.7891 C.3       1 <1>        -0.0216
     10 C10         3.2126   -1.0786    1.8957 C.3       1 <1>        -0.0291
     11 C11         2.4003   -1.4303    0.6417 C.3       1 <1>        -0.0304
     12 N1          6.6271    0.1121    1.3707 N.pl3     1 <1>        -0.3689
     13 N2          0.9821   -1.6720    1.0041 N.4       1 <1>         0.4568
     14 Br1         6.7034   -5.8867    0.9924 Br        1 <1>        -0.1605
     15 H1          8.9859   -1.4195    0.8668 H         1 <1>         0.1505
     16 H2          8.8848   -3.8889    0.7371 H         1 <1>         0.1557
     17 H3          4.6330   -3.8057    1.4832 H         1 <1>         0.1520
     18 H4          4.8325    2.0309    2.8467 H         1 <1>         0.0877
     19 H5          5.3731    2.4550    1.2038 H         1 <1>         0.0861
     20 H6          3.7467    1.8219    1.4507 H         1 <1>         0.0888
     21 H7          3.0721   -1.9024    2.6199 H         1 <1>         0.0759
     22 H8          2.7502   -0.1997    2.3829 H         1 <1>         0.0761
     23 H9          2.7598   -2.3523    0.1752 H         1 <1>         0.0731
     24 H10         2.4071   -0.6237   -0.0975 H         1 <1>         0.0735
     25 H11         7.3383    0.8257    1.2889 H         1 <1>         0.2831
     26 H12         0.4304   -0.8116    0.9205 H         1 <1>         0.1302
     27 H13         0.9029   -2.0055    1.9708 H         1 <1>         0.1284
     28 H14         0.5619   -2.3782    0.3904 H         1 <1>         0.1300
@<TRIPOS>BOND
     1    1    2 ar
     2    1    6 ar
     3    2    7 ar
     4    3    4 ar
     5    3    7 ar
     6    4    5 1
     7    4    6 ar
     8    5    8 2
     9    5   10 1
    10    6   12 1
    11    7   14 1
    12    8    9 1
    13    8   12 1
    14   10   11 1
    15   11   13 1
    16    1   15 1
    17    2   16 1
    18    3   17 1
    19    9   18 1
    20    9   19 1
    21    9   20 1
    22   10   21 1
    23   10   22 1
    24   11   23 1
    25   11   24 1
    26   12   25 1
    27   13   26 1
    28   13   27 1
    29   13   28 1
@<TRIPOS>Similarity
1.3131
@<TRIPOS>ShapeSim
0.7895
@<TRIPOS>PharmSim
0.5236
# END
# Name:		AN-829/13156517
# Created and modified by SHAFTS on Thu Mar 19 22:43:37 2015

# 

@<TRIPOS>MOLECULE
AN-829/13156517
   21    21     0
SMALL
USER_CHARGE


@<TRIPOS>ATOM
      1 C1          5.2990   -2.4670    1.9136 C.ar      1 <1>        -0.1491
      2 C2          6.8845   -1.1228    0.6822 C.ar      1 <1>        -0.1986
      3 C3          5.9905   -3.6207    1.5447 C.ar      1 <1>        -0.0725
      4 C4          7.5762   -2.2767    0.3133 C.ar      1 <1>        -0.0673
      5 C5          5.7458   -1.2180    1.4824 C.ar      1 <1>         0.1485
      6 C6          7.1292   -3.5256    0.7446 C.ar      1 <1>        -0.0832
      7 C7          3.1291    1.3360    0.0518 C.2       1 <1>         0.4673
      8 C8          2.9368   -0.0237    0.7348 C.3       1 <1>        -0.1571
      9 C9          3.6654   -0.2174    2.0535 C.3       1 <1>         0.0756
     10 O1          2.5534    1.4994   -1.0583 O.co2     1 <1>        -0.5000
     11 O2          3.8577    2.1402    0.7027 O.co2     1 <1>        -0.5000
     12 O3          5.0709   -0.0921    1.8417 O.3       1 <1>        -0.3164
     13 Cl1         7.9817   -4.9490    0.2882 Cl        1 <1>        -0.0826
     14 H1          4.4127   -2.5482    2.5366 H         1 <1>         0.1385
     15 H2          7.2373   -0.1528    0.3429 H         1 <1>         0.1435
     16 H3          5.6304   -4.5877    1.8872 H         1 <1>         0.1359
     17 H4          8.4614   -2.1876   -0.3114 H         1 <1>         0.1336
     18 H5          1.8603   -0.1456    0.9057 H         1 <1>         0.0768
     19 H6          3.2558   -0.7946    0.0225 H         1 <1>         0.0767
     20 H7          3.3527    0.5163    2.8031 H         1 <1>         0.0668
     21 H8          3.4713   -1.2217    2.4430 H         1 <1>         0.0667
@<TRIPOS>BOND
     1    1    3 ar
     2    1    5 ar
     3    2    4 ar
     4    2    5 ar
     5    3    6 ar
     6    4    6 ar
     7    5   12 1
     8    6   13 1
     9    7    8 1
    10    7   10 1
    11    7   11 2
    12    8    9 1
    13    9   12 1
    14    1   14 1
    15    2   15 1
    16    3   16 1
    17    4   17 1
    18    8   18 1
    19    8   19 1
    20    9   20 1
    21    9   21 1
@<TRIPOS>Similarity
1.3085
@<TRIPOS>ShapeSim
0.7857
@<TRIPOS>PharmSim
0.5228
# END
# Name:		AI-204/42879119
# Created and modified by SHAFTS on Thu Mar 19 22:43:37 2015

# 

@<TRIPOS>MOLECULE
AI-204/42879119
   33    35     0
SMALL
USER_CHARGE


@<TRIPOS>ATOM
      1 C1         -0.4221   -0.6919   -3.2810 C.ar      1 <1>        -0.0893
      2 C2          6.3082   -3.9552    1.0043 C.ar      1 <1>        -0.0945
      3 C3         -0.5190    0.5686   -2.6916 C.ar      1 <1>        -0.0839
      4 C4          0.4724   -1.6332   -2.7714 C.ar      1 <1>        -0.0814
      5 C5          7.5941   -3.4532    0.8129 C.ar      1 <1>        -0.0920
      6 C6          5.2471   -3.1021    1.3285 C.ar      1 <1>        -0.0879
      7 C7          0.2785    0.8880   -1.5927 C.ar      1 <1>        -0.0615
      8 C8          1.2700   -1.3137   -1.6725 C.ar      1 <1>        -0.0575
      9 C9          7.8605   -2.0869    0.9391 C.ar      1 <1>        -0.0836
     10 C10         5.4835    0.5201    1.7573 C.2       1 <1>        -0.0522
     11 C11         5.4917   -1.7208    1.4610 C.ar      1 <1>        -0.0747
     12 C12         1.1731   -0.0533   -1.0832 C.ar      1 <1>        -0.0209
     13 C13         4.6781   -0.5953    1.7716 C.2       1 <1>        -0.0653
     14 C14         6.7901   -1.2460    1.2636 C.ar      1 <1>        -0.0661
     15 C15         2.0226    0.2869    0.0872 C.2       1 <1>         0.0380
     16 C16         3.2297   -0.6096    2.0608 C.3       1 <1>         0.0268
     17 N1          6.7554    0.1175    1.4497 N.pl3     1 <1>        -0.3628
     18 N2          2.4212   -0.7813    0.8737 N.am      1 <1>        -0.3323
     19 O1          2.3029    1.4630    0.3035 O.2       1 <1>        -0.5507
     20 H1         -1.0432   -0.9405   -4.1366 H         1 <1>         0.1224
     21 H2          6.1257   -5.0215    0.9003 H         1 <1>         0.1143
     22 H3         -1.2154    1.3015   -3.0886 H         1 <1>         0.1229
     23 H4          0.5476   -2.6146   -3.2301 H         1 <1>         0.1267
     24 H5          8.4034   -4.1339    0.5618 H         1 <1>         0.1217
     25 H6          4.2503   -3.5089    1.4737 H         1 <1>         0.1270
     26 H7          0.1949    1.8733   -1.1412 H         1 <1>         0.1445
     27 H8          1.9636   -2.0551   -1.2840 H         1 <1>         0.1568
     28 H9          8.8618   -1.6973    0.7910 H         1 <1>         0.1288
     29 H10         5.2664    1.5642    1.9367 H         1 <1>         0.1888
     30 H11         2.9575   -1.4258    2.7531 H         1 <1>         0.1371
     31 H12         2.8909    0.3244    2.5421 H         1 <1>         0.1369
     32 H13         7.5540    0.7320    1.3706 H         1 <1>         0.2793
     33 H14         2.0985   -1.7207    0.6684 H         1 <1>         0.2844
@<TRIPOS>BOND
     1    1    3 ar
     2    1    4 ar
     3    2    5 ar
     4    2    6 ar
     5    3    7 ar
     6    4    8 ar
     7    5    9 ar
     8    6   11 ar
     9    7   12 ar
    10    8   12 ar
    11    9   14 ar
    12   10   13 2
    13   10   17 1
    14   11   13 1
    15   11   14 ar
    16   12   15 1
    17   13   16 1
    18   14   17 1
    19   15   18 am
    20   15   19 2
    21   16   18 1
    22    1   20 1
    23    2   21 1
    24    3   22 1
    25    4   23 1
    26    5   24 1
    27    6   25 1
    28    7   26 1
    29    8   27 1
    30    9   28 1
    31   10   29 1
    32   16   30 1
    33   16   31 1
    34   17   32 1
    35   18   33 1
@<TRIPOS>Similarity
1.3041
@<TRIPOS>ShapeSim
0.7470
@<TRIPOS>PharmSim
0.5571
# END
# Name:		AI-204/31682040
# Created and modified by SHAFTS on Thu Mar 19 22:43:37 2015

# 

@<TRIPOS>MOLECULE
AI-204/31682040
   30    31     0
SMALL
USER_CHARGE


@<TRIPOS>ATOM
      1 C1          6.8820   -4.0770    1.0465 C.ar      1 <1>        -0.0848
      2 C2          5.6361   -3.4553    1.1360 C.ar      1 <1>        -0.0656
      3 C3          7.9671   -1.9324    1.2606 C.ar      1 <1>        -0.0677
      4 C4          8.0466   -3.3165    1.1117 C.ar      1 <1>        -0.0942
      5 C5          6.7192   -1.3006    1.3274 C.ar      1 <1>        -0.0245
      6 C6          5.5478   -2.0646    1.2743 C.ar      1 <1>        -0.0324
      7 C7          5.5787    0.9062    1.4287 C.2       1 <1>         0.0638
      8 C8          2.0615    0.8932   -0.1054 C.2       1 <1>         0.0713
      9 C9          4.3427    0.3096    0.7730 C.3       1 <1>         0.0980
     10 C10         9.3783   -3.9825    1.0282 C.3       1 <1>        -0.0349
     11 C11         1.3469    1.4458   -2.2922 C.3       1 <1>         0.0316
     12 C12         3.1275    1.2204    0.9105 C.3       1 <1>         0.0870
     13 N1          6.6941    0.0957    1.5087 N.am      1 <1>        -0.3046
     14 O1          5.6248    2.0912    1.7670 O.2       1 <1>        -0.5345
     15 O2          1.1540    0.0885    0.0530 O.2       1 <1>        -0.5205
     16 O3          2.2812    1.6432   -1.2260 O.3       1 <1>        -0.4267
     17 S1          3.9497   -1.3107    1.4781 S.3       1 <1>        -0.1588
     18 H1          6.9339   -5.1570    0.9365 H         1 <1>         0.1292
     19 H2          4.7403   -4.0712    1.1026 H         1 <1>         0.1507
     20 H3          8.8811   -1.3447    1.3185 H         1 <1>         0.1448
     21 H4          4.5648    0.1821   -0.2934 H         1 <1>         0.2305
     22 H5          9.7081   -4.0479   -0.0160 H         1 <1>         0.0686
     23 H6         10.1367   -3.4303    1.5984 H         1 <1>         0.0659
     24 H7          9.3434   -4.9972    1.4461 H         1 <1>         0.0669
     25 H8          1.6126    2.0896   -3.1343 H         1 <1>         0.1517
     26 H9          0.3387    1.6822   -1.9430 H         1 <1>         0.1369
     27 H10         1.3850    0.4009   -2.6093 H         1 <1>         0.1374
     28 H11         3.4419    2.2576    0.7679 H         1 <1>         0.1939
     29 H12         2.7061    1.1023    1.9121 H         1 <1>         0.1983
     30 H13         7.5744    0.5415    1.7540 H         1 <1>         0.3237
@<TRIPOS>BOND
     1    1    2 ar
     2    1    4 ar
     3    2    6 ar
     4    3    4 ar
     5    3    5 ar
     6    4   10 1
     7    5    6 ar
     8    5   13 1
     9    6   17 1
    10    7    9 1
    11    7   13 am
    12    7   14 2
    13    8   12 1
    14    8   15 2
    15    8   16 1
    16    9   12 1
    17    9   17 1
    18   11   16 1
    19    1   18 1
    20    2   19 1
    21    3   20 1
    22    9   21 1
    23   10   22 1
    24   10   23 1
    25   10   24 1
    26   11   25 1
    27   11   26 1
    28   11   27 1
    29   12   28 1
    30   12   29 1
    31   13   30 1
@<TRIPOS>Similarity
1.3037
@<TRIPOS>ShapeSim
0.8119
@<TRIPOS>PharmSim
0.4918
# END
# Name:		AI-204/31683014
# Created and modified by SHAFTS on Thu Mar 19 22:43:37 2015

# 

@<TRIPOS>MOLECULE
AI-204/31683014
   27    28     0
SMALL
USER_CHARGE


@<TRIPOS>ATOM
      1 C1          5.7136   -3.5094    1.3597 C.ar      1 <1>        -0.0444
      2 C2          6.9428   -4.1616    1.2562 C.ar      1 <1>        -0.0404
      3 C3          8.0805   -2.0380    1.3954 C.ar      1 <1>        -0.0241
      4 C4          6.8490   -1.3764    1.4761 C.ar      1 <1>        -0.0048
      5 C5          5.6597   -2.1143    1.4676 C.ar      1 <1>        -0.0184
      6 C6          8.1255   -3.4267    1.2769 C.ar      1 <1>        -0.0051
      7 C7          5.7611    0.8578    1.5519 C.2       1 <1>         0.0687
      8 C8          2.2096    0.8909    0.0995 C.2       1 <1>         0.0717
      9 C9          4.4969    0.2750    0.9387 C.3       1 <1>         0.1015
     10 C10         1.4560    1.4100   -2.0825 C.3       1 <1>         0.0318
     11 C11         3.3061    1.2164    1.0829 C.3       1 <1>         0.0882
     12 N1          6.8596    0.0240    1.6253 N.am      1 <1>        -0.2970
     13 O1          5.8417    2.0489    1.8614 O.2       1 <1>        -0.5309
     14 O2          1.2881    0.1109    0.2975 O.2       1 <1>        -0.5205
     15 O3          2.4192    1.6101   -1.0429 O.3       1 <1>        -0.4265
     16 S1          4.0843   -1.3193    1.6903 S.3       1 <1>        -0.1510
     17 Cl1         9.6419   -4.2331    1.1648 Cl        1 <1>        -0.1967
     18 H1          4.8036   -4.1050    1.3613 H         1 <1>         0.1684
     19 H2          6.9617   -5.2451    1.1710 H         1 <1>         0.1658
     20 H3          9.0058   -1.4652    1.4191 H         1 <1>         0.1806
     21 H4          4.6912    0.1176   -0.1293 H         1 <1>         0.2338
     22 H5          1.7161    2.0283   -2.9452 H         1 <1>         0.1373
     23 H6          0.4617    1.6772   -1.7155 H         1 <1>         0.1520
     24 H7          1.4631    0.3576   -2.3759 H         1 <1>         0.1377
     25 H8          3.6401    2.2426    0.9089 H         1 <1>         0.1994
     26 H9          2.9056    1.1310    2.0964 H         1 <1>         0.1946
     27 H10         7.7551    0.4548    1.8396 H         1 <1>         0.3282
@<TRIPOS>BOND
     1    1    2 ar
     2    1    5 ar
     3    2    6 ar
     4    3    4 ar
     5    3    6 ar
     6    4    5 ar
     7    4   12 1
     8    5   16 1
     9    6   17 1
    10    7    9 1
    11    7   12 am
    12    7   13 2
    13    8   11 1
    14    8   14 2
    15    8   15 1
    16    9   11 1
    17    9   16 1
    18   10   15 1
    19    1   18 1
    20    2   19 1
    21    3   20 1
    22    9   21 1
    23   10   22 1
    24   10   23 1
    25   10   24 1
    26   11   25 1
    27   11   26 1
    28   12   27 1
@<TRIPOS>Similarity
1.3024
@<TRIPOS>ShapeSim
0.8128
@<TRIPOS>PharmSim
0.4896
# END
# Name:		AE-848/36651006
# Created and modified by SHAFTS on Thu Mar 19 22:43:37 2015

# 

@<TRIPOS>MOLECULE
AE-848/36651006
   19    20     0
SMALL
USER_CHARGE


@<TRIPOS>ATOM
      1 C1          4.9181    2.4098    2.9319 C.1       1 <1>         0.0467
      2 C2          6.5707   -3.9477    1.1374 C.ar      1 <1>        -0.0871
      3 C3          7.8040   -3.3164    0.9601 C.ar      1 <1>        -0.0882
      4 C4          5.4091   -3.2052    1.3846 C.ar      1 <1>        -0.0669
      5 C5          7.9224   -1.9240    1.0227 C.ar      1 <1>        -0.0698
      6 C6          5.5097   -1.8052    1.4510 C.ar      1 <1>        -0.0269
      7 C7          6.7526   -1.2050    1.2700 C.ar      1 <1>        -0.0251
      8 C8          5.1674    0.2943    1.6364 C.2       1 <1>         0.0739
      9 C9          4.5055    1.5422    1.8270 C.2       1 <1>         0.1391
     10 N1          5.2677    3.0743    3.8168 N.1       1 <1>        -0.3850
     11 N2          4.5374   -0.8583    1.6773 N.2       1 <1>        -0.3610
     12 N3          3.5186    2.1492    1.1848 N.2       1 <1>        -0.2941
     13 N4          6.5039    0.1379    1.3938 N.pl3     1 <1>        -0.3026
     14 O1          3.0186    1.4562    0.1131 O.3       1 <1>        -0.4045
     15 H1          6.5104   -5.0319    1.0833 H         1 <1>         0.1169
     16 H2          8.6894   -3.9179    0.7690 H         1 <1>         0.1165
     17 H3          4.4554   -3.7045    1.5207 H         1 <1>         0.1449
     18 H4          8.8780   -1.4314    0.8852 H         1 <1>         0.1347
     19 H5          7.1885    0.8786    1.3185 H         1 <1>         0.3389
@<TRIPOS>BOND
     1    1    9 1
     2    1   10 3
     3    2    3 ar
     4    2    4 ar
     5    3    5 ar
     6    4    6 ar
     7    5    7 ar
     8    6    7 ar
     9    6   11 1
    10    7   13 1
    11    8    9 1
    12    8   11 2
    13    8   13 1
    14    9   12 2
    15   12   14 1
    16    2   15 1
    17    3   16 1
    18    4   17 1
    19    5   18 1
    20   13   19 1
@<TRIPOS>Similarity
1.2954
@<TRIPOS>ShapeSim
0.7265
@<TRIPOS>PharmSim
0.5689
# END
# Name:		AI-942/13331527
# Created and modified by SHAFTS on Thu Mar 19 22:43:37 2015

# 

@<TRIPOS>MOLECULE
AI-942/13331527
   23    24     0
SMALL
USER_CHARGE


@<TRIPOS>ATOM
      1 C1          8.1386   -2.8120    1.2731 C.ar      1 <1>        -0.1286
      2 C2          7.3266   -3.9343    1.1900 C.ar      1 <1>        -0.1167
      3 C3          7.5734   -1.5360    1.3437 C.ar      1 <1>        -0.0869
      4 C4          5.9363   -3.8070    1.1760 C.ar      1 <1>        -0.0733
      5 C5          5.3638   -0.1855    1.3930 C.2       1 <1>        -0.1932
      6 C6          6.1669   -1.3735    1.3315 C.ar      1 <1>        -0.0699
      7 C7          5.3698   -2.5193    1.2474 C.ar      1 <1>        -0.1363
      8 C8          4.0152   -0.4488    1.3551 C.2       1 <1>        -0.0381
      9 C9          3.0530    1.5600    0.2656 C.2       1 <1>         0.4683
     10 C10         1.5121   -0.1777    1.3867 C.3       1 <1>        -0.1218
     11 C11         2.8904    0.5108    1.3981 C.3       1 <1>        -0.0721
     12 O1          1.9613    2.0409   -0.1577 O.co2     1 <1>        -0.5000
     13 O2          4.2328    1.8259   -0.0979 O.co2     1 <1>        -0.5000
     14 S1          3.6926   -2.1189    1.2459 S.3       1 <1>         0.0642
     15 H1          9.2192   -2.9235    1.2843 H         1 <1>         0.1194
     16 H2          7.7753   -4.9223    1.1350 H         1 <1>         0.1264
     17 H3          8.2226   -0.6664    1.4075 H         1 <1>         0.1186
     18 H4          5.3086   -4.6913    1.1114 H         1 <1>         0.1255
     19 H5          5.7697    0.8167    1.4624 H         1 <1>         0.1302
     20 H6          1.4032   -0.7928    0.4864 H         1 <1>         0.0509
     21 H7          1.3749   -0.8285    2.2574 H         1 <1>         0.0476
     22 H8          0.6937    0.5507    1.3909 H         1 <1>         0.0718
     23 H9          2.9102    1.1060    2.3368 H         1 <1>         0.0942
@<TRIPOS>BOND
     1    1    2 ar
     2    1    3 ar
     3    2    4 ar
     4    3    6 ar
     5    4    7 ar
     6    5    6 1
     7    5    8 2
     8    6    7 ar
     9    7   14 1
    10    8   11 1
    11    8   14 1
    12    9   11 1
    13    9   12 1
    14    9   13 2
    15   10   11 1
    16    1   15 1
    17    2   16 1
    18    3   17 1
    19    4   18 1
    20    5   19 1
    21   10   20 1
    22   10   21 1
    23   10   22 1
    24   11   23 1
@<TRIPOS>Similarity
1.2942
@<TRIPOS>ShapeSim
0.8660
@<TRIPOS>PharmSim
0.4282
# END
# Name:		ZINC13123192
# Created and modified by SHAFTS on Thu Mar 19 22:43:37 2015

# 

@<TRIPOS>MOLECULE
ZINC13123192
   29    31     0
SMALL
USER_CHARGE


@<TRIPOS>ATOM
      1 C1          6.8136   -4.0126    1.0951 C.ar      1 <1>        -0.0932
      2 C2          7.9935   -3.2923    0.9217 C.ar      1 <1>        -0.0902
      3 C3          5.6045   -3.3564    1.3515 C.ar      1 <1>        -0.0847
      4 C4          8.0044   -1.8967    0.9998 C.ar      1 <1>        -0.0788
      5 C5          5.5891   -1.9497    1.4313 C.ar      1 <1>        -0.0726
      6 C6          4.5854   -0.9755    1.6716 C.2       1 <1>        -0.0755
      7 C7          6.7892   -1.2516    1.2562 C.ar      1 <1>        -0.0593
      8 C8          5.1760    0.2672    1.6254 C.2       1 <1>        -0.0525
      9 C9          4.4244    1.4750    1.8331 C.2       1 <1>        -0.0686
     10 C10         2.4265    0.2081    1.4781 C.3       1 <1>        -0.0073
     11 C11         3.1268   -1.0868    1.9587 C.3       1 <1>        -0.0178
     12 C12         5.1591    2.7626    2.0807 C.3       1 <1>        -0.0089
     13 C13         2.8693   -1.3273    3.4480 C.3       1 <1>        -0.0489
     14 N1          3.1303    1.4662    1.8331 N.2       1 <1>        -0.4433
     15 N2          6.5102    0.0932    1.3900 N.pl3     1 <1>        -0.3554
     16 H1          6.8307   -5.0974    1.0308 H         1 <1>         0.1133
     17 H2          8.9216   -3.8230    0.7249 H         1 <1>         0.1216
     18 H3          4.6929   -3.9313    1.4858 H         1 <1>         0.1339
     19 H4          8.9250   -1.3383    0.8666 H         1 <1>         0.1362
     20 H5          2.3253    0.1855    0.3851 H         1 <1>         0.1079
     21 H6          1.4091    0.2555    1.8829 H         1 <1>         0.1147
     22 H7          2.7052   -1.9319    1.4003 H         1 <1>         0.0913
     23 H8          5.3520    3.2552    1.1316 H         1 <1>         0.1047
     24 H9          6.0998    2.5502    2.5820 H         1 <1>         0.1022
     25 H10         4.5531    3.4071    2.7124 H         1 <1>         0.1013
     26 H11         3.2778   -0.5028    4.0280 H         1 <1>         0.0438
     27 H12         3.3467   -2.2546    3.7568 H         1 <1>         0.0472
     28 H13         1.7988   -1.3972    3.6275 H         1 <1>         0.0461
     29 H14         7.1937    0.8338    1.3138 H         1 <1>         0.2929
@<TRIPOS>BOND
     1    1    2 ar
     2    1    3 ar
     3    2    4 ar
     4    3    5 ar
     5    4    7 ar
     6    5    6 1
     7    5    7 ar
     8    6    8 2
     9    6   11 1
    10    7   15 1
    11    8    9 1
    12    8   15 1
    13    9   12 1
    14    9   14 2
    15   10   11 1
    16   10   14 1
    17   11   13 1
    18    1   16 1
    19    2   17 1
    20    3   18 1
    21    4   19 1
    22   10   20 1
    23   10   21 1
    24   11   22 1
    25   12   23 1
    26   12   24 1
    27   12   25 1
    28   13   26 1
    29   13   27 1
    30   13   28 1
    31   15   29 1
@<TRIPOS>Similarity
1.2938
@<TRIPOS>ShapeSim
0.7708
@<TRIPOS>PharmSim
0.5230
# END
# Name:		ZINC13123191
# Created and modified by SHAFTS on Thu Mar 19 22:43:37 2015

# 

@<TRIPOS>MOLECULE
ZINC13123191
   29    31     0
SMALL
USER_CHARGE


@<TRIPOS>ATOM
      1 C1          6.8122   -4.0122    1.0873 C.ar      1 <1>        -0.0932
      2 C2          7.9959   -3.2932    0.9348 C.ar      1 <1>        -0.0902
      3 C3          5.6010   -3.3550    1.3317 C.ar      1 <1>        -0.0847
      4 C4          8.0080   -1.8980    1.0201 C.ar      1 <1>        -0.0788
      5 C5          5.5881   -1.9493    1.4255 C.ar      1 <1>        -0.0726
      6 C6          4.5821   -0.9744    1.6529 C.2       1 <1>        -0.0755
      7 C7          6.7909   -1.2521    1.2653 C.ar      1 <1>        -0.0593
      8 C8          5.1788    0.2663    1.6407 C.2       1 <1>        -0.0525
      9 C9          4.4256    1.4746    1.8408 C.2       1 <1>        -0.0686
     10 C10         2.6409    0.1344    2.7018 C.3       1 <1>        -0.0073
     11 C11         3.1105   -1.0811    1.8653 C.3       1 <1>        -0.0178
     12 C12         5.0594    2.7971    1.5113 C.3       1 <1>        -0.0089
     13 C13         2.3591   -1.1520    0.5341 C.3       1 <1>        -0.0489
     14 N1          3.2080    1.4395    2.2778 N.2       1 <1>        -0.4433
     15 N2          6.5102    0.0932    1.3900 N.pl3     1 <1>        -0.3554
     16 H1          6.8277   -5.0965    1.0146 H         1 <1>         0.1133
     17 H2          8.9250   -3.8243    0.7436 H         1 <1>         0.1216
     18 H3          4.6859   -3.9287    1.4465 H         1 <1>         0.1339
     19 H4          8.9303   -1.3400    0.8980 H         1 <1>         0.1362
     20 H5          1.5475    0.2077    2.6742 H         1 <1>         0.1147
     21 H6          2.9158   -0.0168    3.7538 H         1 <1>         0.1079
     22 H7          2.8858   -1.9938    2.4312 H         1 <1>         0.0913
     23 H8          4.8510    3.0477    0.4747 H         1 <1>         0.1047
     24 H9          6.1335    2.7300    1.6639 H         1 <1>         0.1013
     25 H10         4.6512    3.5645    2.1638 H         1 <1>         0.1022
     26 H11         2.5636   -0.2576   -0.0500 H         1 <1>         0.0461
     27 H12         1.2897   -1.2222    0.7206 H         1 <1>         0.0472
     28 H13         2.6844   -2.0274   -0.0238 H         1 <1>         0.0438
     29 H14         7.1940    0.8338    1.3164 H         1 <1>         0.2929
@<TRIPOS>BOND
     1    1    2 ar
     2    1    3 ar
     3    2    4 ar
     4    3    5 ar
     5    4    7 ar
     6    5    6 1
     7    5    7 ar
     8    6    8 2
     9    6   11 1
    10    7   15 1
    11    8    9 1
    12    8   15 1
    13    9   12 1
    14    9   14 2
    15   10   11 1
    16   10   14 1
    17   11   13 1
    18    1   16 1
    19    2   17 1
    20    3   18 1
    21    4   19 1
    22   10   20 1
    23   10   21 1
    24   11   22 1
    25   12   23 1
    26   12   24 1
    27   12   25 1
    28   13   26 1
    29   13   27 1
    30   13   28 1
    31   15   29 1
@<TRIPOS>Similarity
1.2891
@<TRIPOS>ShapeSim
0.7661
@<TRIPOS>PharmSim
0.5230
# END
# Name:		AK-918/11907028
# Created and modified by SHAFTS on Thu Mar 19 22:43:37 2015

# 

@<TRIPOS>MOLECULE
AK-918/11907028
   37    39     0
SMALL
USER_CHARGE


@<TRIPOS>ATOM
      1 C1          4.1685   -0.3590    1.2306 C.2       1 <1>         0.5741
      2 C2          3.6033   -2.0918   -0.2529 C.2       1 <1>         0.5589
      3 C3          2.5286    1.4961   -0.3295 C.2       1 <1>         0.4647
      4 C4          7.5673   -2.2277    0.9586 C.3       1 <1>        -0.1276
      5 C5          6.8790   -3.3741    0.1684 C.3       1 <1>        -0.1272
      6 C6          6.0386   -3.2271    2.3936 C.3       1 <1>        -0.1201
      7 C7          5.3178   -1.3072    1.0695 C.3       1 <1>        -0.1928
      8 C8          4.5239   -2.5862    0.8183 C.3       1 <1>        -0.1170
      9 C9          6.4585   -1.8074    1.9570 C.3       1 <1>        -0.0541
     10 C10         5.5893   -3.6542    0.9712 C.3       1 <1>        -0.0790
     11 C11         0.9334    0.0673    1.9764 C.3       1 <1>        -0.1529
     12 C12        -0.3517    0.2584   -0.1675 C.3       1 <1>        -0.1401
     13 C13         2.1774   -0.0072   -0.2641 C.3       1 <1>         0.0942
     14 C14         0.8823   -0.3558    0.5040 C.3       1 <1>        -0.0910
     15 N1          3.2869   -0.7999    0.2195 N.am      1 <1>        -0.5813
     16 O1          2.7607    2.0617    0.7756 O.co2     1 <1>        -0.5000
     17 O2          4.0962    0.5990    1.9762 O.2       1 <1>        -0.4795
     18 O3          3.1803   -2.7113   -1.2100 O.2       1 <1>        -0.4640
     19 O4          2.5733    1.9864   -1.4950 O.co2     1 <1>        -0.5000
     20 H1          8.4488   -2.6066    1.4900 H         1 <1>         0.0740
     21 H2          7.8968   -1.4158    0.3021 H         1 <1>         0.0679
     22 H3          6.6595   -3.0874   -0.8651 H         1 <1>         0.0758
     23 H4          7.5320   -4.2536    0.1516 H         1 <1>         0.0648
     24 H5          6.8678   -3.8314    2.7792 H         1 <1>         0.0755
     25 H6          5.2350   -3.2234    3.1381 H         1 <1>         0.0816
     26 H7          5.7769   -0.9178    0.1423 H         1 <1>         0.0951
     27 H8          3.8022   -2.7838    1.6355 H         1 <1>         0.1359
     28 H9          6.7874   -1.1340    2.7487 H         1 <1>         0.1167
     29 H10         5.2176   -4.6766    0.8840 H         1 <1>         0.1095
     30 H11         1.0698    1.1511    2.0579 H         1 <1>         0.0435
     31 H12         1.7640   -0.4107    2.5063 H         1 <1>         0.0364
     32 H13         0.0065   -0.1876    2.4991 H         1 <1>         0.1074
     33 H14        -0.2807    1.3515   -0.1771 H         1 <1>         0.0381
     34 H15        -1.2642   -0.0101    0.3750 H         1 <1>         0.0535
     35 H16        -0.4595   -0.0769   -1.2043 H         1 <1>         0.0510
     36 H17         2.0433   -0.3025   -1.3136 H         1 <1>         0.0967
     37 H18         0.7451   -1.4447    0.4785 H         1 <1>         0.0800
@<TRIPOS>BOND
     1    1    7 1
     2    1   15 am
     3    1   17 2
     4    2    8 1
     5    2   15 am
     6    2   18 2
     7    3   13 1
     8    3   16 1
     9    3   19 2
    10    4    5 1
    11    4    9 1
    12    5   10 1
    13    6    9 1
    14    6   10 1
    15    7    8 1
    16    7    9 1
    17    8   10 1
    18   11   14 1
    19   12   14 1
    20   13   14 1
    21   13   15 1
    22    4   20 1
    23    4   21 1
    24    5   22 1
    25    5   23 1
    26    6   24 1
    27    6   25 1
    28    7   26 1
    29    8   27 1
    30    9   28 1
    31   10   29 1
    32   11   30 1
    33   11   31 1
    34   11   32 1
    35   12   33 1
    36   12   34 1
    37   12   35 1
    38   13   36 1
    39   14   37 1
@<TRIPOS>Similarity
1.2848
@<TRIPOS>ShapeSim
0.7869
@<TRIPOS>PharmSim
0.4979
# END
# Name:		AQ-360/14045179
# Created and modified by SHAFTS on Thu Mar 19 22:43:37 2015

# 

@<TRIPOS>MOLECULE
AQ-360/14045179
   28    29     0
SMALL
USER_CHARGE


@<TRIPOS>ATOM
      1 C1          8.0761   -3.2153    0.7024 C.ar      1 <1>        -0.0793
      2 C2          7.0290   -4.0622    1.0565 C.ar      1 <1>        -0.0804
      3 C3          7.9207   -1.8337    0.8090 C.ar      1 <1>        -0.0635
      4 C4          5.8269   -3.5291    1.5229 C.ar      1 <1>        -0.0652
      5 C5          6.7085   -1.2923    1.2542 C.ar      1 <1>        -0.0243
      6 C6          5.6591   -2.1424    1.6220 C.ar      1 <1>        -0.0329
      7 C7          5.4621    0.8260    1.6282 C.2       1 <1>         0.0599
      8 C8          1.6419    0.4439    1.3491 C.2       1 <1>         0.0245
      9 C9          4.1415    0.0947    1.4413 C.3       1 <1>         0.0903
     10 C10         0.2139   -1.5946    1.2540 C.3       1 <1>        -0.0000
     11 C11         2.9569    0.9209    1.9305 C.3       1 <1>         0.0647
     12 N1          6.6137    0.1077    1.3728 N.am      1 <1>        -0.3060
     13 N2          1.3987   -0.8823    1.6753 N.am      1 <1>        -0.3488
     14 O1          5.5047    2.0325    1.8808 O.2       1 <1>        -0.5367
     15 O2          0.9001    1.1574    0.6794 O.2       1 <1>        -0.5606
     16 S1          4.1501   -1.4957    2.3062 S.3       1 <1>        -0.1615
     17 H1          9.0153   -3.6307    0.3488 H         1 <1>         0.1342
     18 H2          7.1519   -5.1386    0.9801 H         1 <1>         0.1298
     19 H3          8.7505   -1.1862    0.5355 H         1 <1>         0.1451
     20 H4          5.0296   -4.2101    1.8119 H         1 <1>         0.1491
     21 H5          4.0178   -0.0927    0.3676 H         1 <1>         0.2256
     22 H6         -0.5778   -1.4810    1.9989 H         1 <1>         0.1051
     23 H7          0.4350   -2.6588    1.1351 H         1 <1>         0.0994
     24 H8         -0.1431   -1.2021    0.2981 H         1 <1>         0.0998
     25 H9          3.1070    1.9672    1.6491 H         1 <1>         0.1694
     26 H10         2.9025    0.8619    3.0211 H         1 <1>         0.1736
     27 H11         7.4806    0.6333    1.2955 H         1 <1>         0.3215
     28 H12         2.0859   -1.3762    2.2371 H         1 <1>         0.2674
@<TRIPOS>BOND
     1    1    2 ar
     2    1    3 ar
     3    2    4 ar
     4    3    5 ar
     5    4    6 ar
     6    5    6 ar
     7    5   12 1
     8    6   16 1
     9    7    9 1
    10    7   12 am
    11    7   14 2
    12    8   11 1
    13    8   13 am
    14    8   15 2
    15    9   11 1
    16    9   16 1
    17   10   13 1
    18    1   17 1
    19    2   18 1
    20    3   19 1
    21    4   20 1
    22    9   21 1
    23   10   22 1
    24   10   23 1
    25   10   24 1
    26   11   25 1
    27   11   26 1
    28   12   27 1
    29   13   28 1
@<TRIPOS>Similarity
1.2792
@<TRIPOS>ShapeSim
0.8413
@<TRIPOS>PharmSim
0.4379
# END
# Name:		AK-968/41170120
# Created and modified by SHAFTS on Thu Mar 19 22:43:37 2015

# 

@<TRIPOS>MOLECULE
AK-968/41170120
   34    35     0
SMALL
USER_CHARGE


@<TRIPOS>ATOM
      1 C1          8.1462   -3.7604    1.1266 C.ar      1 <1>        -0.0953
      2 C2          6.9165   -4.4119    1.1453 C.ar      1 <1>        -0.0938
      3 C3          8.2032   -2.3722    1.2509 C.ar      1 <1>        -0.0900
      4 C4          5.7391   -3.6774    1.2887 C.ar      1 <1>        -0.0865
      5 C5          7.0667   -0.2186    1.5227 C.ar      1 <1>        -0.0750
      6 C6          5.8893    0.5160    1.6659 C.ar      1 <1>        -0.0610
      7 C7          4.6025   -1.5239    1.5601 C.ar      1 <1>        -0.0559
      8 C8          7.0282   -1.6168    1.3961 C.ar      1 <1>        -0.0803
      9 C9          5.7776   -2.2792    1.4151 C.ar      1 <1>        -0.0738
     10 C10         4.6595   -0.1355    1.6846 C.ar      1 <1>        -0.0311
     11 C11         2.4592    0.9037   -0.2976 C.2       1 <1>         0.0865
     12 C12        -0.0292    1.5316   -2.1128 C.3       1 <1>        -0.0262
     13 C13         2.4306    2.6790    1.4714 C.3       1 <1>         0.0038
     14 C14         1.4456    1.3346   -2.3916 C.3       1 <1>         0.0238
     15 C15         3.2331    1.5628    0.8262 C.3       1 <1>         0.0895
     16 O1          2.1055   -0.2683   -0.3020 O.2       1 <1>        -0.5051
     17 O2          3.5119    0.5825    1.8249 O.3       1 <1>        -0.4370
     18 O3          2.1998    1.8199   -1.2762 O.3       1 <1>        -0.4224
     19 H1          9.0623   -4.3329    1.0143 H         1 <1>         0.1156
     20 H2          6.8725   -5.4930    1.0487 H         1 <1>         0.1192
     21 H3          9.1749   -1.8831    1.2333 H         1 <1>         0.1260
     22 H4          4.7890   -4.2076    1.2999 H         1 <1>         0.1286
     23 H5          8.0170    0.3115    1.5099 H         1 <1>         0.1411
     24 H6          5.9395    1.5972    1.7619 H         1 <1>         0.1431
     25 H7          3.6327   -2.0180    1.5770 H         1 <1>         0.1590
     26 H8         -0.3344    0.9806   -1.2191 H         1 <1>         0.0674
     27 H9         -0.2564    2.5930   -1.9687 H         1 <1>         0.0730
     28 H10        -0.6312    1.1897   -2.9614 H         1 <1>         0.0674
     29 H11         1.4743    2.3164    1.8612 H         1 <1>         0.0922
     30 H12         2.9941    3.1313    2.2946 H         1 <1>         0.0945
     31 H13         2.2229    3.4785    0.7510 H         1 <1>         0.0971
     32 H14         1.7443    1.8884   -3.2868 H         1 <1>         0.1361
     33 H15         1.6710    0.2736   -2.5347 H         1 <1>         0.1362
     34 H16         4.1872    1.9355    0.4398 H         1 <1>         0.2336
@<TRIPOS>BOND
     1    1    2 ar
     2    1    3 ar
     3    2    4 ar
     4    3    8 ar
     5    4    9 ar
     6    5    6 ar
     7    5    8 ar
     8    6   10 ar
     9    7    9 ar
    10    7   10 ar
    11    8    9 ar
    12   10   17 1
    13   11   15 1
    14   11   16 2
    15   11   18 1
    16   12   14 1
    17   13   15 1
    18   14   18 1
    19   15   17 1
    20    1   19 1
    21    2   20 1
    22    3   21 1
    23    4   22 1
    24    5   23 1
    25    6   24 1
    26    7   25 1
    27   12   26 1
    28   12   27 1
    29   12   28 1
    30   13   29 1
    31   13   30 1
    32   13   31 1
    33   14   32 1
    34   14   33 1
    35   15   34 1
@<TRIPOS>Similarity
1.2779
@<TRIPOS>ShapeSim
0.7989
@<TRIPOS>PharmSim
0.4791
# END
# Name:		AQ-086/11638134
# Created and modified by SHAFTS on Thu Mar 19 22:43:37 2015

# 

@<TRIPOS>MOLECULE
AQ-086/11638134
   23    24     0
SMALL
USER_CHARGE


@<TRIPOS>ATOM
      1 C1          7.6947   -3.4106    0.9822 C.ar      1 <1>        -0.1329
      2 C2          6.4146   -3.8758    0.6724 C.ar      1 <1>        -0.1110
      3 C3          7.8947   -2.1051    1.4483 C.ar      1 <1>        -0.0699
      4 C4          5.2899   -3.0566    0.8165 C.ar      1 <1>        -0.1027
      5 C5          5.4201    0.3365    1.9816 C.2       1 <1>         0.2608
      6 C6          6.7759   -1.2682    1.5989 C.ar      1 <1>         0.0410
      7 C7          5.5129   -1.7604    1.2822 C.ar      1 <1>         0.0472
      8 C8          3.3238    0.7285   -0.7712 C.2       1 <1>         0.4663
      9 C9          2.8244   -0.5504   -0.0924 C.3       1 <1>        -0.1729
     10 C10         3.2312   -0.7048    1.3683 C.3       1 <1>         0.1253
     11 N1          6.6985    0.0357    2.0316 N.2       1 <1>        -0.5087
     12 N2          4.6652   -0.7128    1.5364 N.pl3     1 <1>        -0.4820
     13 O1          4.5842    0.8187   -0.8367 O.co2     1 <1>        -0.5000
     14 O2          2.4430    1.5323   -1.1822 O.co2     1 <1>        -0.5000
     15 H1          8.5496   -4.0710    0.8600 H         1 <1>         0.1244
     16 H2          6.2888   -4.8939    0.3123 H         1 <1>         0.1264
     17 H3          8.8933   -1.7534    1.6868 H         1 <1>         0.1239
     18 H4          4.2966   -3.4185    0.5759 H         1 <1>         0.1230
     19 H5          4.9858    1.2891    2.2528 H         1 <1>         0.2113
     20 H6          3.1983   -1.4037   -0.6727 H         1 <1>         0.0722
     21 H7          1.7301   -0.5664   -0.1755 H         1 <1>         0.0710
     22 H8          2.8415   -1.6390    1.7909 H         1 <1>         0.0913
     23 H9          2.8291    0.1129    1.9790 H         1 <1>         0.0987
@<TRIPOS>BOND
     1    1    2 ar
     2    1    3 ar
     3    2    4 ar
     4    3    6 ar
     5    4    7 ar
     6    5   11 2
     7    5   12 1
     8    6    7 ar
     9    6   11 1
    10    7   12 1
    11    8    9 1
    12    8   13 1
    13    8   14 2
    14    9   10 1
    15   10   12 1
    16    1   15 1
    17    2   16 1
    18    3   17 1
    19    4   18 1
    20    5   19 1
    21    9   20 1
    22    9   21 1
    23   10   22 1
    24   10   23 1
@<TRIPOS>Similarity
1.2777
@<TRIPOS>ShapeSim
0.7591
@<TRIPOS>PharmSim
0.5185
# END
# Name:		Building
# Created and modified by SHAFTS on Thu Mar 19 22:43:37 2015

# 

@<TRIPOS>MOLECULE
Building
   28    30     0
SMALL
USER_CHARGE


@<TRIPOS>ATOM
      1 C1          7.9389   -2.8377    1.4470 C.ar      1 <1>        -0.1388
      2 C2          7.3374   -4.0682    1.1914 C.ar      1 <1>        -0.0845
      3 C3          7.1739   -1.6685    1.5227 C.ar      1 <1>        -0.0636
      4 C4          5.9562   -4.1701    1.0041 C.ar      1 <1>        -0.1316
      5 C5          5.7788   -1.7439    1.3362 C.ar      1 <1>        -0.0984
      6 C6          4.7206   -0.7930    1.3425 C.2       1 <1>        -0.1430
      7 C7          5.2015   -2.9938    1.0823 C.ar      1 <1>         0.1098
      8 C8          3.5505   -1.4795    1.1022 C.2       1 <1>         0.0158
      9 C9          3.5482    1.6042   -0.4291 C.2       1 <1>         0.4572
     10 C10         4.7371    0.6830    1.5726 C.3       1 <1>        -0.0497
     11 C11         2.2051   -0.8764    1.0058 C.3       1 <1>         0.0790
     12 C12         3.4472    1.3594    1.0653 C.3       1 <1>        -0.0142
     13 N1          3.8428   -2.8019    0.9429 N.pl3     1 <1>        -0.5742
     14 N2          2.2346    0.5576    1.4911 N.4       1 <1>        -0.4927
     15 O1          2.4510    1.5906   -1.0529 O.co2     1 <1>        -0.5000
     16 O2          4.7218    1.7905   -0.8572 O.co2     1 <1>        -0.5000
     17 H1          9.0150   -2.7837    1.5893 H         1 <1>         0.1293
     18 H2          7.9511   -4.9638    1.1357 H         1 <1>         0.1315
     19 H3          7.6573   -0.7167    1.7240 H         1 <1>         0.1286
     20 H4          5.4897   -5.1291    0.8049 H         1 <1>         0.1246
     21 H5          4.8611    0.8908    2.6447 H         1 <1>         0.1196
     22 H6          5.6184    1.1054    1.0673 H         1 <1>         0.0975
     23 H7          1.8311   -0.8473   -0.0225 H         1 <1>         0.1403
     24 H8          1.4877   -1.4046    1.6433 H         1 <1>         0.1365
     25 H9          3.3170    2.3609    1.5716 H         1 <1>         0.1393
     26 H10         3.1708   -3.5330    0.7528 H         1 <1>         0.4198
     27 H11         1.3818    1.0411    1.1585 H         1 <1>         0.4408
     28 H12         2.1608    0.5647    2.5232 H         1 <1>         0.4349
@<TRIPOS>BOND
     1    1    2 ar
     2    1    3 ar
     3    2    4 ar
     4    3    5 ar
     5    4    7 ar
     6    5    6 1
     7    5    7 ar
     8    6    8 2
     9    6   10 1
    10    7   13 1
    11    8   11 1
    12    8   13 1
    13    9   12 1
    14    9   15 1
    15    9   16 2
    16   10   12 1
    17   11   14 1
    18   12   14 1
    19    1   17 1
    20    2   18 1
    21    3   19 1
    22    4   20 1
    23   10   21 1
    24   10   22 1
    25   11   23 1
    26   11   24 1
    27   12   25 1
    28   13   26 1
    29   14   27 1
    30   14   28 1
@<TRIPOS>Similarity
1.2749
@<TRIPOS>ShapeSim
0.8032
@<TRIPOS>PharmSim
0.4717
# END
# Name:		AE-848/00990055
# Created and modified by SHAFTS on Thu Mar 19 22:43:37 2015

# 

@<TRIPOS>MOLECULE
AE-848/00990055
   27    27     0
SMALL
USER_CHARGE


@<TRIPOS>ATOM
      1 C1          2.8466    1.6749    0.0070 C.2       1 <1>         0.4672
      2 C2          7.4498   -3.8703    0.6126 C.3       1 <1>        -0.1199
      3 C3          5.9613   -3.9643    0.9342 C.3       1 <1>        -0.1142
      4 C4          7.8679   -2.4440    0.2681 C.3       1 <1>        -0.1171
      5 C5          5.5580   -2.9810    2.0340 C.3       1 <1>        -0.0967
      6 C6          7.4677   -1.4569    1.3659 C.3       1 <1>        -0.1162
      7 C7          5.9847   -1.5358    1.7486 C.3       1 <1>        -0.0479
      8 C8          2.4380    0.3584    0.6793 C.3       1 <1>        -0.1430
      9 C9          3.5109   -0.3742    1.4737 C.3       1 <1>        -0.0446
     10 O1          3.6703    2.3933    0.6374 O.co2     1 <1>        -0.5000
     11 O2          2.3090    1.8714   -1.1208 O.co2     1 <1>        -0.5000
     12 S1          4.9374   -0.7872    0.4458 S.3       1 <1>        -0.2982
     13 H1          8.0352   -4.2299    1.4675 H         1 <1>         0.0601
     14 H2          7.6822   -4.5317   -0.2322 H         1 <1>         0.0623
     15 H3          5.3754   -3.7649    0.0299 H         1 <1>         0.0622
     16 H4          5.7203   -4.9859    1.2528 H         1 <1>         0.0643
     17 H5          8.9546   -2.4068    0.1238 H         1 <1>         0.0614
     18 H6          7.4095   -2.1442   -0.6809 H         1 <1>         0.0637
     19 H7          4.4592   -3.0363    2.1672 H         1 <1>         0.0693
     20 H8          5.9934   -3.3247    2.9921 H         1 <1>         0.0696
     21 H9          8.1016   -1.6414    2.2549 H         1 <1>         0.0727
     22 H10         7.7203   -0.4331    1.0248 H         1 <1>         0.0669
     23 H11         5.8298   -0.9363    2.6685 H         1 <1>         0.0822
     24 H12         1.5570    0.5343    1.3103 H         1 <1>         0.0732
     25 H13         2.1068   -0.3010   -0.1334 H         1 <1>         0.0730
     26 H14         3.1196   -1.2977    1.9117 H         1 <1>         0.0798
     27 H15         3.8607    0.2606    2.2942 H         1 <1>         0.0782
@<TRIPOS>BOND
     1    1    8 1
     2    1   10 1
     3    1   11 2
     4    2    3 1
     5    2    4 1
     6    3    5 1
     7    4    6 1
     8    5    7 1
     9    6    7 1
    10    7   12 1
    11    8    9 1
    12    9   12 1
    13    2   13 1
    14    2   14 1
    15    3   15 1
    16    3   16 1
    17    4   17 1
    18    4   18 1
    19    5   19 1
    20    5   20 1
    21    6   21 1
    22    6   22 1
    23    7   23 1
    24    8   24 1
    25    8   25 1
    26    9   26 1
    27    9   27 1
@<TRIPOS>Similarity
1.2727
@<TRIPOS>ShapeSim
0.7966
@<TRIPOS>PharmSim
0.4761
# END
# Name:		AI-204/31682043
# Created and modified by SHAFTS on Thu Mar 19 22:43:37 2015

# 

@<TRIPOS>MOLECULE
AI-204/31682043
   30    31     0
SMALL
USER_CHARGE


@<TRIPOS>ATOM
      1 C1          8.0762   -3.2153    0.7024 C.ar      1 <1>        -0.0785
      2 C2          7.0290   -4.0622    1.0565 C.ar      1 <1>        -0.0798
      3 C3          7.9208   -1.8336    0.8089 C.ar      1 <1>        -0.0629
      4 C4          5.8268   -3.5291    1.5230 C.ar      1 <1>        -0.0649
      5 C5          6.7085   -1.2924    1.2542 C.ar      1 <1>        -0.0239
      6 C6          5.6592   -2.1423    1.6220 C.ar      1 <1>        -0.0332
      7 C7          5.4621    0.8260    1.6282 C.2       1 <1>         0.0668
      8 C8          1.6820    0.4302    1.2678 C.2       1 <1>         0.0682
      9 C9          4.1416    0.0946    1.4412 C.3       1 <1>         0.0949
     10 C10         2.8392    0.8551    3.4505 C.3       1 <1>        -0.0081
     11 C11         0.3125   -1.4835    1.0172 C.3       1 <1>         0.0303
     12 C12         2.9570    0.9209    1.9304 C.3       1 <1>         0.0728
     13 N1          6.6137    0.1077    1.3728 N.am      1 <1>        -0.3042
     14 O1          5.5047    2.0324    1.8808 O.2       1 <1>        -0.5287
     15 O2          0.9587    1.1119    0.5532 O.2       1 <1>        -0.5196
     16 O3          1.4807   -0.8832    1.5860 O.3       1 <1>        -0.4277
     17 S1          4.1501   -1.4956    2.3062 S.3       1 <1>        -0.1612
     18 H1          9.0151   -3.6308    0.3488 H         1 <1>         0.1358
     19 H2          7.1518   -5.1386    0.9802 H         1 <1>         0.1307
     20 H3          8.7506   -1.1863    0.5354 H         1 <1>         0.1459
     21 H4          5.0296   -4.2101    1.8121 H         1 <1>         0.1506
     22 H5          4.0179   -0.0927    0.3676 H         1 <1>         0.2276
     23 H6          2.6952   -0.1774    3.7853 H         1 <1>         0.0766
     24 H7          1.9857    1.4466    3.8001 H         1 <1>         0.0852
     25 H8          3.7368    1.2486    3.9405 H         1 <1>         0.0816
     26 H9          0.2477   -2.5274    1.3334 H         1 <1>         0.1341
     27 H10         0.3653   -1.4243   -0.0727 H         1 <1>         0.1348
     28 H11        -0.5706   -0.9437    1.3671 H         1 <1>         0.1507
     29 H12         3.0989    1.9725    1.6526 H         1 <1>         0.1854
     30 H13         7.4805    0.6332    1.2954 H         1 <1>         0.3209
@<TRIPOS>BOND
     1    1    2 ar
     2    1    3 ar
     3    2    4 ar
     4    3    5 ar
     5    4    6 ar
     6    5    6 ar
     7    5   13 1
     8    6   17 1
     9    7    9 1
    10    7   13 am
    11    7   14 2
    12    8   12 1
    13    8   15 2
    14    8   16 1
    15    9   12 1
    16    9   17 1
    17   10   12 1
    18   11   16 1
    19    1   18 1
    20    2   19 1
    21    3   20 1
    22    4   21 1
    23    9   22 1
    24   10   23 1
    25   10   24 1
    26   10   25 1
    27   11   26 1
    28   11   27 1
    29   11   28 1
    30   12   29 1
    31   13   30 1
@<TRIPOS>Similarity
1.2700
@<TRIPOS>ShapeSim
0.8321
@<TRIPOS>PharmSim
0.4379
# END
# Name:		AA-516/30131054
# Created and modified by SHAFTS on Thu Mar 19 22:43:37 2015

# 

@<TRIPOS>MOLECULE
AA-516/30131054
   22    23     0
SMALL
USER_CHARGE


@<TRIPOS>ATOM
      1 C1          3.3450    1.6753    0.8848 C.1       1 <1>        -0.0702
      2 C2          5.6623    0.3900    1.7510 C.ar      1 <1>        -0.0672
      3 C3          6.9305   -0.1832    1.8616 C.ar      1 <1>        -0.0681
      4 C4          4.7313   -1.7319    1.0674 C.ar      1 <1>        -0.0696
      5 C5          7.7552   -3.8984    1.1416 C.2       1 <1>        -0.0611
      6 C6          6.0046   -2.3427    1.1701 C.ar      1 <1>        -0.0725
      7 C7          4.5726   -0.3743    1.3583 C.ar      1 <1>        -0.0493
      8 C8          6.4122   -3.6976    0.9283 C.2       1 <1>        -0.0866
      9 C9          7.0870   -1.5520    1.5677 C.ar      1 <1>        -0.0591
     10 C10         5.4910   -4.7774    0.4935 C.3       1 <1>        -0.0342
     11 C11         3.2245    0.2544    1.2446 C.3       1 <1>         0.0810
     12 N1          3.4390    2.7967    0.6021 N.1       1 <1>        -0.4549
     13 S1          8.5450   -2.4703    1.6336 S.3       1 <1>        -0.2018
     14 H1          5.5390    1.4464    1.9770 H         1 <1>         0.1462
     15 H2          7.7779    0.4229    2.1698 H         1 <1>         0.1478
     16 H3          3.8709   -2.3224    0.7602 H         1 <1>         0.1435
     17 H4          8.3129   -4.8183    1.0328 H         1 <1>         0.1749
     18 H5          5.0587   -5.2932    1.3629 H         1 <1>         0.0660
     19 H6          4.6644   -4.3839   -0.1168 H         1 <1>         0.0643
     20 H7          6.0075   -5.5257   -0.1264 H         1 <1>         0.0655
     21 H8          2.6746    0.1596    2.1907 H         1 <1>         0.2023
     22 H9          2.6188   -0.2663    0.4909 H         1 <1>         0.2032
@<TRIPOS>BOND
     1    1   11 1
     2    1   12 3
     3    2    3 ar
     4    2    7 ar
     5    3    9 ar
     6    4    6 ar
     7    4    7 ar
     8    5    8 2
     9    5   13 1
    10    6    8 1
    11    6    9 ar
    12    7   11 1
    13    8   10 1
    14    9   13 1
    15    2   14 1
    16    3   15 1
    17    4   16 1
    18    5   17 1
    19   10   18 1
    20   10   19 1
    21   10   20 1
    22   11   21 1
    23   11   22 1
@<TRIPOS>Similarity
1.2681
@<TRIPOS>ShapeSim
0.7716
@<TRIPOS>PharmSim
0.4964
# END
# Name:		AK-928/13228049
# Created and modified by SHAFTS on Thu Mar 19 22:43:37 2015

# 

@<TRIPOS>MOLECULE
AK-928/13228049
   20    21     0
SMALL
USER_CHARGE


@<TRIPOS>ATOM
      1 C1          7.7390   -2.6959    1.0408 C.ar      1 <1>        -0.1546
      2 C2          6.8978   -3.7072    1.5010 C.ar      1 <1>        -0.0955
      3 C3          7.2065   -1.4650    0.6537 C.ar      1 <1>        -0.0777
      4 C4          5.5223   -3.4906    1.5731 C.ar      1 <1>        -0.1492
      5 C5          5.8258   -1.2423    0.7200 C.ar      1 <1>        -0.1180
      6 C6          4.9857   -2.2627    1.1775 C.ar      1 <1>         0.1290
      7 C7          5.2615    0.0447    0.3373 C.2       1 <1>        -0.0894
      8 C8          3.9310    0.1514    0.3305 C.2       1 <1>        -0.1704
      9 C9          3.3489    1.4363   -0.0621 C.2       1 <1>         0.4849
     10 C10         3.0159   -0.9727    0.6982 C.3       1 <1>         0.1125
     11 O1          3.6795    2.4181    0.6608 O.co2     1 <1>        -0.5000
     12 O2          2.5921    1.3956   -1.0728 O.co2     1 <1>        -0.5000
     13 O3          3.6295   -2.1259    1.2960 O.3       1 <1>        -0.3182
     14 H1          8.8108   -2.8639    0.9878 H         1 <1>         0.1216
     15 H2          7.3133   -4.6631    1.8061 H         1 <1>         0.1243
     16 H3          7.8796   -0.6859    0.3039 H         1 <1>         0.1273
     17 H4          4.8743   -4.2838    1.9363 H         1 <1>         0.1291
     18 H5          5.9227    0.8588    0.0640 H         1 <1>         0.1396
     19 H6          2.2694   -0.6137    1.4155 H         1 <1>         0.1300
     20 H7          2.4752   -1.3129   -0.1924 H         1 <1>         0.0641
@<TRIPOS>BOND
     1    1    2 ar
     2    1    3 ar
     3    2    4 ar
     4    3    5 ar
     5    4    6 ar
     6    5    6 ar
     7    5    7 1
     8    6   13 1
     9    7    8 2
    10    8    9 1
    11    8   10 1
    12    9   11 1
    13    9   12 2
    14   10   13 1
    15    1   14 1
    16    2   15 1
    17    3   16 1
    18    4   17 1
    19    7   18 1
    20   10   19 1
    21   10   20 1
@<TRIPOS>Similarity
1.2673
@<TRIPOS>ShapeSim
0.7207
@<TRIPOS>PharmSim
0.5466
# END
# Name:		AI-204/31682043
# Created and modified by SHAFTS on Thu Mar 19 22:43:37 2015

# 

@<TRIPOS>MOLECULE
AI-204/31682043
   30    31     0
SMALL
USER_CHARGE


@<TRIPOS>ATOM
      1 C1          7.7996   -3.5519    0.8438 C.ar      1 <1>        -0.0778
      2 C2          6.5648   -4.1918    0.9022 C.ar      1 <1>        -0.0793
      3 C3          7.8836   -2.1797    1.0761 C.ar      1 <1>        -0.0620
      4 C4          5.4138   -3.4609    1.1985 C.ar      1 <1>        -0.0650
      5 C5          6.7284   -1.4380    1.3531 C.ar      1 <1>        -0.0236
      6 C6          5.4882   -2.0800    1.4233 C.ar      1 <1>        -0.0335
      7 C7          5.8559    0.8562    1.7346 C.2       1 <1>         0.0629
      8 C8          2.8362    0.6092   -0.5755 C.2       1 <1>         0.0669
      9 C9          4.4611    0.4524    1.3031 C.3       1 <1>         0.0938
     10 C10         5.0341    1.8041   -0.7364 C.3       1 <1>        -0.0086
     11 C11         0.8307   -0.6392   -0.4336 C.3       1 <1>         0.0316
     12 C12         4.3095    0.5682   -0.2103 C.3       1 <1>         0.0721
     13 N1          6.8740   -0.0609    1.6016 N.am      1 <1>        -0.3046
     14 O1          6.0784    2.0172    2.0914 O.2       1 <1>        -0.5342
     15 O2          2.2893    1.5280   -1.1714 O.2       1 <1>        -0.5218
     16 O3          2.2289   -0.5368   -0.1455 O.3       1 <1>        -0.4269
     17 S1          4.0128   -1.2016    1.8835 S.3       1 <1>        -0.1621
     18 H1          8.6959   -4.1198    0.6123 H         1 <1>         0.1367
     19 H2          6.4953   -5.2574    0.7060 H         1 <1>         0.1319
     20 H3          8.8583   -1.6976    1.0453 H         1 <1>         0.1478
     21 H4          4.4602   -3.9831    1.2453 H         1 <1>         0.1501
     22 H5          3.7651    1.1886    1.7658 H         1 <1>         0.2296
     23 H6          4.6290    2.7148   -0.2829 H         1 <1>         0.0798
     24 H7          4.9213    1.8877   -1.8228 H         1 <1>         0.0811
     25 H8          6.1070    1.7642   -0.5172 H         1 <1>         0.0802
     26 H9          0.4472   -1.5875   -0.0490 H         1 <1>         0.1369
     27 H10         0.6753   -0.5824   -1.5139 H         1 <1>         0.1361
     28 H11         0.3063    0.1871    0.0519 H         1 <1>         0.1522
     29 H12         4.7533   -0.3097   -0.6954 H         1 <1>         0.1849
     30 H13         7.8265    0.2911    1.6916 H         1 <1>         0.3242
@<TRIPOS>BOND
     1    1    2 ar
     2    1    3 ar
     3    2    4 ar
     4    3    5 ar
     5    4    6 ar
     6    5    6 ar
     7    5   13 1
     8    6   17 1
     9    7    9 1
    10    7   13 am
    11    7   14 2
    12    8   12 1
    13    8   15 2
    14    8   16 1
    15    9   12 1
    16    9   17 1
    17   10   12 1
    18   11   16 1
    19    1   18 1
    20    2   19 1
    21    3   20 1
    22    4   21 1
    23    9   22 1
    24   10   23 1
    25   10   24 1
    26   10   25 1
    27   11   26 1
    28   11   27 1
    29   11   28 1
    30   12   29 1
    31   13   30 1
@<TRIPOS>Similarity
1.2614
@<TRIPOS>ShapeSim
0.7656
@<TRIPOS>PharmSim
0.4958
# END
# Name:		AK-968/41170120
# Created and modified by SHAFTS on Thu Mar 19 22:43:37 2015

# 

@<TRIPOS>MOLECULE
AK-968/41170120
   34    35     0
SMALL
USER_CHARGE


@<TRIPOS>ATOM
      1 C1          8.3093   -3.5541    1.4686 C.ar      1 <1>        -0.0953
      2 C2          7.1662   -4.3278    1.6468 C.ar      1 <1>        -0.0938
      3 C3          8.1968   -2.1779    1.2690 C.ar      1 <1>        -0.0900
      4 C4          5.9067   -3.7286    1.6263 C.ar      1 <1>        -0.0865
      5 C5          6.8053   -0.1738    1.0456 C.ar      1 <1>        -0.0750
      6 C6          5.5456    0.4256    1.0249 C.ar      1 <1>        -0.0610
      7 C7          4.5149   -1.7245    1.4027 C.ar      1 <1>        -0.0559
      8 C8          6.9370   -1.5577    1.2452 C.ar      1 <1>        -0.0802
      9 C9          5.7748   -2.3446    1.4265 C.ar      1 <1>        -0.0738
     10 C10         4.4026   -0.3483    1.2031 C.ar      1 <1>        -0.0311
     11 C11         2.4626    0.6156   -1.0678 C.2       1 <1>         0.0865
     12 C12         3.6042   -0.5555   -4.3440 C.3       1 <1>        -0.0262
     13 C13         0.8497   -0.0475    0.7324 C.3       1 <1>         0.0038
     14 C14         3.1469    0.4692   -3.3280 C.3       1 <1>         0.0239
     15 C15         2.2574   -0.2100    0.1860 C.3       1 <1>         0.0895
     16 O1          2.2937    1.8263   -1.1367 O.2       1 <1>        -0.5051
     17 O2          3.1746    0.2381    1.1828 O.3       1 <1>        -0.4370
     18 O3          2.8862   -0.1908   -2.0851 O.3       1 <1>        -0.4224
     19 H1          9.2893   -4.0216    1.4841 H         1 <1>         0.1155
     20 H2          7.2541   -5.3994    1.8026 H         1 <1>         0.1192
     21 H3          9.1032   -1.5919    1.1313 H         1 <1>         0.1260
     22 H4          5.0269   -4.3532    1.7671 H         1 <1>         0.1286
     23 H5          7.6851    0.4505    0.9034 H         1 <1>         0.1411
     24 H6          5.4640    1.4978    0.8684 H         1 <1>         0.1430
     25 H7          3.6111   -2.3153    1.5407 H         1 <1>         0.1590
     26 H8          4.5211   -1.0510   -4.0130 H         1 <1>         0.0674
     27 H9          2.8303   -1.3136   -4.5030 H         1 <1>         0.0674
     28 H10         3.7892   -0.0814   -5.3138 H         1 <1>         0.0730
     29 H11         0.6199    0.9997    0.9528 H         1 <1>         0.0941
     30 H12         0.1128   -0.4229    0.0143 H         1 <1>         0.0920
     31 H13         0.7188   -0.6254    1.6545 H         1 <1>         0.0971
     32 H14         2.2296    0.9610   -3.6651 H         1 <1>         0.1362
     33 H15         3.9216    1.2254   -3.1698 H         1 <1>         0.1361
     34 H16         2.4773   -1.2603   -0.0310 H         1 <1>         0.2339
@<TRIPOS>BOND
     1    1    2 ar
     2    1    3 ar
     3    2    4 ar
     4    3    8 ar
     5    4    9 ar
     6    5    6 ar
     7    5    8 ar
     8    6   10 ar
     9    7    9 ar
    10    7   10 ar
    11    8    9 ar
    12   10   17 1
    13   11   15 1
    14   11   16 2
    15   11   18 1
    16   12   14 1
    17   13   15 1
    18   14   18 1
    19   15   17 1
    20    1   19 1
    21    2   20 1
    22    3   21 1
    23    4   22 1
    24    5   23 1
    25    6   24 1
    26    7   25 1
    27   12   26 1
    28   12   27 1
    29   12   28 1
    30   13   29 1
    31   13   30 1
    32   13   31 1
    33   14   32 1
    34   14   33 1
    35   15   34 1
@<TRIPOS>Similarity
1.2530
@<TRIPOS>ShapeSim
0.7849
@<TRIPOS>PharmSim
0.4682
# END
# Name:		AP-124/43383562
# Created and modified by SHAFTS on Thu Mar 19 22:43:37 2015

# 

@<TRIPOS>MOLECULE
AP-124/43383562
   27    28     0
SMALL
USER_CHARGE


@<TRIPOS>ATOM
      1 C1          7.5815   -3.6180    0.8707 C.ar      1 <1>        -0.1533
      2 C2          6.2689   -3.9878    0.5846 C.ar      1 <1>        -0.1102
      3 C3          7.8759   -2.3377    1.3536 C.ar      1 <1>        -0.0784
      4 C4          5.2110   -3.0935    0.7714 C.ar      1 <1>        -0.1210
      5 C5          6.7579   -0.0746    2.0118 C.2       1 <1>        -0.2239
      6 C6          6.8258   -1.4188    1.5498 C.ar      1 <1>        -0.1099
      7 C7          5.5202   -1.8171    1.2547 C.ar      1 <1>         0.0989
      8 C8          5.4371    0.3100    1.9884 C.2       1 <1>         0.0896
      9 C9          3.3475    0.7094   -0.7648 C.2       1 <1>         0.4963
     10 C10         4.8208    1.5991    2.3647 C.3       1 <1>        -0.0972
     11 C11         2.8529   -0.5776   -0.0981 C.3       1 <1>        -0.1974
     12 C12         3.2594   -0.7437    1.3613 C.3       1 <1>         0.1274
     13 N1          4.6982   -0.7477    1.5306 N.pl3     1 <1>        -0.4714
     14 O1          4.6077    0.8050   -0.8291 O.co2     1 <1>        -0.5000
     15 O2          2.4638    1.5136   -1.1689 O.co2     1 <1>        -0.5000
     16 H1          8.3872   -4.3313    0.7178 H         1 <1>         0.1159
     17 H2          6.0627   -4.9874    0.2102 H         1 <1>         0.1201
     18 H3          8.9035   -2.0618    1.5720 H         1 <1>         0.1156
     19 H4          4.1910   -3.3877    0.5475 H         1 <1>         0.1191
     20 H5          7.5885    0.5428    2.3265 H         1 <1>         0.1409
     21 H6          4.7707    2.2810    1.5006 H         1 <1>         0.0754
     22 H7          3.7958    1.4691    2.7503 H         1 <1>         0.0808
     23 H8          5.3857    2.1087    3.1632 H         1 <1>         0.0733
     24 H9          3.2302   -1.4241   -0.6860 H         1 <1>         0.0630
     25 H10         1.7585   -0.5968   -0.1818 H         1 <1>         0.0632
     26 H11         2.8733   -1.6832    1.7752 H         1 <1>         0.0870
     27 H12         2.8541    0.0667    1.9795 H         1 <1>         0.0893
@<TRIPOS>BOND
     1    1    2 ar
     2    1    3 ar
     3    2    4 ar
     4    3    6 ar
     5    4    7 ar
     6    5    6 1
     7    5    8 2
     8    6    7 ar
     9    7   13 1
    10    8   10 1
    11    8   13 1
    12    9   11 1
    13    9   14 1
    14    9   15 2
    15   11   12 1
    16   12   13 1
    17    1   16 1
    18    2   17 1
    19    3   18 1
    20    4   19 1
    21    5   20 1
    22   10   21 1
    23   10   22 1
    24   10   23 1
    25   11   24 1
    26   11   25 1
    27   12   26 1
    28   12   27 1
@<TRIPOS>Similarity
1.2502
@<TRIPOS>ShapeSim
0.7488
@<TRIPOS>PharmSim
0.5014
# END
# Name:		AG-205/33105041
# Created and modified by SHAFTS on Thu Mar 19 22:43:37 2015

# 

@<TRIPOS>MOLECULE
AG-205/33105041
   28    29     0
SMALL
USER_CHARGE


@<TRIPOS>ATOM
      1 C1          6.7464   -3.9180    1.0417 C.ar      1 <1>        -0.0678
      2 C2          7.9413   -3.1951    1.1430 C.ar      1 <1>        -0.0642
      3 C3          5.5012   -3.2737    1.0750 C.ar      1 <1>        -0.0451
      4 C4          7.9427   -1.8030    1.2815 C.ar      1 <1>        -0.0367
      5 C5          5.4849   -1.8784    1.2137 C.ar      1 <1>         0.0075
      6 C6          6.6911   -1.2005    1.3109 C.ar      1 <1>         0.0183
      7 C7          5.0511    0.1764    1.4076 C.2       1 <1>         0.0749
      8 C8          2.1848    0.7691   -0.0350 C.2       1 <1>         0.0455
      9 C9          1.4488    3.4132    1.2380 C.3       1 <1>        -0.0455
     10 C10         1.4457    2.0826    1.9797 C.3       1 <1>        -0.0045
     11 C11         2.4602    1.0709    1.4308 C.3       1 <1>         0.0852
     12 N1          4.4449   -0.9832    1.2773 N.2       1 <1>        -0.3367
     13 N2          1.3543   -0.3153   -0.2221 N.am      1 <1>        -0.3110
     14 O1          2.6710    1.4160   -0.9602 O.2       1 <1>        -0.5526
     15 O2          6.4125    0.1303    1.4365 O.3       1 <1>        -0.3868
     16 S1          4.1724    1.7010    1.5366 S.3       1 <1>        -0.0874
     17 H1          6.7832   -4.9996    0.9361 H         1 <1>         0.1407
     18 H2          8.8896   -3.7263    1.1121 H         1 <1>         0.1464
     19 H3          4.5818   -3.8441    0.9941 H         1 <1>         0.1655
     20 H4          8.8609   -1.2344    1.3583 H         1 <1>         0.1704
     21 H5          1.2179    3.2715    0.1773 H         1 <1>         0.0458
     22 H6          0.7227    4.1148    1.6591 H         1 <1>         0.0464
     23 H7          2.4374    3.8783    1.3084 H         1 <1>         0.0478
     24 H8          1.6818    2.2835    3.0330 H         1 <1>         0.0871
     25 H9          0.4310    1.6645    1.9742 H         1 <1>         0.0922
     26 H10         2.4017    0.1424    2.0100 H         1 <1>         0.2097
     27 H11         0.9849   -0.8309    0.5698 H         1 <1>         0.2765
     28 H12         1.0777   -0.6379   -1.1438 H         1 <1>         0.2784
@<TRIPOS>BOND
     1    1    2 ar
     2    1    3 ar
     3    2    4 ar
     4    3    5 ar
     5    4    6 ar
     6    5    6 ar
     7    5   12 1
     8    6   15 1
     9    7   12 2
    10    7   15 1
    11    7   16 1
    12    8   11 1
    13    8   13 am
    14    8   14 2
    15    9   10 1
    16   10   11 1
    17   11   16 1
    18    1   17 1
    19    2   18 1
    20    3   19 1
    21    4   20 1
    22    9   21 1
    23    9   22 1
    24    9   23 1
    25   10   24 1
    26   10   25 1
    27   11   26 1
    28   13   27 1
    29   13   28 1
@<TRIPOS>Similarity
1.2437
@<TRIPOS>ShapeSim
0.8331
@<TRIPOS>PharmSim
0.4106
# END
