@<TRIPOS>MOLECULE
ZINC04294565
   27    28     0
SMALL
USER_CHARGE


@<TRIPOS>ATOM
      1 C1          6.6301   -4.0841    1.4656 C.ar      1 <1>        -0.1558
      2 C2          7.8707   -3.5562    1.8173 C.ar      1 <1>        -0.1036
      3 C3          5.5558   -3.2428    1.1544 C.ar      1 <1>        -0.0627
      4 C4          8.0778   -2.1748    1.8693 C.ar      1 <1>        -0.1373
      5 C5          5.6434    0.4114    1.1611 C.2       1 <1>         0.0384
      6 C6          5.7405   -1.8466    1.2001 C.ar      1 <1>        -0.1026
      7 C7          4.8982   -0.7264    0.9537 C.2       1 <1>        -0.1397
      8 C8          6.9948   -1.3459    1.5557 C.ar      1 <1>         0.0941
      9 C9          2.7891    1.7256    0.2116 C.2       1 <1>         0.4606
     10 C10         3.3090   -0.8626   -0.9871 C.3       1 <1>        -0.1392
     11 C11         2.6378    0.4457    1.0442 C.3       1 <1>        -0.1471
     12 C12         3.4780   -0.7657    0.5495 C.3       1 <1>        -0.0029
     13 N1          6.9066    0.0277    1.5237 N.pl3     1 <1>        -0.5993
     14 O1          2.4071    1.6156   -0.9889 O.co2     1 <1>        -0.5000
     15 O2          3.2853    2.7217    0.8062 O.co2     1 <1>        -0.5000
     16 H1          6.4937   -5.1616    1.4317 H         1 <1>         0.1187
     17 H2          8.6914   -4.2280    2.0554 H         1 <1>         0.1197
     18 H3          4.5950   -3.6698    0.8811 H         1 <1>         0.1230
     19 H4          9.0436   -1.7647    2.1444 H         1 <1>         0.1143
     20 H5          5.3895    1.4596    1.0820 H         1 <1>         0.1675
     21 H6          3.7635   -0.0116   -1.5059 H         1 <1>         0.0387
     22 H7          2.2511   -0.8987   -1.2692 H         1 <1>         0.0844
     23 H8          3.7856   -1.7755   -1.3618 H         1 <1>         0.0373
     24 H9          1.5669    0.2020    1.0321 H         1 <1>         0.0617
     25 H10         2.8899    0.6716    2.0880 H         1 <1>         0.0606
     26 H11         2.9809   -1.6757    0.9532 H         1 <1>         0.0756
     27 H12         7.6652    0.6605    1.7371 H         1 <1>         0.4112
@<TRIPOS>BOND
     1    1    2 ar
     2    1    3 ar
     3    2    4 ar
     4    3    6 ar
     5    4    8 ar
     6    5    7 2
     7    5   13 1
     8    6    7 1
     9    6    8 ar
    10    7   12 1
    11    8   13 1
    12    9   11 1
    13    9   14 1
    14    9   15 2
    15   10   12 1
    16   11   12 1
    17    1   16 1
    18    2   17 1
    19    3   18 1
    20    4   19 1
    21    5   20 1
    22   10   21 1
    23   10   22 1
    24   10   23 1
    25   11   24 1
    26   11   25 1
    27   12   26 1
    28   13   27 1
