@<TRIPOS>MOLECULE
BD-50145876
 44 47 0 0 0
SMALL
USER_CHARGES

@<TRIPOS>ATOM
      1 C         -16.0514  206.3325  112.1841 C.ar    1  LIG1       -0.0333
      2 C          -9.1077  209.8858  113.5693 C.ar    1  LIG1       -0.0346
      3 C          -7.5827  208.5678  112.2379 C.ar    1  LIG1       -0.0346
      4 C         -15.4777  206.4836  110.9631 C.ar    1  LIG1       -0.0379
      5 C          -8.0495  210.3142  114.3434 C.ar    1  LIG1       -0.0375
      6 C          -6.5333  209.0090  113.0168 C.ar    1  LIG1       -0.0375
      7 C         -15.0071  206.8899  115.6610 C.ar    1  LIG1        0.0653
      8 C         -13.4420  207.2848  111.9740 C.ar    1  LIG1        0.0248
      9 C         -12.1230  207.7473  111.4995 C.ar    1  LIG1        0.0483
     10 C         -15.3483  206.6509  113.3722 C.ar    1  LIG1        0.0783
     11 C          -8.8807  209.0090  112.5058 C.ar    1  LIG1        0.0631
     12 C         -14.1735  206.9578  110.8218 C.ar    1  LIG1        0.0412
     13 C         -14.0311  207.1296  113.2181 C.ar    1  LIG1        0.0488
     14 C          -6.7656  209.8775  114.0687 C.ar    1  LIG1        0.0544
     15 C         -12.1552  207.6666  110.1161 C.ar    1  LIG1        0.1429
     16 C         -11.0410  208.1916  112.2990 C.2     1  LIG1        0.0394
     17 C          -4.8645  207.9700  116.0384 C.3     1  LIG1        0.0453
     18 C          -4.4201  207.2989  117.3396 C.3     1  LIG1        0.0598
     19 N         -15.7647  206.5604  114.6532 N.ar    1  LIG1       -0.2484
     20 N          -9.9256  208.5800  111.7338 N.2     1  LIG1       -0.2560
     21 N         -13.3693  207.1995  109.7235 N.ar    1  LIG1       -0.2947
     22 N          -5.2525  209.3560  116.3115 N.3     1  LIG1       -0.2878
     23 O          -4.2575  210.2740  114.2603 O.2     1  LIG1       -0.4764
     24 O          -5.8522  211.6473  115.6556 O.2     1  LIG1       -0.4764
     25 O         -11.1390  208.0000  109.2881 O.3     1  LIG1       -0.3477
     26 O          -5.5313  207.2111  118.2338 O.3     1  LIG1       -0.3946
     27 S         -13.5309  207.3966  114.9000 S.2     1  LIG1       -0.0749
     28 S          -5.4199  210.4305  115.0626 S.O2    1  LIG1       -0.1681
     29 H         -17.0639  205.9627  112.2511 H       1  LIG1        0.0646
     30 H         -10.1092  210.2277  113.7846 H       1  LIG1        0.0646
     31 H          -7.4007  207.8861  111.4202 H       1  LIG1        0.0646
     32 H         -16.0451  206.2309  110.0796 H       1  LIG1        0.0643
     33 H          -8.2235  210.9923  115.1658 H       1  LIG1        0.0643
     34 H          -5.5287  208.6722  112.8081 H       1  LIG1        0.0643
     35 H         -15.2407  206.8554  116.7149 H       1  LIG1        0.0920
     36 H         -11.1362  208.2099  113.3746 H       1  LIG1        0.0848
     37 H          -5.7151  207.4296  115.6229 H       1  LIG1        0.0503
     38 H          -4.0416  207.9572  115.3236 H       1  LIG1        0.0503
     39 H          -4.0479  206.2975  117.1232 H       1  LIG1        0.0580
     40 H          -3.6283  207.8891  117.8008 H       1  LIG1        0.0580
     41 H         -13.6344  207.0553  108.8017 H       1  LIG1        0.1548
     42 H          -5.4115  209.6443  117.2240 H       1  LIG1        0.1641
     43 H         -10.6092  207.2012  109.1602 H       1  LIG1        0.2197
     44 H          -5.2090  206.7834  119.0389 H       1  LIG1        0.2101
@<TRIPOS>BOND
     1     1     4   ar
     2     1    10   ar
     3     2     5   ar
     4     2    11   ar
     5     3     6   ar
     6     3    11   ar
     7     4    12   ar
     8     5    14   ar
     9     6    14   ar
    10     7    19   ar
    11     7    27   ar
    12     8     9   ar
    13     8    12   ar
    14     8    13   ar
    15     9    15   ar
    16     9    16    1
    17    10    13   ar
    18    10    19   ar
    19    11    20    1
    20    12    21   ar
    21    13    27   ar
    22    14    28    1
    23    15    21   ar
    24    15    25    1
    25    16    20    2
    26    17    18    1
    27    17    22    1
    28    18    26    1
    29    22    28    1
    30    23    28    2
    31    24    28    2
    32     1    29    1
    33     2    30    1
    34     3    31    1
    35     4    32    1
    36     5    33    1
    37     6    34    1
    38     7    35    1
    39    16    36    1
    40    17    37    1
    41    17    38    1
    42    18    39    1
    43    18    40    1
    44    21    41    1
    45    22    42    1
    46    25    43    1
    47    26    44    1
