@<TRIPOS>MOLECULE
BD-7772
 39 43 0 0 0
SMALL
USER_CHARGES

@<TRIPOS>ATOM
      1 C          -8.4274  208.8863  114.8893 C.ar    1  LIG1       -0.0553
      2 C         -16.1707  205.6749  111.4118 C.ar    1  LIG1       -0.0333
      3 C         -15.5438  206.0828  110.2780 C.ar    1  LIG1       -0.0378
      4 C          -9.4111  208.5240  114.0017 C.ar    1  LIG1       -0.0405
      5 C          -8.0517  209.3449  112.2126 C.ar    1  LIG1       -0.0358
      6 C         -15.3661  205.6773  114.9944 C.ar    1  LIG1        0.0653
      7 C         -13.6425  206.8305  111.5467 C.ar    1  LIG1        0.0258
      8 C          -7.2398  209.4866  114.4572 C.ar    1  LIG1       -0.0264
      9 C          -7.0534  209.7189  113.1154 C.ar    1  LIG1       -0.0246
     10 C         -15.5640  205.8255  112.6813 C.ar    1  LIG1        0.0783
     11 C         -14.2763  206.6659  110.3092 C.ar    1  LIG1        0.0422
     12 C          -9.2258  208.7574  112.6445 C.ar    1  LIG1        0.0302
     13 C         -14.2822  206.4155  112.7009 C.ar    1  LIG1        0.0488
     14 C         -12.3341  207.4651  111.2597 C.2     1  LIG1        0.0615
     15 C         -12.2995  207.6321  109.8027 C.2     1  LIG1        0.2492
     16 C         -11.3685  207.8177  112.1580 C.2     1  LIG1        0.0061
     17 C          -6.1076  209.9122  115.3937 C.3     1  LIG1        0.0421
     18 C          -5.7346  210.3774  112.7067 C.3     1  LIG1        0.0422
     19 N         -16.0398  205.4799  113.8964 N.ar    1  LIG1       -0.2484
     20 N         -13.4506  207.1519  109.3032 N.am    1  LIG1       -0.2806
     21 N         -10.2142  208.3963  111.7250 N.pl3   1  LIG1       -0.3202
     22 O         -11.3873  208.1202  109.1589 O.2     1  LIG1       -0.2714
     23 O          -3.7410  210.7193  114.4522 O.2     1  LIG1       -0.4983
     24 O          -5.5669  212.3659  114.4831 O.2     1  LIG1       -0.4983
     25 S         -13.8972  206.4139  114.4337 S.2     1  LIG1       -0.0749
     26 S          -5.1214  211.0272  114.3139 S.O2    1  LIG1       -0.2510
     27 H          -8.5739  208.7042  115.9438 H       1  LIG1        0.0627
     28 H         -17.1517  205.2283  111.3433 H       1  LIG1        0.0646
     29 H         -16.0413  205.9565  109.3277 H       1  LIG1        0.0643
     30 H         -10.3210  208.0620  114.3557 H       1  LIG1        0.0642
     31 H          -7.9052  209.5225  111.1574 H       1  LIG1        0.0646
     32 H         -15.6526  205.4404  116.0083 H       1  LIG1        0.0920
     33 H         -11.5201  207.6380  113.2121 H       1  LIG1        0.0798
     34 H          -6.4978  210.4509  116.2572 H       1  LIG1        0.0512
     35 H          -5.5171  209.0514  115.7075 H       1  LIG1        0.0512
     36 H          -5.0434  209.6425  112.2943 H       1  LIG1        0.0512
     37 H          -5.9070  211.1882  111.9988 H       1  LIG1        0.0512
     38 H         -13.6766  207.1456  108.3599 H       1  LIG1        0.1560
     39 H         -10.0780  208.5579  110.7782 H       1  LIG1        0.1522
@<TRIPOS>BOND
     1     1     4   ar
     2     1     8   ar
     3     2     3   ar
     4     2    10   ar
     5     3    11   ar
     6     4    12   ar
     7     5     9   ar
     8     5    12   ar
     9     6    19   ar
    10     6    25   ar
    11     7    11   ar
    12     7    13   ar
    13     7    14    1
    14     8     9   ar
    15     8    17    1
    16     9    18    1
    17    10    13   ar
    18    10    19   ar
    19    11    20    1
    20    12    21    1
    21    13    25   ar
    22    14    15    1
    23    14    16    2
    24    15    20   am
    25    15    22    2
    26    16    21    1
    27    17    26    1
    28    18    26    1
    29    23    26    2
    30    24    26    2
    31     1    27    1
    32     2    28    1
    33     3    29    1
    34     4    30    1
    35     5    31    1
    36     6    32    1
    37    16    33    1
    38    17    34    1
    39    17    35    1
    40    18    36    1
    41    18    37    1
    42    20    38    1
    43    21    39    1
