# Name:		BD-7772
# Created and modified by SHAFTS on Wed Feb  8 14:37:25 2012

# 

@<TRIPOS>MOLECULE
BD-7772
   39    43     0
SMALL
USER_CHARGE


@<TRIPOS>ATOM
      1 C1         -8.4274  208.8863  114.8893 C.ar      1 <1>        -0.0553
      2 C2        -16.1707  205.6749  111.4118 C.ar      1 <1>        -0.0333
      3 C3        -15.5438  206.0828  110.2780 C.ar      1 <1>        -0.0378
      4 C4         -9.4111  208.5240  114.0017 C.ar      1 <1>        -0.0405
      5 C5         -8.0517  209.3449  112.2126 C.ar      1 <1>        -0.0358
      6 C6        -15.3661  205.6773  114.9944 C.2       1 <1>         0.0653
      7 C7        -13.6425  206.8305  111.5467 C.ar      1 <1>         0.0258
      8 C8         -7.2398  209.4866  114.4572 C.ar      1 <1>        -0.0264
      9 C9         -7.0534  209.7189  113.1154 C.ar      1 <1>        -0.0246
     10 C10       -15.5640  205.8255  112.6813 C.ar      1 <1>         0.0783
     11 C11       -14.2763  206.6659  110.3092 C.ar      1 <1>         0.0422
     12 C12        -9.2258  208.7574  112.6445 C.ar      1 <1>         0.0302
     13 C13       -14.2822  206.4155  112.7009 C.ar      1 <1>         0.0488
     14 C14       -12.3341  207.4651  111.2597 C.2       1 <1>         0.0615
     15 C15       -12.2995  207.6321  109.8027 C.2       1 <1>         0.2492
     16 C16       -11.3685  207.8177  112.1580 C.2       1 <1>         0.0061
     17 C17        -6.1076  209.9122  115.3937 C.3       1 <1>         0.0421
     18 C18        -5.7346  210.3774  112.7067 C.3       1 <1>         0.0422
     19 N1        -16.0398  205.4799  113.8964 N.2       1 <1>        -0.2484
     20 N2        -13.4506  207.1519  109.3032 N.am      1 <1>        -0.2806
     21 N3        -10.2142  208.3963  111.7250 N.pl3     1 <1>        -0.3202
     22 O1        -11.3873  208.1202  109.1589 O.2       1 <1>        -0.2714
     23 O2         -3.7410  210.7193  114.4522 O.2       1 <1>        -0.4983
     24 O3         -5.5669  212.3659  114.4831 O.2       1 <1>        -0.4983
     25 S1        -13.8972  206.4139  114.4337 S.3       1 <1>        -0.0749
     26 S2         -5.1214  211.0272  114.3139 S.o2      1 <1>        -0.2510
     27 H1         -8.5739  208.7042  115.9438 H         1 <1>         0.0627
     28 H2        -17.1517  205.2283  111.3433 H         1 <1>         0.0646
     29 H3        -16.0413  205.9565  109.3277 H         1 <1>         0.0643
     30 H4        -10.3210  208.0620  114.3557 H         1 <1>         0.0642
     31 H5         -7.9052  209.5225  111.1574 H         1 <1>         0.0646
     32 H6        -15.6526  205.4404  116.0083 H         1 <1>         0.0920
     33 H7        -11.5201  207.6380  113.2121 H         1 <1>         0.0798
     34 H8         -6.4978  210.4509  116.2572 H         1 <1>         0.0512
     35 H9         -5.5171  209.0514  115.7075 H         1 <1>         0.0512
     36 H10        -5.0434  209.6425  112.2943 H         1 <1>         0.0512
     37 H11        -5.9070  211.1882  111.9988 H         1 <1>         0.0512
     38 H12       -13.6766  207.1456  108.3599 H         1 <1>         0.1560
     39 H13       -10.0780  208.5579  110.7782 H         1 <1>         0.1522
@<TRIPOS>BOND
     1    1    4 ar
     2    1    8 ar
     3    2    3 ar
     4    2   10 ar
     5    3   11 ar
     6    4   12 ar
     7    5    9 ar
     8    5   12 ar
     9    6   19 2
    10    6   25 1
    11    7   11 ar
    12    7   13 ar
    13    7   14 1
    14    8    9 ar
    15    8   17 1
    16    9   18 1
    17   10   13 ar
    18   10   19 1
    19   11   20 1
    20   12   21 1
    21   13   25 1
    22   14   15 1
    23   14   16 2
    24   15   20 am
    25   15   22 2
    26   16   21 1
    27   17   26 1
    28   18   26 1
    29   23   26 2
    30   24   26 2
    31    1   27 1
    32    2   28 1
    33    3   29 1
    34    4   30 1
    35    5   31 1
    36    6   32 1
    37   16   33 1
    38   17   34 1
    39   17   35 1
    40   18   36 1
    41   18   37 1
    42   20   38 1
    43   21   39 1
@<TRIPOS>Similarity
1.2456
@<TRIPOS>ShapeSim
0.8469
@<TRIPOS>PharmSim
0.3987
# END
# Name:		BD-50145876
# Created and modified by SHAFTS on Wed Feb  8 14:37:25 2012

# 

@<TRIPOS>MOLECULE
BD-50145876
   44    47     0
SMALL
USER_CHARGE


@<TRIPOS>ATOM
      1 C1        -16.0514  206.3325  112.1841 C.ar      1 <1>        -0.0333
      2 C2         -9.1077  209.8858  113.5693 C.ar      1 <1>        -0.0346
      3 C3         -7.5827  208.5678  112.2379 C.ar      1 <1>        -0.0346
      4 C4        -15.4777  206.4836  110.9631 C.ar      1 <1>        -0.0379
      5 C5         -8.0495  210.3142  114.3434 C.ar      1 <1>        -0.0375
      6 C6         -6.5333  209.0090  113.0168 C.ar      1 <1>        -0.0375
      7 C7        -15.0071  206.8899  115.6610 C.2       1 <1>         0.0653
      8 C8        -13.4420  207.2848  111.9740 C.ar      1 <1>         0.0248
      9 C9        -12.1230  207.7473  111.4995 C.2       1 <1>         0.0483
     10 C10       -15.3483  206.6509  113.3722 C.ar      1 <1>         0.0783
     11 C11        -8.8807  209.0090  112.5058 C.ar      1 <1>         0.0631
     12 C12       -14.1735  206.9578  110.8218 C.ar      1 <1>         0.0412
     13 C13       -14.0311  207.1296  113.2181 C.ar      1 <1>         0.0488
     14 C14        -6.7656  209.8775  114.0687 C.ar      1 <1>         0.0544
     15 C15       -12.1552  207.6666  110.1161 C.2       1 <1>         0.1429
     16 C16       -11.0410  208.1916  112.2990 C.2       1 <1>         0.0394
     17 C17        -4.8645  207.9700  116.0384 C.3       1 <1>         0.0453
     18 C18        -4.4201  207.2989  117.3396 C.3       1 <1>         0.0598
     19 N1        -15.7647  206.5604  114.6532 N.2       1 <1>        -0.2484
     20 N2         -9.9256  208.5800  111.7338 N.2       1 <1>        -0.2560
     21 N3        -13.3693  207.1995  109.7235 N.pl3     1 <1>        -0.2947
     22 N4         -5.2525  209.3560  116.3115 N.pl3     1 <1>        -0.2878
     23 O1         -4.2575  210.2740  114.2603 O.2       1 <1>        -0.4764
     24 O2         -5.8522  211.6473  115.6556 O.2       1 <1>        -0.4764
     25 O3        -11.1390  208.0000  109.2881 O.3       1 <1>        -0.3477
     26 O4         -5.5313  207.2111  118.2338 O.3       1 <1>        -0.3946
     27 S1        -13.5309  207.3966  114.9000 S.3       1 <1>        -0.0749
     28 S2         -5.4199  210.4305  115.0626 S.o2      1 <1>        -0.1681
     29 H1        -17.0639  205.9627  112.2511 H         1 <1>         0.0646
     30 H2        -10.1092  210.2277  113.7846 H         1 <1>         0.0646
     31 H3         -7.4007  207.8861  111.4202 H         1 <1>         0.0646
     32 H4        -16.0451  206.2309  110.0796 H         1 <1>         0.0643
     33 H5         -8.2235  210.9923  115.1658 H         1 <1>         0.0643
     34 H6         -5.5287  208.6722  112.8081 H         1 <1>         0.0643
     35 H7        -15.2407  206.8554  116.7149 H         1 <1>         0.0920
     36 H8        -11.1362  208.2099  113.3746 H         1 <1>         0.0848
     37 H9         -5.7151  207.4296  115.6229 H         1 <1>         0.0503
     38 H10        -4.0416  207.9572  115.3236 H         1 <1>         0.0503
     39 H11        -4.0479  206.2975  117.1232 H         1 <1>         0.0580
     40 H12        -3.6283  207.8891  117.8008 H         1 <1>         0.0580
     41 H13       -13.6344  207.0553  108.8017 H         1 <1>         0.1548
     42 H14        -5.4115  209.6443  117.2240 H         1 <1>         0.1641
     43 H15       -10.6092  207.2012  109.1602 H         1 <1>         0.2197
     44 H16        -5.2090  206.7834  119.0389 H         1 <1>         0.2101
@<TRIPOS>BOND
     1    1    4 ar
     2    1   10 ar
     3    2    5 ar
     4    2   11 ar
     5    3    6 ar
     6    3   11 ar
     7    4   12 ar
     8    5   14 ar
     9    6   14 ar
    10    7   19 2
    11    7   27 1
    12    8    9 1
    13    8   12 ar
    14    8   13 ar
    15    9   15 2
    16    9   16 1
    17   10   13 ar
    18   10   19 1
    19   11   20 1
    20   12   21 1
    21   13   27 1
    22   14   28 1
    23   15   21 1
    24   15   25 1
    25   16   20 2
    26   17   18 1
    27   17   22 1
    28   18   26 1
    29   22   28 1
    30   23   28 2
    31   24   28 2
    32    1   29 1
    33    2   30 1
    34    3   31 1
    35    4   32 1
    36    5   33 1
    37    6   34 1
    38    7   35 1
    39   16   36 1
    40   17   37 1
    41   17   38 1
    42   18   39 1
    43   18   40 1
    44   21   41 1
    45   22   42 1
    46   25   43 1
    47   26   44 1
@<TRIPOS>Similarity
1.2141
@<TRIPOS>ShapeSim
0.8689
@<TRIPOS>PharmSim
0.3453
# END
