http://www.rcsb.org/pdb/files/1fvv.pdb.gz
 OpenBabel02081214373D
Jmol version 13.0.9  2012-11-23 13:17 EXTRACT: ({8960:8990})
 72 76  0  0  0  0  0  0  0  0999 V2000
  -11.2220  207.9760  109.2120 O   0  0  0  0  0  0  0  0  0  0  0  0
  -12.1710  207.5020  109.8420 C   0  0  0  0  0  0  0  0  0  0  0  0
  -13.3600  207.1380  109.3200 N   0  0  0  0  0  0  0  0  0  0  0  0
  -14.2170  206.7500  110.3000 C   0  0  0  0  0  0  0  0  0  0  0  0
  -15.6380  206.3600  110.1900 C   0  0  0  0  0  0  0  0  0  0  0  0
  -16.3860  205.9670  111.3900 C   0  0  0  0  0  0  0  0  0  0  0  0
  -15.7410  206.0270  112.6900 C   0  0  0  0  0  0  0  0  0  0  0  0
  -16.2320  205.7140  113.9500 N   0  0  0  0  0  0  0  0  0  0  0  0
  -15.3040  205.8370  114.9320 C   0  0  0  0  0  0  0  0  0  0  0  0
  -13.8140  206.4530  114.4280 S   0  0  0  0  0  0  0  0  0  0  0  0
  -14.2920  206.4680  112.8160 C   0  0  0  0  0  0  0  0  0  0  0  0
  -13.5570  206.8060  111.5860 C   0  0  0  0  0  0  0  0  0  0  0  0
  -12.2030  207.2550  111.3270 C   0  0  0  0  0  0  0  0  0  0  0  0
  -11.1760  207.4750  112.1700 C   0  0  0  0  0  0  0  0  0  0  0  0
  -10.1070  208.4390  111.7920 N   0  0  0  0  0  0  0  0  0  0  0  0
   -9.0990  208.8850  112.5560 C   0  0  0  0  0  0  0  0  0  0  0  0
   -9.2420  209.2080  114.0130 C   0  0  0  0  0  0  0  0  0  0  0  0
   -8.0670  209.5940  114.7840 C   0  0  0  0  0  0  0  0  0  0  0  0
   -6.7650  209.7680  114.0980 C   0  0  0  0  0  0  0  0  0  0  0  0
   -6.6070  209.4480  112.6660 C   0  0  0  0  0  0  0  0  0  0  0  0
   -7.7830  209.0220  111.8860 C   0  0  0  0  0  0  0  0  0  0  0  0
   -5.4220  210.3800  115.0540 S   0  0  0  0  0  0  0  0  0  0  0  0
   -4.2100  210.2890  114.2980 O   0  0  0  0  0  0  0  0  0  0  0  0
   -5.8540  211.6490  115.5540 O   0  0  0  0  0  0  0  0  0  0  0  0
   -5.2170  209.3650  116.3500 N   0  0  0  0  0  0  0  0  0  0  0  0
   -3.5620  206.0480  115.3440 C   0  0  0  0  0  0  0  0  0  0  0  0
   -3.8620  205.2520  116.5560 C   0  0  0  0  0  0  0  0  0  0  0  0
   -4.7090  205.8750  117.5970 C   0  0  0  0  0  0  0  0  0  0  0  0
   -5.1930  207.2180  117.4430 N   0  0  0  0  0  0  0  0  0  0  0  0
   -4.8230  208.0270  116.3130 C   0  0  0  0  0  0  0  0  0  0  0  0
   -4.0220  207.4320  115.1920 C   0  0  0  0  0  0  0  0  0  0  0  0
  -11.4537  208.0330  108.2718 H   0  0  0  0  0  0  0  0  0  0  0  0
  -11.3189  207.8191  109.2779 H   0  0  0  0  0  0  0  0  0  0  0  0
  -13.2301  206.3806  108.6493 H   0  0  0  0  0  0  0  0  0  0  0  0
  -15.0183  206.3642  109.7050 H   0  0  0  0  0  0  0  0  0  0  0  0
  -15.7181  205.5736  109.4688 H   0  0  0  0  0  0  0  0  0  0  0  0
  -16.1085  207.2817  109.9179 H   0  0  0  0  0  0  0  0  0  0  0  0
  -16.7651  204.9770  111.2446 H   0  0  0  0  0  0  0  0  0  0  0  0
  -17.1305  206.7321  111.4627 H   0  0  0  0  0  0  0  0  0  0  0  0
  -16.6452  205.8915  112.1342 H   0  0  0  0  0  0  0  0  0  0  0  0
  -16.6024  204.7636  113.9465 H   0  0  0  0  0  0  0  0  0  0  0  0
  -15.1542  204.8858  115.3986 H   0  0  0  0  0  0  0  0  0  0  0  0
  -15.6996  206.5567  115.6179 H   0  0  0  0  0  0  0  0  0  0  0  0
  -13.3247  206.8636  112.5865 H   0  0  0  0  0  0  0  0  0  0  0  0
  -13.4594  206.6190  112.6350 H   0  0  0  0  0  0  0  0  0  0  0  0
  -11.5234  207.1748  112.1495 H   0  0  0  0  0  0  0  0  0  0  0  0
  -10.7194  206.5353  112.4011 H   0  0  0  0  0  0  0  0  0  0  0  0
  -11.6510  207.9641  112.9946 H   0  0  0  0  0  0  0  0  0  0  0  0
  -10.5684  209.2582  111.3964 H   0  0  0  0  0  0  0  0  0  0  0  0
   -9.7290  209.2713  113.3298 H   0  0  0  0  0  0  0  0  0  0  0  0
   -9.7101  208.3783  114.5002 H   0  0  0  0  0  0  0  0  0  0  0  0
   -9.8183  210.1094  113.9975 H   0  0  0  0  0  0  0  0  0  0  0  0
   -7.9392  208.8925  115.5818 H   0  0  0  0  0  0  0  0  0  0  0  0
   -8.3053  210.5913  115.0899 H   0  0  0  0  0  0  0  0  0  0  0  0
   -6.5543  209.3951  113.1175 H   0  0  0  0  0  0  0  0  0  0  0  0
   -5.8447  208.7038  112.5659 H   0  0  0  0  0  0  0  0  0  0  0  0
   -6.3688  210.3982  112.2357 H   0  0  0  0  0  0  0  0  0  0  0  0
   -7.8943  209.6829  111.0519 H   0  0  0  0  0  0  0  0  0  0  0  0
   -7.5425  208.0099  111.6357 H   0  0  0  0  0  0  0  0  0  0  0  0
   -4.2695  210.8655  113.5202 H   0  0  0  0  0  0  0  0  0  0  0  0
   -5.9814  212.2624  114.8135 H   0  0  0  0  0  0  0  0  0  0  0  0
   -6.0688  209.4134  116.9090 H   0  0  0  0  0  0  0  0  0  0  0  0
   -3.8923  205.4924  114.4913 H   0  0  0  0  0  0  0  0  0  0  0  0
   -2.5070  206.1924  115.4489 H   0  0  0  0  0  0  0  0  0  0  0  0
   -2.9402  204.9409  117.0016 H   0  0  0  0  0  0  0  0  0  0  0  0
   -4.4581  204.4421  116.1905 H   0  0  0  0  0  0  0  0  0  0  0  0
   -4.1945  205.8086  118.5328 H   0  0  0  0  0  0  0  0  0  0  0  0
   -5.6112  205.3054  117.5166 H   0  0  0  0  0  0  0  0  0  0  0  0
   -4.9680  207.7363  118.2922 H   0  0  0  0  0  0  0  0  0  0  0  0
   -4.7263  208.0283  115.2474 H   0  0  0  0  0  0  0  0  0  0  0  0
   -4.5847  207.5114  114.2854 H   0  0  0  0  0  0  0  0  0  0  0  0
   -3.1185  208.0052  115.1880 H   0  0  0  0  0  0  0  0  0  0  0  0
  1  2  1  0  0  0  0
  1 32  1  0  0  0  0
  2  3  1  0  0  0  0
  2 13  1  0  0  0  0
  2 33  1  0  0  0  0
  3  4  1  0  0  0  0
  3 34  1  0  0  0  0
  4  5  1  0  0  0  0
  4 12  1  0  0  0  0
  4 35  1  0  0  0  0
  5  6  1  0  0  0  0
  5 36  1  0  0  0  0
  5 37  1  0  0  0  0
  6  7  1  0  0  0  0
  6 38  1  0  0  0  0
  6 39  1  0  0  0  0
  7  8  1  0  0  0  0
  7 11  1  0  0  0  0
  7 40  1  0  0  0  0
  8  9  1  0  0  0  0
  8 41  1  0  0  0  0
  9 10  1  0  0  0  0
  9 42  1  0  0  0  0
  9 43  1  0  0  0  0
 10 11  1  0  0  0  0
 11 12  1  0  0  0  0
 11 44  1  0  0  0  0
 12 13  1  0  0  0  0
 12 45  1  0  0  0  0
 13 14  1  0  0  0  0
 13 46  1  0  0  0  0
 14 15  1  0  0  0  0
 14 47  1  0  0  0  0
 14 48  1  0  0  0  0
 15 16  1  0  0  0  0
 15 49  1  0  0  0  0
 16 17  1  0  0  0  0
 16 21  1  0  0  0  0
 16 50  1  0  0  0  0
 17 18  1  0  0  0  0
 17 51  1  0  0  0  0
 17 52  1  0  0  0  0
 18 19  1  0  0  0  0
 18 53  1  0  0  0  0
 18 54  1  0  0  0  0
 19 20  1  0  0  0  0
 19 22  1  0  0  0  0
 19 55  1  0  0  0  0
 20 21  1  0  0  0  0
 20 56  1  0  0  0  0
 20 57  1  0  0  0  0
 21 58  1  0  0  0  0
 21 59  1  0  0  0  0
 22 23  1  0  0  0  0
 22 24  1  0  0  0  0
 22 25  1  0  0  0  0
 23 60  1  0  0  0  0
 24 61  1  0  0  0  0
 25 30  1  0  0  0  0
 25 62  1  0  0  0  0
 26 27  1  0  0  0  0
 26 31  1  0  0  0  0
 26 63  1  0  0  0  0
 26 64  1  0  0  0  0
 27 28  1  0  0  0  0
 27 65  1  0  0  0  0
 27 66  1  0  0  0  0
 28 29  1  0  0  0  0
 28 67  1  0  0  0  0
 28 68  1  0  0  0  0
 29 30  1  0  0  0  0
 29 69  1  0  0  0  0
 30 31  1  0  0  0  0
 30 70  1  0  0  0  0
 31 71  1  0  0  0  0
 31 72  1  0  0  0  0
M  END
$$$$
BD-7772
 OpenBabel02081214373D

 39 43  0  0  0  0  0  0  0  0999 V2000
   -8.4274  208.8863  114.8893 C   0  0  0  0  0  0  0  0  0  0  0  0
  -16.1707  205.6749  111.4118 C   0  0  0  0  0  0  0  0  0  0  0  0
  -15.5438  206.0828  110.2780 C   0  0  0  0  0  0  0  0  0  0  0  0
   -9.4111  208.5240  114.0017 C   0  0  0  0  0  0  0  0  0  0  0  0
   -8.0517  209.3449  112.2126 C   0  0  0  0  0  0  0  0  0  0  0  0
  -15.3661  205.6773  114.9944 C   0  0  0  0  0  0  0  0  0  0  0  0
  -13.6425  206.8305  111.5467 C   0  0  0  0  0  0  0  0  0  0  0  0
   -7.2398  209.4866  114.4572 C   0  0  0  0  0  0  0  0  0  0  0  0
   -7.0534  209.7189  113.1154 C   0  0  0  0  0  0  0  0  0  0  0  0
  -15.5640  205.8255  112.6813 C   0  0  0  0  0  0  0  0  0  0  0  0
  -14.2763  206.6659  110.3092 C   0  0  0  0  0  0  0  0  0  0  0  0
   -9.2258  208.7574  112.6445 C   0  0  0  0  0  0  0  0  0  0  0  0
  -14.2822  206.4155  112.7009 C   0  0  0  0  0  0  0  0  0  0  0  0
  -12.3341  207.4651  111.2597 C   0  0  0  0  0  0  0  0  0  0  0  0
  -12.2995  207.6321  109.8027 C   0  0  0  0  0  0  0  0  0  0  0  0
  -11.3685  207.8177  112.1580 C   0  0  0  0  0  0  0  0  0  0  0  0
   -6.1076  209.9122  115.3937 C   0  0  0  0  0  0  0  0  0  0  0  0
   -5.7346  210.3774  112.7067 C   0  0  0  0  0  0  0  0  0  0  0  0
  -16.0398  205.4799  113.8964 N   0  0  0  0  0  0  0  0  0  0  0  0
  -13.4506  207.1519  109.3032 N   0  0  0  0  0  0  0  0  0  0  0  0
  -10.2142  208.3963  111.7250 N   0  0  0  0  0  0  0  0  0  0  0  0
  -11.3873  208.1202  109.1589 O   0  0  0  0  0  0  0  0  0  0  0  0
   -3.7410  210.7193  114.4522 O   0  0  0  0  0  0  0  0  0  0  0  0
   -5.5669  212.3659  114.4831 O   0  0  0  0  0  0  0  0  0  0  0  0
  -13.8972  206.4139  114.4337 S   0  0  0  0  0  0  0  0  0  0  0  0
   -5.1214  211.0272  114.3139 S   0  0  0  0  0  0  0  0  0  0  0  0
   -8.5739  208.7042  115.9438 H   0  0  0  0  0  0  0  0  0  0  0  0
  -17.1517  205.2283  111.3433 H   0  0  0  0  0  0  0  0  0  0  0  0
  -16.0413  205.9565  109.3277 H   0  0  0  0  0  0  0  0  0  0  0  0
  -10.3210  208.0620  114.3557 H   0  0  0  0  0  0  0  0  0  0  0  0
   -7.9052  209.5225  111.1574 H   0  0  0  0  0  0  0  0  0  0  0  0
  -15.6526  205.4404  116.0083 H   0  0  0  0  0  0  0  0  0  0  0  0
  -11.5201  207.6380  113.2121 H   0  0  0  0  0  0  0  0  0  0  0  0
   -6.4978  210.4509  116.2572 H   0  0  0  0  0  0  0  0  0  0  0  0
   -5.5171  209.0514  115.7075 H   0  0  0  0  0  0  0  0  0  0  0  0
   -5.0434  209.6425  112.2943 H   0  0  0  0  0  0  0  0  0  0  0  0
   -5.9070  211.1882  111.9988 H   0  0  0  0  0  0  0  0  0  0  0  0
  -13.6766  207.1456  108.3599 H   0  0  0  0  0  0  0  0  0  0  0  0
  -10.0780  208.5579  110.7782 H   0  0  0  0  0  0  0  0  0  0  0  0
  1  4  2  0  0  0  0
  1  8  1  0  0  0  0
  1 27  1  0  0  0  0
  2  3  2  0  0  0  0
  2 10  1  0  0  0  0
  2 28  1  0  0  0  0
  3 11  1  0  0  0  0
  3 29  1  0  0  0  0
  4 12  1  0  0  0  0
  4 30  1  0  0  0  0
  5  9  1  0  0  0  0
  5 12  2  0  0  0  0
  5 31  1  0  0  0  0
  6 19  2  0  0  0  0
  6 25  1  0  0  0  0
  6 32  1  0  0  0  0
  7 11  2  0  0  0  0
  7 13  1  0  0  0  0
  7 14  1  0  0  0  0
  8  9  2  0  0  0  0
  8 17  1  0  0  0  0
  9 18  1  0  0  0  0
 10 13  2  0  0  0  0
 10 19  1  0  0  0  0
 11 20  1  0  0  0  0
 12 21  1  0  0  0  0
 13 25  1  0  0  0  0
 14 15  1  0  0  0  0
 14 16  2  0  0  0  0
 15 20  1  0  0  0  0
 15 22  2  0  0  0  0
 16 21  1  0  0  0  0
 16 33  1  0  0  0  0
 17 26  1  0  0  0  0
 17 34  1  0  0  0  0
 17 35  1  0  0  0  0
 18 26  1  0  0  0  0
 18 36  1  0  0  0  0
 18 37  1  0  0  0  0
 20 38  1  0  0  0  0
 21 39  1  0  0  0  0
 23 26  2  0  0  0  0
 24 26  2  0  0  0  0
M  END
>  <name>
Oxindole-Based Inhibitor 108

>  <score>
1.246

>  <target>
Cyclin-Dependent Kinase 1 (CDK1)

$$$$
BD-50145876
 OpenBabel02081214373D

 44 47  0  0  0  0  0  0  0  0999 V2000
  -16.0514  206.3325  112.1841 C   0  0  0  0  0  0  0  0  0  0  0  0
   -9.1077  209.8858  113.5693 C   0  0  0  0  0  0  0  0  0  0  0  0
   -7.5827  208.5678  112.2379 C   0  0  0  0  0  0  0  0  0  0  0  0
  -15.4777  206.4836  110.9631 C   0  0  0  0  0  0  0  0  0  0  0  0
   -8.0495  210.3142  114.3434 C   0  0  0  0  0  0  0  0  0  0  0  0
   -6.5333  209.0090  113.0168 C   0  0  0  0  0  0  0  0  0  0  0  0
  -15.0071  206.8899  115.6610 C   0  0  0  0  0  0  0  0  0  0  0  0
  -13.4420  207.2848  111.9740 C   0  0  0  0  0  0  0  0  0  0  0  0
  -12.1230  207.7473  111.4995 C   0  0  0  0  0  0  0  0  0  0  0  0
  -15.3483  206.6509  113.3722 C   0  0  0  0  0  0  0  0  0  0  0  0
   -8.8807  209.0090  112.5058 C   0  0  0  0  0  0  0  0  0  0  0  0
  -14.1735  206.9578  110.8218 C   0  0  0  0  0  0  0  0  0  0  0  0
  -14.0311  207.1296  113.2181 C   0  0  0  0  0  0  0  0  0  0  0  0
   -6.7656  209.8775  114.0687 C   0  0  0  0  0  0  0  0  0  0  0  0
  -12.1552  207.6666  110.1161 C   0  0  0  0  0  0  0  0  0  0  0  0
  -11.0410  208.1916  112.2990 C   0  0  0  0  0  0  0  0  0  0  0  0
   -4.8645  207.9700  116.0384 C   0  0  0  0  0  0  0  0  0  0  0  0
   -4.4201  207.2989  117.3396 C   0  0  0  0  0  0  0  0  0  0  0  0
  -15.7647  206.5604  114.6532 N   0  0  0  0  0  0  0  0  0  0  0  0
   -9.9256  208.5800  111.7338 N   0  0  0  0  0  0  0  0  0  0  0  0
  -13.3693  207.1995  109.7235 N   0  0  0  0  0  0  0  0  0  0  0  0
   -5.2525  209.3560  116.3115 N   0  0  0  0  0  0  0  0  0  0  0  0
   -4.2575  210.2740  114.2603 O   0  0  0  0  0  0  0  0  0  0  0  0
   -5.8522  211.6473  115.6556 O   0  0  0  0  0  0  0  0  0  0  0  0
  -11.1390  208.0000  109.2881 O   0  0  0  0  0  0  0  0  0  0  0  0
   -5.5313  207.2111  118.2338 O   0  0  0  0  0  0  0  0  0  0  0  0
  -13.5309  207.3966  114.9000 S   0  0  0  0  0  0  0  0  0  0  0  0
   -5.4199  210.4305  115.0626 S   0  0  0  0  0  0  0  0  0  0  0  0
  -17.0639  205.9627  112.2511 H   0  0  0  0  0  0  0  0  0  0  0  0
  -10.1092  210.2277  113.7846 H   0  0  0  0  0  0  0  0  0  0  0  0
   -7.4007  207.8861  111.4202 H   0  0  0  0  0  0  0  0  0  0  0  0
  -16.0451  206.2309  110.0796 H   0  0  0  0  0  0  0  0  0  0  0  0
   -8.2235  210.9923  115.1658 H   0  0  0  0  0  0  0  0  0  0  0  0
   -5.5287  208.6722  112.8081 H   0  0  0  0  0  0  0  0  0  0  0  0
  -15.2407  206.8554  116.7149 H   0  0  0  0  0  0  0  0  0  0  0  0
  -11.1362  208.2099  113.3746 H   0  0  0  0  0  0  0  0  0  0  0  0
   -5.7151  207.4296  115.6229 H   0  0  0  0  0  0  0  0  0  0  0  0
   -4.0416  207.9572  115.3236 H   0  0  0  0  0  0  0  0  0  0  0  0
   -4.0479  206.2975  117.1232 H   0  0  0  0  0  0  0  0  0  0  0  0
   -3.6283  207.8891  117.8008 H   0  0  0  0  0  0  0  0  0  0  0  0
  -13.6344  207.0553  108.8017 H   0  0  0  0  0  0  0  0  0  0  0  0
   -5.4115  209.6443  117.2240 H   0  0  0  0  0  0  0  0  0  0  0  0
  -10.6092  207.2012  109.1602 H   0  0  0  0  0  0  0  0  0  0  0  0
   -5.2090  206.7834  119.0389 H   0  0  0  0  0  0  0  0  0  0  0  0
  1  4  2  0  0  0  0
  1 10  1  0  0  0  0
  1 29  1  0  0  0  0
  2  5  2  0  0  0  0
  2 11  1  0  0  0  0
  2 30  1  0  0  0  0
  3  6  1  0  0  0  0
  3 11  2  0  0  0  0
  3 31  1  0  0  0  0
  4 12  1  0  0  0  0
  4 32  1  0  0  0  0
  5 14  1  0  0  0  0
  5 33  1  0  0  0  0
  6 14  2  0  0  0  0
  6 34  1  0  0  0  0
  7 19  2  0  0  0  0
  7 27  1  0  0  0  0
  7 35  1  0  0  0  0
  8  9  1  0  0  0  0
  8 12  2  0  0  0  0
  8 13  1  0  0  0  0
  9 15  2  0  0  0  0
  9 16  1  0  0  0  0
 10 13  2  0  0  0  0
 10 19  1  0  0  0  0
 11 20  1  0  0  0  0
 12 21  1  0  0  0  0
 13 27  1  0  0  0  0
 14 28  1  0  0  0  0
 15 21  1  0  0  0  0
 15 25  1  0  0  0  0
 16 20  2  0  0  0  0
 16 36  1  0  0  0  0
 17 18  1  0  0  0  0
 17 22  1  0  0  0  0
 17 37  1  0  0  0  0
 17 38  1  0  0  0  0
 18 26  1  0  0  0  0
 18 39  1  0  0  0  0
 18 40  1  0  0  0  0
 21 41  1  0  0  0  0
 22 28  1  0  0  0  0
 22 42  1  0  0  0  0
 23 28  2  0  0  0  0
 24 28  2  0  0  0  0
 25 43  1  0  0  0  0
 26 44  1  0  0  0  0
M  END
>  <name>
CHEMBL85101

>  <score>
1.214

>  <target>
CDK2

$$$$
