@<TRIPOS>MOLECULE
AH-487/40652398
 59 63 0 0 0
SMALL
USER_CHARGES

@<TRIPOS>ATOM
      1 C           5.1543   -3.3244    2.9778 C.ar    1  LIG1       -0.1017
      2 C          -1.2665    2.0954    1.1441 C.ar    1  LIG1       -0.0995
      3 C           5.8114   -3.4246    1.7515 C.ar    1  LIG1       -0.0977
      4 C           4.3469   -2.2196    3.2481 C.ar    1  LIG1       -0.0953
      5 C          -0.8548    0.9541    0.4561 C.ar    1  LIG1       -0.0901
      6 C          -0.4839    3.2497    1.1116 C.ar    1  LIG1       -0.0905
      7 C           5.6610   -2.4200    0.7955 C.ar    1  LIG1       -0.0772
      8 C           4.1966   -1.2150    2.2923 C.ar    1  LIG1       -0.0726
      9 C           4.0689    3.0402   -4.8820 C.ar    1  LIG1       -0.0727
     10 C           4.9870    4.6509   -3.3330 C.ar    1  LIG1       -0.0726
     11 C           4.5986    3.7649   -5.9496 C.ar    1  LIG1       -0.0904
     12 C           5.5168    5.3757   -4.4005 C.ar    1  LIG1       -0.0886
     13 C           0.3395    0.9669   -0.2644 C.ar    1  LIG1       -0.0516
     14 C           0.7103    3.2625    0.3911 C.ar    1  LIG1       -0.0519
     15 C           5.7305   -0.0042   -0.8172 C.ar    1  LIG1       -0.0093
     16 C           4.3368    1.6911   -1.7545 C.ar    1  LIG1        0.0522
     17 C           4.8536   -1.3151    1.0659 C.ar    1  LIG1       -0.0258
     18 C           4.2631    3.4832   -3.5737 C.ar    1  LIG1       -0.0257
     19 C           5.3226    4.9326   -5.7090 C.ar    1  LIG1       -0.1071
     20 C           5.5577    1.0052   -1.7643 C.ar    1  LIG1        0.0708
     21 C           1.1221    2.1211   -0.2969 C.ar    1  LIG1        0.0041
     22 C           4.6979   -0.2740    0.0747 C.ar    1  LIG1        0.0115
     23 C           3.7162    2.7337   -2.4710 C.ar    1  LIG1        0.0483
     24 C           3.3916    1.3212   -0.8103 C.ar    1  LIG1        0.0692
     25 C           4.7665    6.1874   -7.8213 C.3     1  LIG1       -0.0616
     26 C           6.8885    4.8407   -7.6803 C.3     1  LIG1       -0.0617
     27 C           6.6830    6.9970   -6.4598 C.3     1  LIG1       -0.0615
     28 C           5.8896    5.7061   -6.8510 C.3     1  LIG1       -0.0608
     29 C           6.6643    1.2992   -2.7227 C.3     1  LIG1        0.3674
     30 N           3.5015    0.3604    0.1237 N.ar    1  LIG1       -0.3283
     31 N           2.4852    3.0070   -2.0262 N.ar    1  LIG1       -0.2734
     32 N           2.3158    2.1331   -1.0175 N.ar    1  LIG1       -0.2421
     33 F           7.7626    0.5075   -2.5478 F       1  LIG1       -0.1813
     34 F           6.3102    1.1354   -4.0309 F       1  LIG1       -0.1760
     35 F           7.1166    2.5824   -2.6222 F       1  LIG1       -0.1752
     36 H           5.2702   -4.1075    3.7212 H       1  LIG1        0.1232
     37 H          -2.1972    2.0866    1.7037 H       1  LIG1        0.1219
     38 H           6.4387   -4.2856    1.5401 H       1  LIG1        0.1217
     39 H           3.8339   -2.1416    4.2023 H       1  LIG1        0.1204
     40 H          -1.4646    0.0558    0.4801 H       1  LIG1        0.1288
     41 H          -0.8060    4.1385    1.6465 H       1  LIG1        0.1281
     42 H           6.1796   -2.5128   -0.1558 H       1  LIG1        0.1309
     43 H           3.5634   -0.3600    2.5170 H       1  LIG1        0.1402
     44 H           3.5063    2.1324   -5.0867 H       1  LIG1        0.1393
     45 H           5.1471    5.0093   -2.3187 H       1  LIG1        0.1315
     46 H           4.4434    3.4124   -6.9658 H       1  LIG1        0.1233
     47 H           6.0797    6.2845   -4.2045 H       1  LIG1        0.1261
     48 H           0.6485    0.0707   -0.7969 H       1  LIG1        0.1374
     49 H           1.3104    4.1691    0.3736 H       1  LIG1        0.1368
     50 H           6.6602   -0.5664   -0.7812 H       1  LIG1        0.1587
     51 H           5.1573    6.7594   -8.6710 H       1  LIG1        0.0382
     52 H           4.2049    5.3428   -8.2354 H       1  LIG1        0.0403
     53 H           4.0533    6.8271   -7.2882 H       1  LIG1        0.0387
     54 H           7.3072    5.4055   -8.5203 H       1  LIG1        0.0387
     55 H           7.7346    4.4809   -7.0830 H       1  LIG1        0.0388
     56 H           6.3768    3.9643   -8.0955 H       1  LIG1        0.0386
     57 H           7.0794    7.5301   -7.3324 H       1  LIG1        0.0386
     58 H           6.0402    7.7005   -5.9178 H       1  LIG1        0.0403
     59 H           7.5369    6.7502   -5.8180 H       1  LIG1        0.0383
@<TRIPOS>BOND
     1     1     3   ar
     2     1     4   ar
     3     2     5   ar
     4     2     6   ar
     5     3     7   ar
     6     4     8   ar
     7     5    13   ar
     8     6    14   ar
     9     7    17   ar
    10     8    17   ar
    11     9    11   ar
    12     9    18   ar
    13    10    12   ar
    14    10    18   ar
    15    11    19   ar
    16    12    19   ar
    17    13    21   ar
    18    14    21   ar
    19    15    20   ar
    20    15    22   ar
    21    16    20   ar
    22    16    23   ar
    23    16    24   ar
    24    17    22    1
    25    18    23    1
    26    19    28    1
    27    20    29    1
    28    21    32    1
    29    22    30   ar
    30    23    31   ar
    31    24    30   ar
    32    24    32   ar
    33    25    28    1
    34    26    28    1
    35    27    28    1
    36    29    33    1
    37    29    34    1
    38    29    35    1
    39    31    32   ar
    40     1    36    1
    41     2    37    1
    42     3    38    1
    43     4    39    1
    44     5    40    1
    45     6    41    1
    46     7    42    1
    47     8    43    1
    48     9    44    1
    49    10    45    1
    50    11    46    1
    51    12    47    1
    52    13    48    1
    53    14    49    1
    54    15    50    1
    55    25    51    1
    56    25    52    1
    57    25    53    1
    58    26    54    1
    59    26    55    1
    60    26    56    1
    61    27    57    1
    62    27    58    1
    63    27    59    1
