@<TRIPOS>MOLECULE
AG-205/33680034
 44 47 0 0 0
SMALL
USER_CHARGES

@<TRIPOS>ATOM
      1 C          -1.1957    1.9826    1.1566 C.ar    1  LIG1       -0.1042
      2 C          -0.3436    0.8815    1.0731 C.ar    1  LIG1       -0.0981
      3 C          -0.8596    3.1747    0.5150 C.ar    1  LIG1       -0.0861
      4 C           5.2682    4.4918   -3.5259 C.ar    1  LIG1       -0.0626
      5 C           3.5501    3.4799   -4.8901 C.ar    1  LIG1       -0.0626
      6 C           0.8448    0.9725    0.3483 C.ar    1  LIG1       -0.0559
      7 C           0.3286    3.2658   -0.2098 C.ar    1  LIG1       -0.0404
      8 C           5.2498   -3.3526    2.9931 C.ar    1  LIG1       -0.0654
      9 C           4.3376   -2.3431    3.3003 C.ar    1  LIG1       -0.0504
     10 C           5.7365    5.1939   -4.6363 C.ar    1  LIG1       -0.0756
     11 C           4.0184    4.1821   -6.0006 C.ar    1  LIG1       -0.0761
     12 C           5.6275   -2.3520    0.8266 C.ar    1  LIG1       -0.0399
     13 C           4.4158    1.9850   -1.7343 C.ar    1  LIG1       -0.0211
     14 C           4.1750    3.6347   -3.6527 C.ar    1  LIG1       -0.0282
     15 C           4.7153   -1.3426    1.1338 C.ar    1  LIG1        0.0161
     16 C           1.1809    2.1648   -0.2931 C.ar    1  LIG1        0.0080
     17 C           5.8948   -3.3571    1.7562 C.ar    1  LIG1        0.0460
     18 C           4.0703   -1.3381    2.3706 C.ar    1  LIG1       -0.0247
     19 C           5.1116    5.0391   -5.8738 C.ar    1  LIG1       -0.0438
     20 C           3.6931    2.9113   -2.5097 C.ar    1  LIG1        0.0055
     21 C           3.5266    1.5757   -0.7708 C.ar    1  LIG1        0.0355
     22 C           4.4788   -0.3123    0.1084 C.2     1  LIG1        0.0041
     23 N           2.4410    3.0805   -2.0764 N.ar    1  LIG1       -0.3108
     24 N           3.6463    0.7014    0.2522 N.2     1  LIG1       -0.3403
     25 N           2.3701    2.2550   -1.0184 N.ar    1  LIG1       -0.2594
     26 N           6.8234   -4.3850    1.4441 N.pl3   1  LIG1       -0.0896
     27 O           3.2272   -0.4199    2.6758 O.3     1  LIG1       -0.5036
     28 O           7.0490   -5.2793    2.2949 O.2     1  LIG1       -0.1964
     29 O           7.3928   -4.3711    0.3262 O.2     1  LIG1       -0.2838
     30 BR          5.7471    5.9893   -7.3786 Br      1  LIG1       -0.1188
     31 H          -2.1219    1.9117    1.7192 H       1  LIG1        0.1137
     32 H          -0.6056   -0.0472    1.5714 H       1  LIG1        0.1166
     33 H          -1.5245    4.0313    0.5793 H       1  LIG1        0.1266
     34 H           5.7663    4.6233   -2.5683 H       1  LIG1        0.1413
     35 H           2.6975    2.8144   -5.0056 H       1  LIG1        0.1419
     36 H           1.4997    0.1065    0.2907 H       1  LIG1        0.1296
     37 H           0.5780    4.2008   -0.7056 H       1  LIG1        0.1583
     38 H           5.4492   -4.1300    3.7265 H       1  LIG1        0.1404
     39 H           3.8489   -2.3645    4.2732 H       1  LIG1        0.1099
     40 H           6.5901    5.8565   -4.5204 H       1  LIG1        0.1359
     41 H           3.5213    4.0489   -6.9582 H       1  LIG1        0.1339
     42 H           6.1310   -2.3561   -0.1383 H       1  LIG1        0.1593
     43 H           5.4390    1.6573   -1.8529 H       1  LIG1        0.1201
     44 H           5.0447   -0.4134   -0.8372 H       1  LIG1        0.1954
@<TRIPOS>BOND
     1     1     2   ar
     2     1     3   ar
     3     2     6   ar
     4     3     7   ar
     5     4    10   ar
     6     4    14   ar
     7     5    11   ar
     8     5    14   ar
     9     6    16   ar
    10     7    16   ar
    11     8     9   ar
    12     8    17   ar
    13     9    18   ar
    14    10    19   ar
    15    11    19   ar
    16    12    15   ar
    17    12    17   ar
    18    13    20   ar
    19    13    21   ar
    20    14    20    1
    21    15    18   ar
    22    15    22    1
    23    16    25    1
    24    17    26    1
    25    18    27    1
    26    19    30    1
    27    20    23   ar
    28    21    24    1
    29    21    25   ar
    30    22    24    2
    31    23    25   ar
    32    26    28    1
    33    26    29    2
    34     1    31    1
    35     2    32    1
    36     3    33    1
    37     4    34    1
    38     5    35    1
    39     6    36    1
    40     7    37    1
    41     8    38    1
    42     9    39    1
    43    10    40    1
    44    11    41    1
    45    12    42    1
    46    13    43    1
    47    22    44    1
