@<TRIPOS>MOLECULE
AG-690/11191350
 42 45 0 0 0
SMALL
USER_CHARGES

@<TRIPOS>ATOM
      1 C          -1.4782    2.3235    1.0376 C.ar    1  LIG1       -0.1008
      2 C           5.3814    4.7864   -5.7673 C.ar    1  LIG1       -0.1042
      3 C          -1.0686    1.1459    0.4122 C.ar    1  LIG1       -0.0943
      4 C          -0.6721    3.4605    0.9801 C.ar    1  LIG1       -0.0951
      5 C           6.2368    4.3230   -4.7679 C.ar    1  LIG1       -0.0968
      6 C           4.0107    4.5428   -5.6806 C.ar    1  LIG1       -0.0945
      7 C           0.1470    1.1052   -0.2706 C.ar    1  LIG1       -0.0692
      8 C           0.5434    3.4198    0.2972 C.ar    1  LIG1       -0.0697
      9 C           5.7215    3.6159   -3.6815 C.ar    1  LIG1       -0.0571
     10 C           3.4954    3.8356   -4.5942 C.ar    1  LIG1       -0.0555
     11 C           6.1606   -1.9185    1.0198 C.ar    1  LIG1       -0.0484
     12 C           3.9348   -1.6837    1.9298 C.ar    1  LIG1       -0.0513
     13 C           6.4186   -2.9540    1.9178 C.ar    1  LIG1       -0.0600
     14 C           4.1929   -2.7195    2.8279 C.ar    1  LIG1       -0.0613
     15 C           0.9531    2.2422   -0.3282 C.ar    1  LIG1       -0.0087
     16 C           4.3509    3.3722   -3.5947 C.ar    1  LIG1       -0.0020
     17 C           4.9187   -1.2832    1.0258 C.ar    1  LIG1       -0.0194
     18 C           5.4348   -3.3546    2.8219 C.ar    1  LIG1       -0.0099
     19 C           2.2293    2.1994   -1.0451 C.2     1  LIG1        0.0959
     20 C           3.3853    1.3211   -0.7691 C.2     1  LIG1        0.1826
     21 C           4.4480    1.6689   -1.7433 C.2     1  LIG1        0.1907
     22 N           2.5290    2.9480   -2.0683 N.2     1  LIG1       -0.2678
     23 N           3.4674    0.3919    0.1110 N.2     1  LIG1       -0.2615
     24 N           3.8273    2.6533   -2.4903 N.am    1  LIG1       -0.2172
     25 N           4.6605   -0.2398    0.1231 N.pl3   1  LIG1       -0.2753
     26 O           5.5293    1.1288   -1.7502 O.2     1  LIG1       -0.4557
     27 CL          5.7536   -4.6323    3.9297 Cl      1  LIG1       -0.1409
     28 H          -2.4246    2.3552    1.5693 H       1  LIG1        0.1241
     29 H           5.7821    5.3378   -6.6130 H       1  LIG1        0.1158
     30 H          -1.6962    0.2606    0.4573 H       1  LIG1        0.1220
     31 H          -0.9912    4.3775    1.4667 H       1  LIG1        0.1218
     32 H           7.3039    4.5133   -4.8346 H       1  LIG1        0.1258
     33 H           3.3447    4.9047   -6.4586 H       1  LIG1        0.1262
     34 H           0.4564    0.1823   -0.7544 H       1  LIG1        0.1390
     35 H           1.1635    4.3118    0.2590 H       1  LIG1        0.1403
     36 H           6.3978    3.2596   -2.9085 H       1  LIG1        0.1420
     37 H           2.4254    3.6518   -4.5372 H       1  LIG1        0.1365
     38 H           6.9343   -1.6131    0.3202 H       1  LIG1        0.1479
     39 H           2.9642   -1.1945    1.9440 H       1  LIG1        0.1408
     40 H           7.3917   -3.4384    1.9028 H       1  LIG1        0.1466
     41 H           3.4169   -3.0194    3.5278 H       1  LIG1        0.1471
     42 H           5.3959    0.0300   -0.5211 H       1  LIG1        0.3712
@<TRIPOS>BOND
     1     1     3   ar
     2     1     4   ar
     3     2     5   ar
     4     2     6   ar
     5     3     7   ar
     6     4     8   ar
     7     5     9   ar
     8     6    10   ar
     9     7    15   ar
    10     8    15   ar
    11     9    16   ar
    12    10    16   ar
    13    11    13   ar
    14    11    17   ar
    15    12    14   ar
    16    12    17   ar
    17    13    18   ar
    18    14    18   ar
    19    15    19    1
    20    16    24    1
    21    17    25    1
    22    18    27    1
    23    19    20    1
    24    19    22    2
    25    20    21    1
    26    20    23    2
    27    21    24   am
    28    21    26    2
    29    22    24    1
    30    23    25    1
    31     1    28    1
    32     2    29    1
    33     3    30    1
    34     4    31    1
    35     5    32    1
    36     6    33    1
    37     7    34    1
    38     8    35    1
    39     9    36    1
    40    10    37    1
    41    11    38    1
    42    12    39    1
    43    13    40    1
    44    14    41    1
    45    25    42    1
