@<TRIPOS>MOLECULE
AG-690/13775008
 60 65 0 0 0
SMALL
USER_CHARGES

@<TRIPOS>ATOM
      1 C           5.2050    5.0113   -5.7280 C.ar    1  LIG1       -0.1018
      2 C          -1.2638    2.0838    1.1535 C.ar    1  LIG1       -0.0995
      3 C           5.0722    3.6275   -5.8424 C.ar    1  LIG1       -0.0946
      4 C           4.8410    5.6513   -4.5432 C.ar    1  LIG1       -0.0990
      5 C          -0.5252    0.9118    0.9917 C.ar    1  LIG1       -0.0901
      6 C          -0.8116    3.2767    0.5895 C.ar    1  LIG1       -0.0906
      7 C           4.5754    2.8836   -4.7721 C.ar    1  LIG1       -0.0726
      8 C           4.3440    4.9074   -3.4729 C.ar    1  LIG1       -0.0774
      9 C           4.9798   -2.6251    0.7133 C.ar    1  LIG1       -0.0411
     10 C           4.6641   -0.9559    2.4311 C.ar    1  LIG1       -0.0464
     11 C           0.6658    0.9325    0.2659 C.ar    1  LIG1       -0.0515
     12 C           0.3795    3.2975   -0.1362 C.ar    1  LIG1       -0.0520
     13 C           5.0652   -3.6157    1.6915 C.ar    1  LIG1       -0.0332
     14 C           4.7495   -1.9465    3.4094 C.ar    1  LIG1       -0.0373
     15 C           6.5872    1.3160   -2.7016 C.ar    1  LIG1       -0.0294
     16 C           6.9514   -0.7166   -0.8064 C.ar    1  LIG1       -0.0319
     17 C           5.5628    1.0171   -1.7826 C.ar    1  LIG1       -0.0407
     18 C           5.7405   -0.0061   -0.8253 C.ar    1  LIG1       -0.0113
     19 C           4.3298    1.7109   -1.7714 C.ar    1  LIG1        0.0336
     20 C           4.2112    3.5236   -3.5874 C.ar    1  LIG1       -0.0272
     21 C           4.7793   -1.2951    1.0831 C.ar    1  LIG1        0.0001
     22 C           1.1182    2.1255   -0.2980 C.ar    1  LIG1        0.0043
     23 C           4.9501   -3.2764    3.0396 C.ar    1  LIG1        0.0703
     24 C           7.7817    0.5974   -2.6646 C.ar    1  LIG1        0.0497
     25 C           7.9630   -0.4143   -1.7213 C.ar    1  LIG1        0.0474
     26 C           4.6913   -0.2637    0.0655 C.ar    1  LIG1        0.0300
     27 C           3.6976    2.7552   -2.4813 C.ar    1  LIG1        0.0439
     28 C           3.3888    1.3369   -0.8242 C.ar    1  LIG1        0.0624
     29 C           8.5049    1.9403   -4.4893 C.3     1  LIG1        0.0303
     30 C           9.1949   -2.3018   -2.4800 C.3     1  LIG1        0.0274
     31 N           3.4975    0.3766    0.1090 N.ar    1  LIG1       -0.3286
     32 N           2.4683    3.0225   -2.0298 N.ar    1  LIG1       -0.2799
     33 N           2.3088    2.1454   -1.0235 N.ar    1  LIG1       -0.2466
     34 N           5.0349   -4.2857    4.0346 N.pl3   1  LIG1       -0.0477
     35 O           5.2136   -5.4760    3.6797 O.2     1  LIG1       -0.1551
     36 O           4.9290   -3.9600    5.2417 O.2     1  LIG1       -0.2460
     37 O           8.7675    0.8932   -3.5577 O.3     1  LIG1       -0.3979
     38 O           9.1283   -1.1208   -1.6840 O.3     1  LIG1       -0.4034
     39 H           5.5928    5.5905   -6.5608 H       1  LIG1        0.1235
     40 H          -2.1920    2.0678    1.7170 H       1  LIG1        0.1221
     41 H           5.3567    3.1289   -6.7643 H       1  LIG1        0.1238
     42 H           4.9456    6.7285   -4.4539 H       1  LIG1        0.1215
     43 H          -0.8778   -0.0174    1.4296 H       1  LIG1        0.1286
     44 H          -1.3880    4.1887    0.7147 H       1  LIG1        0.1279
     45 H           4.4778    1.8056   -4.8769 H       1  LIG1        0.1329
     46 H           4.0647    5.4213   -2.5561 H       1  LIG1        0.1283
     47 H           5.0713   -2.9056   -0.3334 H       1  LIG1        0.1594
     48 H           4.5074    0.0764    2.7352 H       1  LIG1        0.1534
     49 H           1.2315    0.0117    0.1467 H       1  LIG1        0.1371
     50 H           0.7201    4.2340   -0.5712 H       1  LIG1        0.1366
     51 H           5.2222   -4.6484    1.3896 H       1  LIG1        0.1690
     52 H           4.6586   -1.6687    4.4566 H       1  LIG1        0.1680
     53 H           6.4725    2.0979   -3.4455 H       1  LIG1        0.1440
     54 H           7.1292   -1.5124   -0.0863 H       1  LIG1        0.1414
     55 H           9.3707    2.0736   -5.1424 H       1  LIG1        0.0917
     56 H           8.2970    2.8668   -3.9484 H       1  LIG1        0.0919
     57 H           7.6348    1.6697   -5.0922 H       1  LIG1        0.1266
     58 H          10.1755   -2.7686   -2.3594 H       1  LIG1        0.0899
     59 H           9.0283   -2.0450   -3.5291 H       1  LIG1        0.0898
     60 H           8.4197   -2.9973   -2.1495 H       1  LIG1        0.1261
@<TRIPOS>BOND
     1     1     3   ar
     2     1     4   ar
     3     2     5   ar
     4     2     6   ar
     5     3     7   ar
     6     4     8   ar
     7     5    11   ar
     8     6    12   ar
     9     7    20   ar
    10     8    20   ar
    11     9    13   ar
    12     9    21   ar
    13    10    14   ar
    14    10    21   ar
    15    11    22   ar
    16    12    22   ar
    17    13    23   ar
    18    14    23   ar
    19    15    17   ar
    20    15    24   ar
    21    16    18   ar
    22    16    25   ar
    23    17    18   ar
    24    17    19   ar
    25    18    26   ar
    26    19    27   ar
    27    19    28   ar
    28    20    27    1
    29    21    26    1
    30    22    33    1
    31    23    34    1
    32    24    25   ar
    33    24    37    1
    34    25    38    1
    35    26    31   ar
    36    27    32   ar
    37    28    31   ar
    38    28    33   ar
    39    29    37    1
    40    30    38    1
    41    32    33   ar
    42    34    35    1
    43    34    36    2
    44     1    39    1
    45     2    40    1
    46     3    41    1
    47     4    42    1
    48     5    43    1
    49     6    44    1
    50     7    45    1
    51     8    46    1
    52     9    47    1
    53    10    48    1
    54    11    49    1
    55    12    50    1
    56    13    51    1
    57    14    52    1
    58    15    53    1
    59    16    54    1
    60    29    55    1
    61    29    56    1
    62    29    57    1
    63    30    58    1
    64    30    59    1
    65    30    60    1
