@<TRIPOS>MOLECULE
AG-205/08567054
 43 46 0 0 0
SMALL
USER_CHARGES

@<TRIPOS>ATOM
      1 C          -1.1838    1.9708    1.1635 C.ar    1  LIG1       -0.0994
      2 C          -0.3313    0.8705    1.0733 C.ar    1  LIG1       -0.0908
      3 C          -0.8507    3.1653    0.5248 C.ar    1  LIG1       -0.0884
      4 C           5.2625    4.5001   -3.5323 C.ar    1  LIG1       -0.0640
      5 C           3.5404    3.4919   -4.8942 C.ar    1  LIG1       -0.0627
      6 C           0.8545    0.9648    0.3448 C.ar    1  LIG1       -0.0514
      7 C           0.3350    3.2596   -0.2037 C.ar    1  LIG1       -0.0487
      8 C           5.7266    5.2063   -4.6420 C.ar    1  LIG1       -0.0738
      9 C           4.0044    4.1981   -6.0039 C.ar    1  LIG1       -0.0733
     10 C           5.6340   -2.3756    0.8338 C.ar    1  LIG1       -0.0316
     11 C           5.2164   -3.3298    3.0138 C.ar    1  LIG1       -0.0300
     12 C           4.4178    1.9867   -1.7465 C.ar    1  LIG1       -0.0128
     13 C           4.1694    3.6427   -3.6584 C.ar    1  LIG1       -0.0272
     14 C           4.7291   -1.3505    1.1091 C.ar    1  LIG1        0.0255
     15 C           1.1876    2.1594   -0.2937 C.ar    1  LIG1        0.0063
     16 C           4.0679   -1.3148    2.3368 C.ar    1  LIG1        0.0349
     17 C           5.8776   -3.3653    1.7861 C.ar    1  LIG1        0.0075
     18 C           4.3115   -2.3046    3.2891 C.ar    1  LIG1        0.0451
     19 C           5.0975    5.0554   -5.8778 C.ar    1  LIG1       -0.0392
     20 C           3.6918    2.9151   -2.5163 C.ar    1  LIG1        0.0160
     21 C           3.5321    1.5735   -0.7814 C.ar    1  LIG1        0.0381
     22 C           4.4885   -0.3168    0.0881 C.2     1  LIG1        0.0173
     23 N           2.4411    3.0821   -2.0781 N.ar    1  LIG1       -0.2985
     24 N           3.6559    0.6958    0.2382 N.2     1  LIG1       -0.3383
     25 N           2.3744    2.2529   -1.0227 N.ar    1  LIG1       -0.2566
     26 O           3.1838   -0.3080    2.5978 O.3     1  LIG1       -0.4037
     27 CL          6.9932   -4.6308    1.4447 Cl      1  LIG1       -0.1279
     28 CL          3.5083   -2.2877    4.8162 Cl      1  LIG1       -0.1166
     29 BR          5.7273    6.0112   -7.3815 Br      1  LIG1       -0.1098
     30 H          -2.1081    1.8973    1.7290 H       1  LIG1        0.1217
     31 H          -0.5911   -0.0601    1.5693 H       1  LIG1        0.1265
     32 H          -1.5159    4.0212    0.5943 H       1  LIG1        0.1281
     33 H           5.7637    4.6287   -2.5760 H       1  LIG1        0.1400
     34 H           2.6878    2.8262   -5.0091 H       1  LIG1        0.1432
     35 H           1.5097    0.0994    0.2820 H       1  LIG1        0.1365
     36 H           0.5821    4.1965   -0.6971 H       1  LIG1        0.1400
     37 H           6.5801    5.8691   -4.5267 H       1  LIG1        0.1382
     38 H           3.5042    4.0679   -6.9602 H       1  LIG1        0.1376
     39 H           6.1474   -2.4018   -0.1251 H       1  LIG1        0.1622
     40 H           5.4083   -4.1029    3.7549 H       1  LIG1        0.1598
     41 H           5.4408    1.6601   -1.8697 H       1  LIG1        0.1350
     42 H           5.0512   -0.4144   -0.8598 H       1  LIG1        0.2126
     43 H           2.8073   -0.4178    3.4840 H       1  LIG1        0.3721
@<TRIPOS>BOND
     1     1     2   ar
     2     1     3   ar
     3     2     6   ar
     4     3     7   ar
     5     4     8   ar
     6     4    13   ar
     7     5     9   ar
     8     5    13   ar
     9     6    15   ar
    10     7    15   ar
    11     8    19   ar
    12     9    19   ar
    13    10    14   ar
    14    10    17   ar
    15    11    17   ar
    16    11    18   ar
    17    12    20   ar
    18    12    21   ar
    19    13    20    1
    20    14    16   ar
    21    14    22    1
    22    15    25    1
    23    16    18   ar
    24    16    26    1
    25    17    27    1
    26    18    28    1
    27    19    29    1
    28    20    23   ar
    29    21    24    1
    30    21    25   ar
    31    22    24    2
    32    23    25   ar
    33     1    30    1
    34     2    31    1
    35     3    32    1
    36     4    33    1
    37     5    34    1
    38     6    35    1
    39     7    36    1
    40     8    37    1
    41     9    38    1
    42    10    39    1
    43    11    40    1
    44    12    41    1
    45    22    42    1
    46    26    43    1
