@<TRIPOS>MOLECULE
AG-219/34261001
 42 45 0 0 0
SMALL
USER_CHARGES

@<TRIPOS>ATOM
      1 C           4.9564    5.0206   -5.5821 C.ar    1  LIG1       -0.1030
      2 C           4.9560   -3.0219    2.7859 C.ar    1  LIG1       -0.1040
      3 C           5.7305    5.0332   -4.4218 C.ar    1  LIG1       -0.0960
      4 C           3.8562    4.1686   -5.6774 C.ar    1  LIG1       -0.0990
      5 C           5.7489   -3.3102    1.6752 C.ar    1  LIG1       -0.0969
      6 C           4.2783   -1.8051    2.8622 C.ar    1  LIG1       -0.0987
      7 C           5.4043    4.1936   -3.3568 C.ar    1  LIG1       -0.0728
      8 C           3.5300    3.3290   -4.6123 C.ar    1  LIG1       -0.0785
      9 C           0.5214    3.2880   -0.2140 C.ar    1  LIG1       -0.0499
     10 C           0.4661    0.9449    0.3729 C.ar    1  LIG1       -0.0506
     11 C           5.8642   -2.3817    0.6406 C.ar    1  LIG1       -0.0705
     12 C           4.3936   -0.8765    1.8277 C.ar    1  LIG1       -0.0728
     13 C          -0.7404    3.4602    0.3550 C.ar    1  LIG1       -0.0706
     14 C          -0.7956    1.1172    0.9419 C.ar    1  LIG1       -0.0711
     15 C           4.8567    1.5227   -1.8869 C.ar    1  LIG1        0.0096
     16 C           4.3041    3.3414   -3.4520 C.ar    1  LIG1       -0.0305
     17 C           1.1247    2.0302   -0.2051 C.ar    1  LIG1        0.0172
     18 C           5.1866   -1.1648    0.7170 C.ar    1  LIG1       -0.0583
     19 C          -1.3989    2.3749    0.9331 C.ar    1  LIG1       -0.0385
     20 C           3.9659    2.4709   -2.3470 C.ar    1  LIG1       -0.0023
     21 C           4.4174    0.7552   -0.8275 C.ar    1  LIG1        0.0124
     22 C           2.4271    1.8527   -0.7923 C.ar    1  LIG1        0.0535
     23 N           2.7384    2.6638   -1.8212 N.ar    1  LIG1       -0.3492
     24 N           3.2042    0.8939   -0.2536 N.ar    1  LIG1       -0.3324
     25 N           5.3023   -0.2298   -0.3244 N.pl3   1  LIG1       -0.3327
     26 BR         -3.1081    2.6078    1.7051 Br      1  LIG1       -0.1079
     27 H           5.2096    5.6757   -6.4106 H       1  LIG1        0.1218
     28 H           4.8664   -3.7451    3.5916 H       1  LIG1        0.1161
     29 H           6.5862    5.6978   -4.3468 H       1  LIG1        0.1198
     30 H           3.2522    4.1593   -6.5800 H       1  LIG1        0.1194
     31 H           6.2764   -4.2575    1.6159 H       1  LIG1        0.1256
     32 H           3.6609   -1.5808    3.7274 H       1  LIG1        0.1246
     33 H           6.0174    4.2152   -2.4589 H       1  LIG1        0.1408
     34 H           2.6691    2.6706   -4.7009 H       1  LIG1        0.1278
     35 H           1.0221    4.1437   -0.6607 H       1  LIG1        0.1538
     36 H           0.9236   -0.0414    0.3884 H       1  LIG1        0.1522
     37 H           6.4846   -2.6159   -0.2205 H       1  LIG1        0.1257
     38 H           3.8607    0.0683    1.8981 H       1  LIG1        0.1229
     39 H          -1.1963    4.4469    0.3405 H       1  LIG1        0.1371
     40 H          -1.2952    0.2613    1.3881 H       1  LIG1        0.1363
     41 H           5.8378    1.3892   -2.3279 H       1  LIG1        0.1407
     42 H           6.1881   -0.2612   -0.8154 H       1  LIG1        0.3288
@<TRIPOS>BOND
     1     1     3   ar
     2     1     4   ar
     3     2     5   ar
     4     2     6   ar
     5     3     7   ar
     6     4     8   ar
     7     5    11   ar
     8     6    12   ar
     9     7    16   ar
    10     8    16   ar
    11     9    13   ar
    12     9    17   ar
    13    10    14   ar
    14    10    17   ar
    15    11    18   ar
    16    12    18   ar
    17    13    19   ar
    18    14    19   ar
    19    15    20   ar
    20    15    21   ar
    21    16    20    1
    22    17    22    1
    23    18    25    1
    24    19    26    1
    25    20    23   ar
    26    21    24   ar
    27    21    25    1
    28    22    23   ar
    29    22    24   ar
    30     1    27    1
    31     2    28    1
    32     3    29    1
    33     4    30    1
    34     5    31    1
    35     6    32    1
    36     7    33    1
    37     8    34    1
    38     9    35    1
    39    10    36    1
    40    11    37    1
    41    12    38    1
    42    13    39    1
    43    14    40    1
    44    15    41    1
    45    25    42    1
