@<TRIPOS>MOLECULE
AI-031/11219358
 37 40 0 0 0
SMALL
USER_CHARGES

@<TRIPOS>ATOM
      1 C           5.2489    4.7955   -5.5191 C.ar    1  LIG1       -0.1046
      2 C           4.9729   -3.0031    2.7521 C.ar    1  LIG1       -0.1011
      3 C           5.4789    5.2144   -4.2087 C.ar    1  LIG1       -0.1008
      4 C           4.5670    3.6030   -5.7606 C.ar    1  LIG1       -0.1007
      5 C           4.2662   -1.8057    2.8632 C.ar    1  LIG1       -0.0911
      6 C           5.7448   -3.2547    1.6178 C.ar    1  LIG1       -0.0921
      7 C           5.0270    4.4406   -3.1397 C.ar    1  LIG1       -0.0873
      8 C           4.1151    2.8291   -4.6917 C.ar    1  LIG1       -0.0873
      9 C           4.3311   -0.8600    1.8400 C.ar    1  LIG1       -0.0517
     10 C           5.8098   -2.3088    0.5945 C.ar    1  LIG1       -0.0528
     11 C           2.6132    2.6247   -1.7157 C.ar    1  LIG1       -0.0420
     12 C           2.2311    1.8161   -0.6505 C.ar    1  LIG1       -0.0187
     13 C           4.6928    1.4542   -1.7214 C.ar    1  LIG1        0.0226
     14 C           4.3451    3.2479   -3.3813 C.ar    1  LIG1       -0.0648
     15 C           3.8782    2.4489   -2.2766 C.ar    1  LIG1       -0.0461
     16 C           5.1030   -1.1115    0.7056 C.ar    1  LIG1        0.0016
     17 C           5.9814    0.9220   -1.9256 C.ar    1  LIG1        0.0045
     18 C           4.1881    0.7189   -0.6602 C.ar    1  LIG1        0.0507
     19 C           6.9840    1.3209   -2.9298 C.3     1  LIG1        0.0046
     20 N           2.9817    0.8428   -0.0800 N.ar    1  LIG1       -0.3593
     21 N           6.2757   -0.0649   -1.0727 N.ar    1  LIG1       -0.3023
     22 N           5.1675   -0.1655   -0.3165 N.ar    1  LIG1       -0.2547
     23 H           5.5994    5.3991   -6.3512 H       1  LIG1        0.1195
     24 H           4.9241   -3.7391    3.5491 H       1  LIG1        0.1199
     25 H           6.0084    6.1438   -4.0204 H       1  LIG1        0.1193
     26 H           4.3864    3.2769   -6.7808 H       1  LIG1        0.1191
     27 H           3.6661   -1.6091    3.7469 H       1  LIG1        0.1277
     28 H           6.2961   -4.1867    1.5326 H       1  LIG1        0.1264
     29 H           5.2139    4.7808   -2.1238 H       1  LIG1        0.1265
     30 H           3.5845    1.9021   -4.8954 H       1  LIG1        0.1265
     31 H           3.7759    0.0697    1.9397 H       1  LIG1        0.1372
     32 H           6.4158   -2.5174   -0.2838 H       1  LIG1        0.1351
     33 H           1.9290    3.3778   -2.0957 H       1  LIG1        0.1329
     34 H           1.2486    1.9430   -0.2034 H       1  LIG1        0.2278
     35 H           7.6438    2.1152   -2.5418 H       1  LIG1        0.0859
     36 H           7.6248    0.4755   -3.2362 H       1  LIG1        0.0816
     37 H           6.5170    1.6984   -3.8565 H       1  LIG1        0.0879
@<TRIPOS>BOND
     1     1     3   ar
     2     1     4   ar
     3     2     5   ar
     4     2     6   ar
     5     3     7   ar
     6     4     8   ar
     7     5     9   ar
     8     6    10   ar
     9     7    14   ar
    10     8    14   ar
    11     9    16   ar
    12    10    16   ar
    13    11    12   ar
    14    11    15   ar
    15    12    20   ar
    16    13    15   ar
    17    13    17   ar
    18    13    18   ar
    19    14    15    1
    20    16    22    1
    21    17    19    1
    22    17    21   ar
    23    18    20   ar
    24    18    22   ar
    25    21    22   ar
    26     1    23    1
    27     2    24    1
    28     3    25    1
    29     4    26    1
    30     5    27    1
    31     6    28    1
    32     7    29    1
    33     8    30    1
    34     9    31    1
    35    10    32    1
    36    11    33    1
    37    12    34    1
    38    19    35    1
    39    19    36    1
    40    19    37    1
