@<TRIPOS>MOLECULE
AG-690/11481224
 42 44 0 0 0
SMALL
USER_CHARGES

@<TRIPOS>ATOM
      1 C           6.0902    1.2499   -2.3456 C.1     1  LIG1        0.0803
      2 C          -1.5285    2.4138    0.9711 C.ar    1  LIG1       -0.1027
      3 C          -0.8798    3.5058    0.3947 C.ar    1  LIG1       -0.0986
      4 C          -0.9187    1.1592    0.9684 C.ar    1  LIG1       -0.0963
      5 C           0.3787    3.3433   -0.1843 C.ar    1  LIG1       -0.0782
      6 C           0.3398    0.9967    0.3893 C.ar    1  LIG1       -0.0739
      7 C           5.0694    4.5171   -3.2440 C.ar    1  LIG1       -0.0740
      8 C           4.1487    2.9099   -4.7952 C.ar    1  LIG1       -0.0727
      9 C           5.4892    5.3085   -4.3131 C.ar    1  LIG1       -0.0738
     10 C           4.5685    3.7013   -5.8643 C.ar    1  LIG1       -0.0736
     11 C           2.6959    2.7139   -1.8481 C.ar    1  LIG1       -0.0199
     12 C           4.7769    1.5081   -1.8336 C.ar    1  LIG1        0.1494
     13 C           4.3991    3.3178   -3.4850 C.ar    1  LIG1       -0.0498
     14 C           0.9886    2.0888   -0.1870 C.ar    1  LIG1       -0.0298
     15 C           3.9639    2.4971   -2.3760 C.ar    1  LIG1       -0.0013
     16 C           5.2387    4.9007   -5.6232 C.ar    1  LIG1       -0.0364
     17 C           2.2912    1.9211   -0.7862 C.ar    1  LIG1       -0.0021
     18 C           4.2791    0.7694   -0.7723 C.ar    1  LIG1        0.1212
     19 C           4.8947   -2.7700    2.5429 C.3     1  LIG1       -0.0632
     20 C           5.4565   -1.9582    1.3896 C.3     1  LIG1       -0.0386
     21 C           4.4578   -0.9292    0.8826 C.3     1  LIG1        0.0321
     22 N           7.1537    1.0410   -2.7602 N.1     1  LIG1       -0.3655
     23 N           3.0529    0.9510   -0.2328 N.ar    1  LIG1       -0.3378
     24 O           5.0413   -0.2176   -0.2016 O.3     1  LIG1       -0.3607
     25 BR          5.8063    5.9729   -7.0723 Br      1  LIG1       -0.1053
     26 H          -2.5077    2.5408    1.4234 H       1  LIG1        0.1221
     27 H          -1.3537    4.4830    0.3982 H       1  LIG1        0.1203
     28 H          -1.4226    0.3088    1.4182 H       1  LIG1        0.1192
     29 H           0.8717    4.2045   -0.6295 H       1  LIG1        0.1308
     30 H           0.8031    0.0129    0.3954 H       1  LIG1        0.1393
     31 H           5.2720    4.8486   -2.2283 H       1  LIG1        0.1353
     32 H           3.6268    1.9781   -4.9993 H       1  LIG1        0.1417
     33 H           6.0096    6.2406   -4.1082 H       1  LIG1        0.1396
     34 H           4.3656    3.3691   -6.8791 H       1  LIG1        0.1402
     35 H           2.0413    3.4805   -2.2542 H       1  LIG1        0.1462
     36 H           4.6008   -2.1200    3.3732 H       1  LIG1        0.0350
     37 H           4.0106   -3.3281    2.2193 H       1  LIG1        0.0350
     38 H           5.6330   -3.4883    2.9132 H       1  LIG1        0.0398
     39 H           5.7445   -2.6268    0.5695 H       1  LIG1        0.0553
     40 H           6.3778   -1.4531    1.7037 H       1  LIG1        0.0553
     41 H           3.5424   -1.4143    0.5286 H       1  LIG1        0.1083
     42 H           4.1999   -0.2140    1.6702 H       1  LIG1        0.1083
@<TRIPOS>BOND
     1     1    12    1
     2     1    22    3
     3     2     3   ar
     4     2     4   ar
     5     3     5   ar
     6     4     6   ar
     7     5    14   ar
     8     6    14   ar
     9     7     9   ar
    10     7    13   ar
    11     8    10   ar
    12     8    13   ar
    13     9    16   ar
    14    10    16   ar
    15    11    15   ar
    16    11    17   ar
    17    12    15   ar
    18    12    18   ar
    19    13    15    1
    20    14    17    1
    21    16    25    1
    22    17    23   ar
    23    18    23   ar
    24    18    24    1
    25    19    20    1
    26    20    21    1
    27    21    24    1
    28     2    26    1
    29     3    27    1
    30     4    28    1
    31     5    29    1
    32     6    30    1
    33     7    31    1
    34     8    32    1
    35     9    33    1
    36    10    34    1
    37    11    35    1
    38    19    36    1
    39    19    37    1
    40    19    38    1
    41    20    39    1
    42    20    40    1
    43    21    41    1
    44    21    42    1
