@<TRIPOS>MOLECULE
AG-670/34584025
 52 56 0 0 0
SMALL
USER_CHARGES

@<TRIPOS>ATOM
      1 C           7.9369    0.0510   -3.2240 C.ar    1  LIG1       -0.1078
      2 C           5.1230    5.8315   -5.3381 C.ar    1  LIG1       -0.1046
      3 C          -1.0317    1.8044    1.3122 C.ar    1  LIG1       -0.0991
      4 C           7.9302    1.3228   -2.6512 C.ar    1  LIG1       -0.1044
      5 C           6.7359   -0.6290   -3.4264 C.ar    1  LIG1       -0.1014
      6 C           4.8844    4.5119   -5.7220 C.ar    1  LIG1       -0.0978
      7 C           4.8797    6.2303   -4.0237 C.ar    1  LIG1       -0.0988
      8 C           5.9917   -3.0338    1.9259 C.ar    1  LIG1       -0.0899
      9 C          -0.3797    0.6643    0.8426 C.ar    1  LIG1       -0.0924
     10 C          -0.5525    3.0705    0.9756 C.ar    1  LIG1       -0.0892
     11 C           5.0393   -3.3937    2.8793 C.ar    1  LIG1       -0.0901
     12 C           6.7227    1.9146   -2.2807 C.ar    1  LIG1       -0.0903
     13 C           5.5284   -0.0373   -3.0558 C.ar    1  LIG1       -0.0857
     14 C           4.4025    3.5911   -4.7916 C.ar    1  LIG1       -0.0737
     15 C           4.3978    5.3095   -3.0934 C.ar    1  LIG1       -0.0749
     16 C           5.7848   -1.9130    1.1217 C.ar    1  LIG1       -0.0693
     17 C           0.7517    0.7902    0.0365 C.ar    1  LIG1       -0.0570
     18 C           0.5790    3.1962    0.1696 C.ar    1  LIG1       -0.0507
     19 C           3.8797   -2.6330    3.0283 C.ar    1  LIG1       -0.0637
     20 C           5.5217    1.2346   -2.4831 C.ar    1  LIG1       -0.0658
     21 C           4.1592    3.9900   -3.4773 C.ar    1  LIG1       -0.0274
     22 C           4.2784    1.8434   -2.1015 C.ar    1  LIG1        0.0197
     23 C           4.6251   -1.1523    1.2707 C.ar    1  LIG1       -0.0007
     24 C           1.2311    2.0561   -0.3000 C.ar    1  LIG1       -0.0009
     25 C           3.6725   -1.5123    2.2240 C.ar    1  LIG1        0.0199
     26 C           3.6610    3.0389   -2.5159 C.ar    1  LIG1        0.0303
     27 C           3.4084    1.3081   -1.1834 C.ar    1  LIG1        0.0563
     28 C           4.4500    0.0219    0.3993 C.2     1  LIG1        0.0159
     29 N           2.4893    3.2507   -1.9108 N.ar    1  LIG1       -0.3020
     30 N           3.4465    0.1769   -0.4422 N.2     1  LIG1       -0.3257
     31 N           2.3633    2.1812   -1.1068 N.ar    1  LIG1       -0.2597
     32 CL          2.2237   -0.5978    2.4405 Cl      1  LIG1       -0.1024
     33 H           8.8770   -0.4095   -3.5135 H       1  LIG1        0.1128
     34 H           5.4993    6.5483   -6.0621 H       1  LIG1        0.1180
     35 H          -1.9136    1.7071    1.9384 H       1  LIG1        0.1222
     36 H           8.8651    1.8530   -2.4947 H       1  LIG1        0.1144
     37 H           6.7412   -1.6187   -3.8734 H       1  LIG1        0.1158
     38 H           5.0750    4.2008   -6.7449 H       1  LIG1        0.1186
     39 H           5.0667    7.2574   -3.7248 H       1  LIG1        0.1180
     40 H           6.8946   -3.6264    1.8100 H       1  LIG1        0.1274
     41 H          -0.7535   -0.3214    1.1035 H       1  LIG1        0.1284
     42 H          -1.0616    3.9578    1.3406 H       1  LIG1        0.1293
     43 H           5.2007   -4.2663    3.5055 H       1  LIG1        0.1357
     44 H           6.7341    2.9067   -1.8353 H       1  LIG1        0.1132
     45 H           4.6007   -0.5806   -3.2203 H       1  LIG1        0.1216
     46 H           4.2214    2.5660   -5.1064 H       1  LIG1        0.1295
     47 H           4.2132    5.6362   -2.0727 H       1  LIG1        0.1284
     48 H           6.5350   -1.6435    0.3826 H       1  LIG1        0.1430
     49 H           1.2500   -0.1067   -0.3234 H       1  LIG1        0.1235
     50 H           0.9415    4.1891   -0.0858 H       1  LIG1        0.1388
     51 H           3.1472   -2.9271    3.7759 H       1  LIG1        0.1336
     52 H           5.2212    0.8123    0.4699 H       1  LIG1        0.2110
@<TRIPOS>BOND
     1     1     4   ar
     2     1     5   ar
     3     2     6   ar
     4     2     7   ar
     5     3     9   ar
     6     3    10   ar
     7     4    12   ar
     8     5    13   ar
     9     6    14   ar
    10     7    15   ar
    11     8    11   ar
    12     8    16   ar
    13     9    17   ar
    14    10    18   ar
    15    11    19   ar
    16    12    20   ar
    17    13    20   ar
    18    14    21   ar
    19    15    21   ar
    20    16    23   ar
    21    17    24   ar
    22    18    24   ar
    23    19    25   ar
    24    20    22    1
    25    21    26    1
    26    22    26   ar
    27    22    27   ar
    28    23    25   ar
    29    23    28    1
    30    24    31    1
    31    25    32    1
    32    26    29   ar
    33    27    30    1
    34    27    31   ar
    35    28    30    2
    36    29    31   ar
    37     1    33    1
    38     2    34    1
    39     3    35    1
    40     4    36    1
    41     5    37    1
    42     6    38    1
    43     7    39    1
    44     8    40    1
    45     9    41    1
    46    10    42    1
    47    11    43    1
    48    12    44    1
    49    13    45    1
    50    14    46    1
    51    15    47    1
    52    16    48    1
    53    17    49    1
    54    18    50    1
    55    19    51    1
    56    28    52    1
