@<TRIPOS>MOLECULE
AO-435/41051597
 35 38 0 0 0
SMALL
USER_CHARGES

@<TRIPOS>ATOM
      1 C          -1.2230    1.8273    1.3981 C.ar    1  LIG1       -0.1044
      2 C           5.5512    5.0582   -5.9748 C.ar    1  LIG1       -0.1044
      3 C           4.9830   -0.1324   -0.2413 C.ar    1  LIG1       -0.1012
      4 C           5.9069    0.3084   -1.2461 C.ar    1  LIG1       -0.1012
      5 C          -0.1909    2.6852    1.7781 C.ar    1  LIG1       -0.1004
      6 C          -1.1083    1.0728    0.2304 C.ar    1  LIG1       -0.0992
      7 C           4.8141    3.8989   -6.2166 C.ar    1  LIG1       -0.0992
      8 C           5.7329    5.5093   -4.6674 C.ar    1  LIG1       -0.1004
      9 C           3.6965    0.4184   -0.0527 C.ar    1  LIG1       -0.0928
     10 C           5.6400    1.3459   -2.1663 C.ar    1  LIG1       -0.0928
     11 C           0.9557    2.7886    0.9906 C.ar    1  LIG1       -0.0864
     12 C           0.0383    1.1763   -0.5571 C.ar    1  LIG1       -0.0846
     13 C           4.2587    3.1908   -5.1510 C.ar    1  LIG1       -0.0846
     14 C           5.1773    4.8010   -3.6018 C.ar    1  LIG1       -0.0864
     15 C           3.4412    1.4415   -0.9651 C.ar    1  LIG1       -0.0719
     16 C           4.3682    1.8838   -1.9732 C.ar    1  LIG1       -0.0719
     17 C           1.0704    2.0342   -0.1770 C.ar    1  LIG1       -0.0659
     18 C           4.4402    3.6419   -3.8436 C.ar    1  LIG1       -0.0659
     19 C           2.2601    2.1410   -0.9933 C.ar    1  LIG1       -0.0049
     20 C           3.8647    2.9066   -2.7382 C.ar    1  LIG1       -0.0049
     21 S           2.2727    3.3312   -2.2377 S.2     1  LIG1       -0.0805
     22 H          -2.1154    1.7462    2.0115 H       1  LIG1        0.1186
     23 H           5.9843    5.6091   -6.8046 H       1  LIG1        0.1186
     24 H           5.2962   -0.9440    0.4154 H       1  LIG1        0.1170
     25 H           6.8738   -0.1915   -1.3003 H       1  LIG1        0.1170
     26 H          -0.2804    3.2727    2.6872 H       1  LIG1        0.1199
     27 H          -1.9115    0.4039   -0.0651 H       1  LIG1        0.1204
     28 H           4.6727    3.5480   -7.2347 H       1  LIG1        0.1203
     29 H           6.3078    6.4113   -4.4791 H       1  LIG1        0.1199
     30 H           3.0229    0.0644    0.7160 H       1  LIG1        0.1241
     31 H           6.3573    1.6543   -2.9149 H       1  LIG1        0.1241
     32 H           1.7526    3.4599    1.3019 H       1  LIG1        0.1242
     33 H           0.1119    0.5823   -1.4650 H       1  LIG1        0.1278
     34 H           3.6889    2.2875   -5.3557 H       1  LIG1        0.1279
     35 H           5.3271    5.1663   -2.5886 H       1  LIG1        0.1242
@<TRIPOS>BOND
     1     1     5   ar
     2     1     6   ar
     3     2     7   ar
     4     2     8   ar
     5     3     4   ar
     6     3     9   ar
     7     4    10   ar
     8     5    11   ar
     9     6    12   ar
    10     7    13   ar
    11     8    14   ar
    12     9    15   ar
    13    10    16   ar
    14    11    17   ar
    15    12    17   ar
    16    13    18   ar
    17    14    18   ar
    18    15    16   ar
    19    15    19   ar
    20    16    20   ar
    21    17    19    1
    22    18    20    1
    23    19    21   ar
    24    20    21   ar
    25     1    22    1
    26     2    23    1
    27     3    24    1
    28     4    25    1
    29     5    26    1
    30     6    27    1
    31     7    28    1
    32     8    29    1
    33     9    30    1
    34    10    31    1
    35    11    32    1
    36    12    33    1
    37    13    34    1
    38    14    35    1
