@<TRIPOS>MOLECULE
AO-476/42008145
 50 54 0 0 0
SMALL
USER_CHARGES

@<TRIPOS>ATOM
      1 C           6.2967    1.2515   -2.5072 C.1     1  LIG1        0.0819
      2 C           4.4572   -3.7737    3.0286 C.ar    1  LIG1       -0.1058
      3 C          -0.5635    1.0155    1.3450 C.ar    1  LIG1       -0.0957
      4 C          -1.3125    2.1665    1.1196 C.ar    1  LIG1       -0.1010
      5 C           3.6068   -2.6720    2.9373 C.ar    1  LIG1       -0.1034
      6 C           5.7279   -3.7234    2.4555 C.ar    1  LIG1       -0.1033
      7 C           0.6888    0.8630    0.7448 C.ar    1  LIG1       -0.0716
      8 C           4.2385    2.8852   -4.8180 C.ar    1  LIG1       -0.0737
      9 C           5.2087    4.4723   -3.2763 C.ar    1  LIG1       -0.0740
     10 C          -0.8132    3.1684    0.2912 C.ar    1  LIG1       -0.0947
     11 C           4.0269   -1.5198    2.2725 C.ar    1  LIG1       -0.0955
     12 C           6.1481   -2.5714    1.7907 C.ar    1  LIG1       -0.0954
     13 C           4.6208    3.6923   -5.8895 C.ar    1  LIG1       -0.0663
     14 C           5.5911    5.2794   -4.3478 C.ar    1  LIG1       -0.0660
     15 C           4.9998    1.4528   -1.9297 C.ar    1  LIG1        0.1511
     16 C           4.5323    3.2753   -3.5115 C.ar    1  LIG1       -0.0499
     17 C           1.2127    1.8582   -0.0973 C.ar    1  LIG1       -0.0237
     18 C           4.1328    2.4333   -2.3933 C.ar    1  LIG1        0.0013
     19 C           0.4359    3.0172   -0.3270 C.ar    1  LIG1       -0.0835
     20 C           2.8826    2.5945   -1.7937 C.ar    1  LIG1       -0.0280
     21 C           5.2976   -1.4695    1.6993 C.ar    1  LIG1       -0.0725
     22 C           5.2972    4.8893   -5.6545 C.ar    1  LIG1       -0.0116
     23 C           2.5298    1.7337   -0.7463 C.ar    1  LIG1        0.0041
     24 C           4.5732    0.6555   -0.8830 C.ar    1  LIG1        0.1250
     25 C           0.9942    4.1337   -1.1792 C.3     1  LIG1       -0.0280
     26 C           1.8954    3.6097   -2.3013 C.3     1  LIG1       -0.0208
     27 C           5.7500   -0.2306    0.9839 C.3     1  LIG1        0.0601
     28 N           7.3463    1.0886   -2.9745 N.1     1  LIG1       -0.3644
     29 N           3.3656    0.7701   -0.2854 N.ar    1  LIG1       -0.3347
     30 O           5.3897   -0.3290   -0.3882 O.3     1  LIG1       -0.3474
     31 CL          5.7673    5.8853   -6.9770 Cl      1  LIG1       -0.1383
     32 H           4.1304   -4.6702    3.5474 H       1  LIG1        0.1189
     33 H          -0.9520    0.2339    1.9915 H       1  LIG1        0.1188
     34 H          -2.2828    2.2853    1.5923 H       1  LIG1        0.1233
     35 H           2.6178   -2.7106    3.3844 H       1  LIG1        0.1173
     36 H           6.3907   -4.5806    2.5273 H       1  LIG1        0.1173
     37 H           1.2452   -0.0499    0.9448 H       1  LIG1        0.1395
     38 H           3.7116    1.9551   -5.0174 H       1  LIG1        0.1408
     39 H           5.4443    4.7906   -2.2635 H       1  LIG1        0.1374
     40 H          -1.4008    4.0689    0.1324 H       1  LIG1        0.1223
     41 H           3.3575   -0.6662    2.2061 H       1  LIG1        0.1228
     42 H           7.1397   -2.5412    1.3470 H       1  LIG1        0.1228
     43 H           4.3837    3.3772   -6.9027 H       1  LIG1        0.1384
     44 H           6.1166    6.2102   -4.1499 H       1  LIG1        0.1380
     45 H           0.1817    4.7212   -1.6231 H       1  LIG1        0.0746
     46 H           1.5655    4.8037   -0.5236 H       1  LIG1        0.0778
     47 H           2.3903    4.4742   -2.7567 H       1  LIG1        0.0785
     48 H           1.2832    3.1310   -3.0766 H       1  LIG1        0.0756
     49 H           5.2826    0.6623    1.4128 H       1  LIG1        0.1306
     50 H           6.8362   -0.1124    1.0625 H       1  LIG1        0.1310
@<TRIPOS>BOND
     1     1    15    1
     2     1    28    3
     3     2     5   ar
     4     2     6   ar
     5     3     4   ar
     6     3     7   ar
     7     4    10   ar
     8     5    11   ar
     9     6    12   ar
    10     7    17   ar
    11     8    13   ar
    12     8    16   ar
    13     9    14   ar
    14     9    16   ar
    15    10    19   ar
    16    11    21   ar
    17    12    21   ar
    18    13    22   ar
    19    14    22   ar
    20    15    18   ar
    21    15    24   ar
    22    16    18    1
    23    17    19   ar
    24    17    23    1
    25    18    20   ar
    26    19    25    1
    27    20    23   ar
    28    20    26    1
    29    21    27    1
    30    22    31    1
    31    23    29   ar
    32    24    29   ar
    33    24    30    1
    34    25    26    1
    35    27    30    1
    36     2    32    1
    37     3    33    1
    38     4    34    1
    39     5    35    1
    40     6    36    1
    41     7    37    1
    42     8    38    1
    43     9    39    1
    44    10    40    1
    45    11    41    1
    46    12    42    1
    47    13    43    1
    48    14    44    1
    49    25    45    1
    50    25    46    1
    51    26    47    1
    52    26    48    1
    53    27    49    1
    54    27    50    1
