@<TRIPOS>MOLECULE
AO-476/40672202
 51 54 0 0 0
SMALL
USER_CHARGES

@<TRIPOS>ATOM
      1 C           1.6914    3.6730   -2.2529 C.1     1  LIG1        0.0854
      2 C           4.9775   -2.9567    2.6978 C.ar    1  LIG1       -0.0999
      3 C           4.2671   -1.7619    2.8139 C.ar    1  LIG1       -0.0908
      4 C           5.7483   -3.2023    1.5615 C.ar    1  LIG1       -0.0904
      5 C           5.0457    4.4739   -3.1839 C.ar    1  LIG1       -0.0806
      6 C           4.1320    2.8610   -4.7333 C.ar    1  LIG1       -0.0717
      7 C           4.3273   -0.8128    1.7936 C.ar    1  LIG1       -0.0521
      8 C           5.8084   -2.2531    0.5411 C.ar    1  LIG1       -0.0512
      9 C           5.5234    5.2310   -4.2536 C.ar    1  LIG1       -0.0626
     10 C           4.6097    3.6181   -5.8031 C.ar    1  LIG1       -0.0500
     11 C           2.5915    2.6764   -1.7496 C.ar    1  LIG1        0.1663
     12 C           4.6739    1.5110   -1.7639 C.ar    1  LIG1        0.0477
     13 C           4.3501    3.2889   -3.4237 C.ar    1  LIG1       -0.0440
     14 C           3.8549    2.5042   -2.3152 C.ar    1  LIG1        0.0181
     15 C           5.0980   -1.0583    0.6572 C.ar    1  LIG1        0.0045
     16 C           5.3053    4.8030   -5.5632 C.ar    1  LIG1       -0.0093
     17 C           5.9631    0.9822   -1.9733 C.ar    1  LIG1        0.0117
     18 C           4.1749    0.7734   -0.7016 C.ar    1  LIG1        0.0669
     19 C           2.2152    1.8658   -0.6838 C.ar    1  LIG1        0.1395
     20 C          -0.9820    1.2182    1.0383 C.2     1  LIG1        0.0866
     21 C           6.9621    1.3825   -2.9809 C.3     1  LIG1        0.0080
     22 C          -2.0041    0.1125    1.0461 C.3     1  LIG1        0.0340
     23 C           6.4733    6.7431   -6.2899 C.3     1  LIG1        0.0253
     24 C           0.3679    0.8790    0.4429 C.3     1  LIG1        0.1268
     25 N           0.9631    4.4795   -2.6603 N.1     1  LIG1       -0.3622
     26 N           6.2628   -0.0048   -1.1224 N.ar    1  LIG1       -0.2959
     27 N           2.9702    0.8937   -0.1169 N.ar    1  LIG1       -0.3100
     28 N           5.1577   -0.1089   -0.3623 N.ar    1  LIG1       -0.2458
     29 O          -1.2413    2.3313    1.4930 O.2     1  LIG1       -0.4562
     30 O           5.7710    5.5422   -6.6068 O.3     1  LIG1       -0.4147
     31 O           0.9704    2.0337   -0.1240 O.3     1  LIG1       -0.3275
     32 H           4.9324   -3.6952    3.4928 H       1  LIG1        0.1214
     33 H           3.6680   -1.5699    3.6992 H       1  LIG1        0.1280
     34 H           6.3023   -4.1322    1.4725 H       1  LIG1        0.1279
     35 H           5.2236    4.8206   -2.1688 H       1  LIG1        0.1395
     36 H           3.5915    1.9397   -4.9367 H       1  LIG1        0.1422
     37 H           3.7693    0.1147    1.8970 H       1  LIG1        0.1363
     38 H           6.4136   -2.4569   -0.3390 H       1  LIG1        0.1379
     39 H           6.0645    6.1532   -4.0606 H       1  LIG1        0.1184
     40 H           4.4366    3.2800   -6.8212 H       1  LIG1        0.1349
     41 H           7.6215    2.1780   -2.5950 H       1  LIG1        0.0885
     42 H           7.6032    0.5379   -3.2888 H       1  LIG1        0.0854
     43 H           6.4914    1.7588   -3.9061 H       1  LIG1        0.0887
     44 H          -1.9219   -0.4598    1.9743 H       1  LIG1        0.0687
     45 H          -3.0074    0.5411    0.9829 H       1  LIG1        0.0859
     46 H          -1.8258   -0.5570    0.2011 H       1  LIG1        0.0856
     47 H           6.7896    7.2354   -7.2127 H       1  LIG1        0.0903
     48 H           7.3444    6.5051   -5.6742 H       1  LIG1        0.0911
     49 H           5.8078    7.4081   -5.7344 H       1  LIG1        0.1229
     50 H           0.2492    0.1183   -0.3335 H       1  LIG1        0.1460
     51 H           1.0212    0.5007    1.2336 H       1  LIG1        0.1546
@<TRIPOS>BOND
     1     1    11    1
     2     1    25    3
     3     2     3   ar
     4     2     4   ar
     5     3     7   ar
     6     4     8   ar
     7     5     9   ar
     8     5    13   ar
     9     6    10   ar
    10     6    13   ar
    11     7    15   ar
    12     8    15   ar
    13     9    16   ar
    14    10    16   ar
    15    11    14   ar
    16    11    19   ar
    17    12    14   ar
    18    12    17   ar
    19    12    18   ar
    20    13    14    1
    21    15    28    1
    22    16    30    1
    23    17    21    1
    24    17    26   ar
    25    18    27   ar
    26    18    28   ar
    27    19    27   ar
    28    19    31    1
    29    20    22    1
    30    20    24    1
    31    20    29    2
    32    23    30    1
    33    24    31    1
    34    26    28   ar
    35     2    32    1
    36     3    33    1
    37     4    34    1
    38     5    35    1
    39     6    36    1
    40     7    37    1
    41     8    38    1
    42     9    39    1
    43    10    40    1
    44    21    41    1
    45    21    42    1
    46    21    43    1
    47    22    44    1
    48    22    45    1
    49    22    46    1
    50    23    47    1
    51    23    48    1
    52    23    49    1
    53    24    50    1
    54    24    51    1
