# Name:		AH-487/40652398
# Created and modified by SHAFTS on Thu Dec 15 20:34:29 2011

# 

@<TRIPOS>MOLECULE
AH-487/40652398
   59    63     0
SMALL
USER_CHARGE


@<TRIPOS>ATOM
      1 C1          5.1543   -3.3244    2.9778 C.ar      1 <1>        -0.1017
      2 C2         -1.2665    2.0954    1.1441 C.ar      1 <1>        -0.0995
      3 C3          5.8114   -3.4246    1.7515 C.ar      1 <1>        -0.0977
      4 C4          4.3469   -2.2196    3.2481 C.ar      1 <1>        -0.0953
      5 C5         -0.8548    0.9541    0.4561 C.ar      1 <1>        -0.0901
      6 C6         -0.4839    3.2497    1.1116 C.ar      1 <1>        -0.0905
      7 C7          5.6610   -2.4200    0.7955 C.ar      1 <1>        -0.0772
      8 C8          4.1966   -1.2150    2.2923 C.ar      1 <1>        -0.0726
      9 C9          4.0689    3.0402   -4.8820 C.ar      1 <1>        -0.0727
     10 C10         4.9870    4.6509   -3.3330 C.ar      1 <1>        -0.0726
     11 C11         4.5986    3.7649   -5.9496 C.ar      1 <1>        -0.0904
     12 C12         5.5168    5.3757   -4.4005 C.ar      1 <1>        -0.0886
     13 C13         0.3395    0.9669   -0.2644 C.ar      1 <1>        -0.0516
     14 C14         0.7103    3.2625    0.3911 C.ar      1 <1>        -0.0519
     15 C15         5.7305   -0.0042   -0.8172 C.ar      1 <1>        -0.0093
     16 C16         4.3368    1.6911   -1.7545 C.ar      1 <1>         0.0522
     17 C17         4.8536   -1.3151    1.0659 C.ar      1 <1>        -0.0258
     18 C18         4.2631    3.4832   -3.5737 C.ar      1 <1>        -0.0257
     19 C19         5.3226    4.9326   -5.7090 C.ar      1 <1>        -0.1071
     20 C20         5.5577    1.0052   -1.7643 C.ar      1 <1>         0.0708
     21 C21         1.1221    2.1211   -0.2969 C.ar      1 <1>         0.0041
     22 C22         4.6979   -0.2740    0.0747 C.ar      1 <1>         0.0115
     23 C23         3.7162    2.7337   -2.4710 C.2       1 <1>         0.0483
     24 C24         3.3916    1.3212   -0.8103 C.ar      1 <1>         0.0692
     25 C25         4.7665    6.1874   -7.8213 C.3       1 <1>        -0.0616
     26 C26         6.8885    4.8407   -7.6803 C.3       1 <1>        -0.0617
     27 C27         6.6830    6.9970   -6.4598 C.3       1 <1>        -0.0615
     28 C28         5.8896    5.7061   -6.8510 C.3       1 <1>        -0.0608
     29 C29         6.6643    1.2992   -2.7227 C.3       1 <1>         0.3674
     30 N1          3.5015    0.3604    0.1237 N.ar      1 <1>        -0.3283
     31 N2          2.4852    3.0070   -2.0262 N.2       1 <1>        -0.2734
     32 N3          2.3158    2.1331   -1.0175 N.pl3     1 <1>        -0.2421
     33 F1          7.7626    0.5075   -2.5478 F         1 <1>        -0.1813
     34 F2          6.3102    1.1354   -4.0309 F         1 <1>        -0.1760
     35 F3          7.1166    2.5824   -2.6222 F         1 <1>        -0.1752
     36 H1          5.2702   -4.1075    3.7212 H         1 <1>         0.1232
     37 H2         -2.1972    2.0866    1.7037 H         1 <1>         0.1219
     38 H3          6.4387   -4.2856    1.5401 H         1 <1>         0.1217
     39 H4          3.8339   -2.1416    4.2023 H         1 <1>         0.1204
     40 H5         -1.4646    0.0558    0.4801 H         1 <1>         0.1288
     41 H6         -0.8060    4.1385    1.6465 H         1 <1>         0.1281
     42 H7          6.1796   -2.5128   -0.1558 H         1 <1>         0.1309
     43 H8          3.5634   -0.3600    2.5170 H         1 <1>         0.1402
     44 H9          3.5063    2.1324   -5.0867 H         1 <1>         0.1393
     45 H10         5.1471    5.0093   -2.3187 H         1 <1>         0.1315
     46 H11         4.4434    3.4124   -6.9658 H         1 <1>         0.1233
     47 H12         6.0797    6.2845   -4.2045 H         1 <1>         0.1261
     48 H13         0.6485    0.0707   -0.7969 H         1 <1>         0.1374
     49 H14         1.3104    4.1691    0.3736 H         1 <1>         0.1368
     50 H15         6.6602   -0.5664   -0.7812 H         1 <1>         0.1587
     51 H16         5.1573    6.7594   -8.6710 H         1 <1>         0.0382
     52 H17         4.2049    5.3428   -8.2354 H         1 <1>         0.0403
     53 H18         4.0533    6.8271   -7.2882 H         1 <1>         0.0387
     54 H19         7.3072    5.4055   -8.5203 H         1 <1>         0.0387
     55 H20         7.7346    4.4809   -7.0830 H         1 <1>         0.0388
     56 H21         6.3768    3.9643   -8.0955 H         1 <1>         0.0386
     57 H22         7.0794    7.5301   -7.3324 H         1 <1>         0.0386
     58 H23         6.0402    7.7005   -5.9178 H         1 <1>         0.0403
     59 H24         7.5369    6.7502   -5.8180 H         1 <1>         0.0383
@<TRIPOS>BOND
     1    1    3 ar
     2    1    4 ar
     3    2    5 ar
     4    2    6 ar
     5    3    7 ar
     6    4    8 ar
     7    5   13 ar
     8    6   14 ar
     9    7   17 ar
    10    8   17 ar
    11    9   11 ar
    12    9   18 ar
    13   10   12 ar
    14   10   18 ar
    15   11   19 ar
    16   12   19 ar
    17   13   21 ar
    18   14   21 ar
    19   15   20 ar
    20   15   22 ar
    21   16   20 ar
    22   16   23 1
    23   16   24 ar
    24   17   22 1
    25   18   23 1
    26   19   28 1
    27   20   29 1
    28   21   32 1
    29   22   30 ar
    30   23   31 2
    31   24   30 ar
    32   24   32 1
    33   25   28 1
    34   26   28 1
    35   27   28 1
    36   29   33 1
    37   29   34 1
    38   29   35 1
    39   31   32 1
    40    1   36 1
    41    2   37 1
    42    3   38 1
    43    4   39 1
    44    5   40 1
    45    6   41 1
    46    7   42 1
    47    8   43 1
    48    9   44 1
    49   10   45 1
    50   11   46 1
    51   12   47 1
    52   13   48 1
    53   14   49 1
    54   15   50 1
    55   25   51 1
    56   25   52 1
    57   25   53 1
    58   26   54 1
    59   26   55 1
    60   26   56 1
    61   27   57 1
    62   27   58 1
    63   27   59 1
@<TRIPOS>Similarity
2.0170
@<TRIPOS>ShapeSim
1.0000
@<TRIPOS>PharmSim
1.0170
# END
# Name:		AO-081/40738502
# Created and modified by SHAFTS on Thu Dec 15 20:34:29 2011

# 

@<TRIPOS>MOLECULE
AO-081/40738502
   52    55     0
SMALL
USER_CHARGE


@<TRIPOS>ATOM
      1 C1         -1.2666    2.0948    1.1440 C.ar      1 <1>        -0.0996
      2 C2         -0.5324    0.9189    0.9891 C.ar      1 <1>        -0.0900
      3 C3         -0.8064    3.2840    0.5787 C.ar      1 <1>        -0.0907
      4 C4          4.0718    3.0448   -4.8798 C.ar      1 <1>        -0.0727
      5 C5          4.9893    4.6534   -3.3281 C.ar      1 <1>        -0.0728
      6 C6          4.6025    3.7706   -5.9461 C.ar      1 <1>        -0.0887
      7 C7          5.5202    5.3792   -4.3945 C.ar      1 <1>        -0.0905
      8 C8          0.6619    0.9324    0.2687 C.ar      1 <1>        -0.0515
      9 C9          0.3880    3.2973   -0.1417 C.ar      1 <1>        -0.0522
     10 C10         5.7300   -0.0048   -0.8181 C.ar      1 <1>        -0.0249
     11 C11         4.3371    1.6920   -1.7538 C.ar      1 <1>         0.0497
     12 C12         4.2651    3.4862   -3.5708 C.ar      1 <1>        -0.0259
     13 C13         5.3267    4.9378   -5.7035 C.ar      1 <1>        -0.1072
     14 C14         5.5578    1.0057   -1.7641 C.ar      1 <1>         0.0663
     15 C15         1.1221    2.1215   -0.2967 C.ar      1 <1>         0.0037
     16 C16         3.7171    2.7356   -2.4693 C.2       1 <1>         0.0472
     17 C17         4.6971   -0.2751    0.0733 C.ar      1 <1>        -0.0257
     18 C18         3.3916    1.3214   -0.8102 C.ar      1 <1>         0.0645
     19 C19         4.8962   -1.3618    1.0813 C.3       1 <1>         0.0062
     20 C20         4.7729    6.1951   -7.8150 C.3       1 <1>        -0.0616
     21 C21         6.8941    4.8474   -7.6737 C.3       1 <1>        -0.0617
     22 C22         6.6885    7.0024   -6.4509 C.3       1 <1>        -0.0616
     23 C23         5.8949    5.7123   -6.8442 C.3       1 <1>        -0.0608
     24 C24         6.6643    1.2993   -2.7226 C.3       1 <1>         0.3661
     25 N1          2.4861    3.0090   -2.0245 N.2       1 <1>        -0.2744
     26 N2          3.5009    0.3596    0.1227 N.ar      1 <1>        -0.3449
     27 N3          2.3162    2.1340   -1.0168 N.pl3     1 <1>        -0.2436
     28 F1          7.7619    0.5061   -2.5487 F         1 <1>        -0.1817
     29 F2          6.3097    1.1369   -4.0309 F         1 <1>        -0.1768
     30 F3          7.1182    2.5818   -2.6211 F         1 <1>        -0.1761
     31 H1         -2.1975    2.0845    1.7033 H         1 <1>         0.1218
     32 H2         -0.8912   -0.0074    1.4280 H         1 <1>         0.1289
     33 H3         -1.3793    4.1990    0.6987 H         1 <1>         0.1279
     34 H4          3.5090    2.1374   -5.0859 H         1 <1>         0.1313
     35 H5          5.1488    5.0106   -2.3134 H         1 <1>         0.1393
     36 H6          4.4480    3.4193   -6.9628 H         1 <1>         0.1260
     37 H7          6.0833    6.2875   -4.1970 H         1 <1>         0.1233
     38 H8          1.2240    0.0086    0.1546 H         1 <1>         0.1378
     39 H9          0.7348    4.2311   -0.5777 H         1 <1>         0.1365
     40 H10         6.6569   -0.5702   -0.7782 H         1 <1>         0.1534
     41 H11         5.3375   -0.9519    1.9964 H         1 <1>         0.0871
     42 H12         3.9449   -1.8435    1.3352 H         1 <1>         0.0839
     43 H13         5.5583   -2.1442    0.6920 H         1 <1>         0.0845
     44 H14         5.1644    6.7680   -8.6637 H         1 <1>         0.0382
     45 H15         4.2112    5.3512   -8.2304 H         1 <1>         0.0403
     46 H16         4.0594    6.8344   -7.2815 H         1 <1>         0.0386
     47 H17         7.3138    5.4130   -8.5129 H         1 <1>         0.0386
     48 H18         7.7396    4.4867   -7.0762 H         1 <1>         0.0388
     49 H19         6.3825    3.9718   -8.0903 H         1 <1>         0.0386
     50 H20         7.0859    7.5363   -7.3226 H         1 <1>         0.0386
     51 H21         6.0457    7.7056   -5.9087 H         1 <1>         0.0404
     52 H22         7.5418    6.7546   -5.8089 H         1 <1>         0.0382
@<TRIPOS>BOND
     1    1    2 ar
     2    1    3 ar
     3    2    8 ar
     4    3    9 ar
     5    4    6 ar
     6    4   12 ar
     7    5    7 ar
     8    5   12 ar
     9    6   13 ar
    10    7   13 ar
    11    8   15 ar
    12    9   15 ar
    13   10   14 ar
    14   10   17 ar
    15   11   14 ar
    16   11   16 1
    17   11   18 ar
    18   12   16 1
    19   13   23 1
    20   14   24 1
    21   15   27 1
    22   16   25 2
    23   17   19 1
    24   17   26 ar
    25   18   26 ar
    26   18   27 1
    27   20   23 1
    28   21   23 1
    29   22   23 1
    30   24   28 1
    31   24   29 1
    32   24   30 1
    33   25   27 1
    34    1   31 1
    35    2   32 1
    36    3   33 1
    37    4   34 1
    38    5   35 1
    39    6   36 1
    40    7   37 1
    41    8   38 1
    42    9   39 1
    43   10   40 1
    44   19   41 1
    45   19   42 1
    46   19   43 1
    47   20   44 1
    48   20   45 1
    49   20   46 1
    50   21   47 1
    51   21   48 1
    52   21   49 1
    53   22   50 1
    54   22   51 1
    55   22   52 1
@<TRIPOS>Similarity
1.8382
@<TRIPOS>ShapeSim
0.9225
@<TRIPOS>PharmSim
0.9157
# END
# Name:		AO-081/15246973
# Created and modified by SHAFTS on Thu Dec 15 20:34:29 2011

# 

@<TRIPOS>MOLECULE
AO-081/15246973
   43    46     0
SMALL
USER_CHARGE


@<TRIPOS>ATOM
      1 C1         -1.2664    2.0952    1.1442 C.ar      1 <1>        -0.1013
      2 C2         -0.5319    0.9194    0.9902 C.ar      1 <1>        -0.0912
      3 C3         -0.8066    3.2840    0.5776 C.ar      1 <1>        -0.0923
      4 C4          4.0706    3.0409   -4.8815 C.ar      1 <1>        -0.0728
      5 C5          4.9879    4.6512   -3.3316 C.ar      1 <1>        -0.0738
      6 C6          4.6009    3.7658   -5.9487 C.ar      1 <1>        -0.0951
      7 C7          5.5184    5.3762   -4.3988 C.ar      1 <1>        -0.0961
      8 C8          0.6623    0.9324    0.2696 C.ar      1 <1>        -0.0517
      9 C9          0.3876    3.2970   -0.1430 C.ar      1 <1>        -0.0530
     10 C10         5.7304   -0.0043   -0.8172 C.ar      1 <1>        -0.0578
     11 C11         4.3369    1.6912   -1.7543 C.ar      1 <1>         0.0228
     12 C12         4.2640    3.4836   -3.5730 C.ar      1 <1>        -0.0261
     13 C13         5.3248    4.9334   -5.7073 C.ar      1 <1>        -0.1145
     14 C14         5.5577    1.0052   -1.7642 C.ar      1 <1>        -0.0798
     15 C15         1.1221    2.1212   -0.2970 C.ar      1 <1>         0.0022
     16 C16         3.7165    2.7339   -2.4708 C.2       1 <1>         0.0395
     17 C17         4.6977   -0.2741    0.0746 C.ar      1 <1>        -0.0411
     18 C18         3.3917    1.3213   -0.8102 C.ar      1 <1>         0.0519
     19 C19         5.8926    5.7070   -6.8489 C.3       1 <1>        -0.0418
     20 C20         6.6640    1.2982   -2.7232 C.3       1 <1>        -0.0263
     21 C21         4.8974   -1.3597    1.0837 C.3       1 <1>         0.0009
     22 N1          2.4855    3.0074   -2.0260 N.2       1 <1>        -0.2836
     23 N2          3.5014    0.3604    0.1237 N.ar      1 <1>        -0.3612
     24 N3          2.3160    2.1334   -1.0174 N.pl3     1 <1>        -0.2501
     25 H1         -2.1971    2.0852    1.7037 H         1 <1>         0.1196
     26 H2         -0.8904   -0.0066    1.4302 H         1 <1>         0.1274
     27 H3         -1.3798    4.1989    0.6968 H         1 <1>         0.1262
     28 H4          3.5080    2.1331   -5.0867 H         1 <1>         0.1324
     29 H5          5.1475    5.0094   -2.3173 H         1 <1>         0.1328
     30 H6          4.4462    3.4135   -6.9650 H         1 <1>         0.1217
     31 H7          6.0813    6.2848   -4.2023 H         1 <1>         0.1219
     32 H8          1.2246    0.0088    0.1563 H         1 <1>         0.1372
     33 H9          0.7341    4.2304   -0.5800 H         1 <1>         0.1347
     34 H10         6.6575   -0.5694   -0.7770 H         1 <1>         0.1275
     35 H11         5.1710    6.4549   -7.2001 H         1 <1>         0.0585
     36 H12         6.8166    6.2243   -6.5596 H         1 <1>         0.0550
     37 H13         6.1474    5.0480   -7.6893 H         1 <1>         0.0548
     38 H14         6.5555    0.6873   -3.6270 H         1 <1>         0.0699
     39 H15         6.6667    2.3558   -3.0147 H         1 <1>         0.0641
     40 H16         7.6434    1.0884   -2.2752 H         1 <1>         0.0677
     41 H17         5.3387   -0.9489    1.9982 H         1 <1>         0.0821
     42 H18         3.9462   -1.8414    1.3382 H         1 <1>         0.0790
     43 H19         5.5596   -2.1423    0.6949 H         1 <1>         0.0800
@<TRIPOS>BOND
     1    1    2 ar
     2    1    3 ar
     3    2    8 ar
     4    3    9 ar
     5    4    6 ar
     6    4   12 ar
     7    5    7 ar
     8    5   12 ar
     9    6   13 ar
    10    7   13 ar
    11    8   15 ar
    12    9   15 ar
    13   10   14 ar
    14   10   17 ar
    15   11   14 ar
    16   11   16 1
    17   11   18 ar
    18   12   16 1
    19   13   19 1
    20   14   20 1
    21   15   24 1
    22   16   22 2
    23   17   21 1
    24   17   23 ar
    25   18   23 ar
    26   18   24 1
    27   22   24 1
    28    1   25 1
    29    2   26 1
    30    3   27 1
    31    4   28 1
    32    5   29 1
    33    6   30 1
    34    7   31 1
    35    8   32 1
    36    9   33 1
    37   10   34 1
    38   19   35 1
    39   19   36 1
    40   19   37 1
    41   20   38 1
    42   20   39 1
    43   20   40 1
    44   21   41 1
    45   21   42 1
    46   21   43 1
@<TRIPOS>Similarity
1.7707
@<TRIPOS>ShapeSim
0.8722
@<TRIPOS>PharmSim
0.8985
# END
# Name:		AG-205/14141010
# Created and modified by SHAFTS on Thu Dec 15 20:34:29 2011

# 

@<TRIPOS>MOLECULE
AG-205/14141010
   50    54     0
SMALL
USER_CHARGE


@<TRIPOS>ATOM
      1 C1          5.0937   -3.2988    2.9803 C.ar      1 <1>        -0.1021
      2 C2         -0.8479   -1.6746   -0.4542 C.ar      1 <1>        -0.1062
      3 C3          5.7579   -3.4058    1.7584 C.ar      1 <1>        -0.0979
      4 C4          4.2906   -2.1890    3.2427 C.ar      1 <1>        -0.0957
      5 C5         -0.8831   -0.8385   -1.5702 C.ar      1 <1>        -0.1039
      6 C6         -0.1920   -1.2623    0.7057 C.ar      1 <1>        -0.1040
      7 C7          5.6192   -2.4028    0.7990 C.ar      1 <1>        -0.0772
      8 C8          4.1518   -1.1860    2.2833 C.ar      1 <1>        -0.0729
      9 C9          4.0962    3.0526   -4.9025 C.ar      1 <1>        -0.0625
     10 C10         5.0087    4.6621   -3.3488 C.ar      1 <1>        -0.0637
     11 C11        -0.2623    0.4097   -1.5263 C.ar      1 <1>        -0.0962
     12 C12         0.4288   -0.0139    0.7497 C.ar      1 <1>        -0.0961
     13 C13         4.6373    3.7735   -5.9670 C.ar      1 <1>        -0.0632
     14 C14         5.5500    5.3829   -4.4133 C.ar      1 <1>        -0.0654
     15 C15         5.7120    0.0084   -0.8195 C.ar      1 <1>        -0.0110
     16 C16         4.3334    1.7084   -1.7703 C.ar      1 <1>         0.0477
     17 C17         4.8161   -1.2929    1.0615 C.ar      1 <1>        -0.0260
     18 C18         4.2819    3.4970   -3.5934 C.ar      1 <1>        -0.0209
     19 C19         0.3937    0.8221   -0.3664 C.ar      1 <1>        -0.0741
     20 C20         5.5506    1.0161   -1.7704 C.ar      1 <1>         0.0685
     21 C21         5.3643    4.9385   -5.7224 C.ar      1 <1>        -0.0117
     22 C22         4.6723   -0.2535    0.0665 C.ar      1 <1>         0.0103
     23 C23         3.7230    2.7523   -2.4936 C.2       1 <1>         0.0460
     24 C24         3.3802    1.3461   -0.8311 C.ar      1 <1>         0.0583
     25 C25         1.0638    2.1686   -0.3184 C.3       1 <1>         0.0436
     26 C26         6.6639    1.3007   -2.7237 C.3       1 <1>         0.3660
     27 N1          3.4790    0.3873    0.1062 N.ar      1 <1>        -0.3312
     28 N2          2.4906    3.0334   -2.0574 N.2       1 <1>        -0.2843
     29 N3          2.3101    2.1632   -1.0474 N.pl3     1 <1>        -0.2685
     30 F1          7.7566    0.5027   -2.5409 F         1 <1>        -0.1815
     31 F2          6.3158    1.1353   -4.0334 F         1 <1>        -0.1774
     32 F3          7.1235    2.5814   -2.6245 F         1 <1>        -0.1766
     33 Cl1         6.0314    5.8292   -7.0352 Cl        1 <1>        -0.1391
     34 H1          5.2006   -4.0806    3.7264 H         1 <1>         0.1226
     35 H2         -1.3325   -2.6459   -0.4881 H         1 <1>         0.1182
     36 H3          6.3819   -4.2707    1.5533 H         1 <1>         0.1215
     37 H4          3.7719   -2.1056    4.1933 H         1 <1>         0.1199
     38 H5         -1.3947   -1.1590   -2.4731 H         1 <1>         0.1163
     39 H6         -0.1654   -1.9124    1.5751 H         1 <1>         0.1159
     40 H7          6.1433   -2.5009   -0.1488 H         1 <1>         0.1306
     41 H8          3.5219   -0.3270    2.5018 H         1 <1>         0.1393
     42 H9          3.5323    2.1462   -5.1107 H         1 <1>         0.1428
     43 H10         5.1620    5.0215   -2.3339 H         1 <1>         0.1498
     44 H11        -0.2947    1.0545   -2.4008 H         1 <1>         0.1233
     45 H12         0.9376    0.2989    1.6577 H         1 <1>         0.1240
     46 H13         4.4848    3.4154   -6.9819 H         1 <1>         0.1374
     47 H14         6.1130    6.2896   -4.2076 H         1 <1>         0.1373
     48 H15         6.6379   -0.5595   -0.7768 H         1 <1>         0.1562
     49 H16         0.4199    2.9470   -0.7456 H         1 <1>         0.1575
     50 H17         1.2727    2.4706    0.7152 H         1 <1>         0.1569
@<TRIPOS>BOND
     1    1    3 ar
     2    1    4 ar
     3    2    5 ar
     4    2    6 ar
     5    3    7 ar
     6    4    8 ar
     7    5   11 ar
     8    6   12 ar
     9    7   17 ar
    10    8   17 ar
    11    9   13 ar
    12    9   18 ar
    13   10   14 ar
    14   10   18 ar
    15   11   19 ar
    16   12   19 ar
    17   13   21 ar
    18   14   21 ar
    19   15   20 ar
    20   15   22 ar
    21   16   20 ar
    22   16   23 1
    23   16   24 ar
    24   17   22 1
    25   18   23 1
    26   19   25 1
    27   20   26 1
    28   21   33 1
    29   22   27 ar
    30   23   28 2
    31   24   27 ar
    32   24   29 1
    33   25   29 1
    34   26   30 1
    35   26   31 1
    36   26   32 1
    37   28   29 1
    38    1   34 1
    39    2   35 1
    40    3   36 1
    41    4   37 1
    42    5   38 1
    43    6   39 1
    44    7   40 1
    45    8   41 1
    46    9   42 1
    47   10   43 1
    48   11   44 1
    49   12   45 1
    50   13   46 1
    51   14   47 1
    52   15   48 1
    53   25   49 1
    54   25   50 1
@<TRIPOS>Similarity
1.7462
@<TRIPOS>ShapeSim
0.8751
@<TRIPOS>PharmSim
0.8711
# END
# Name:		AS-980/15246972
# Created and modified by SHAFTS on Thu Dec 15 20:34:29 2011

# 

@<TRIPOS>MOLECULE
AS-980/15246972
   40    43     0
SMALL
USER_CHARGE


@<TRIPOS>ATOM
      1 C1          5.3223    4.9334   -5.7085 C.ar      1 <1>        -0.1026
      2 C2         -1.2647    2.0979    1.1471 C.ar      1 <1>        -0.1012
      3 C3          4.5987    3.7657   -5.9500 C.ar      1 <1>        -0.0975
      4 C4          5.5166    5.3757   -4.3999 C.ar      1 <1>        -0.0965
      5 C5         -0.5310    0.9217    0.9929 C.ar      1 <1>        -0.0923
      6 C6         -0.8047    3.2864    0.5800 C.ar      1 <1>        -0.0911
      7 C7          4.0691    3.0402   -4.8827 C.ar      1 <1>        -0.0750
      8 C8          4.9870    4.6502   -3.3328 C.ar      1 <1>        -0.0739
      9 C9          0.6627    0.9340    0.2714 C.ar      1 <1>        -0.0531
     10 C10         0.3891    3.2986   -0.1414 C.ar      1 <1>        -0.0516
     11 C11         5.7296   -0.0058   -0.8187 C.ar      1 <1>        -0.0579
     12 C12         4.3364    1.6903   -1.7551 C.ar      1 <1>         0.0231
     13 C13         4.2632    3.4824   -3.5741 C.ar      1 <1>        -0.0265
     14 C14         5.5568    1.0037   -1.7657 C.ar      1 <1>        -0.0798
     15 C15         1.1228    2.1224   -0.2957 C.ar      1 <1>         0.0022
     16 C16         3.7160    2.7333   -2.4713 C.2       1 <1>         0.0402
     17 C17         4.6974   -0.2748    0.0740 C.ar      1 <1>        -0.0415
     18 C18         3.3916    1.3211   -0.8103 C.ar      1 <1>         0.0521
     19 C19         6.6626    1.2958   -2.7255 C.3       1 <1>        -0.0261
     20 C20         4.8972   -1.3603    1.0831 C.3       1 <1>         0.0007
     21 N1          2.4855    3.0075   -2.0258 N.2       1 <1>        -0.2832
     22 N2          3.5014    0.3603    0.1237 N.ar      1 <1>        -0.3615
     23 N3          2.3162    2.1337   -1.0169 N.pl3     1 <1>        -0.2499
     24 H1          5.7357    5.4978   -6.5393 H         1 <1>         0.1215
     25 H2         -2.1951    2.0886    1.7072 H         1 <1>         0.1197
     26 H3          4.4484    3.4205   -6.9686 H         1 <1>         0.1212
     27 H4          6.0812    6.2842   -4.2122 H         1 <1>         0.1211
     28 H5         -0.8897   -0.0040    1.4332 H         1 <1>         0.1262
     29 H6         -1.3773    4.2017    0.6994 H         1 <1>         0.1275
     30 H7          3.5072    2.1318   -5.0872 H         1 <1>         0.1315
     31 H8          5.1473    5.0083   -2.3184 H         1 <1>         0.1311
     32 H9          1.2245    0.0100    0.1579 H         1 <1>         0.1346
     33 H10         0.7358    4.2317   -0.5789 H         1 <1>         0.1373
     34 H11         6.6564   -0.5713   -0.7789 H         1 <1>         0.1278
     35 H12         6.5532    0.6848   -3.6291 H         1 <1>         0.0704
     36 H13         6.6657    2.3534   -3.0172 H         1 <1>         0.0644
     37 H14         7.6422    1.0856   -2.2781 H         1 <1>         0.0677
     38 H15         5.3393   -0.9495    1.9972 H         1 <1>         0.0819
     39 H16         3.9459   -1.8415    1.3383 H         1 <1>         0.0799
     40 H17         5.5587   -2.1433    0.6940 H         1 <1>         0.0790
@<TRIPOS>BOND
     1    1    3 ar
     2    1    4 ar
     3    2    5 ar
     4    2    6 ar
     5    3    7 ar
     6    4    8 ar
     7    5    9 ar
     8    6   10 ar
     9    7   13 ar
    10    8   13 ar
    11    9   15 ar
    12   10   15 ar
    13   11   14 ar
    14   11   17 ar
    15   12   14 ar
    16   12   16 1
    17   12   18 ar
    18   13   16 1
    19   14   19 1
    20   15   23 1
    21   16   21 2
    22   17   20 1
    23   17   22 ar
    24   18   22 ar
    25   18   23 1
    26   21   23 1
    27    1   24 1
    28    2   25 1
    29    3   26 1
    30    4   27 1
    31    5   28 1
    32    6   29 1
    33    7   30 1
    34    8   31 1
    35    9   32 1
    36   10   33 1
    37   11   34 1
    38   19   35 1
    39   19   36 1
    40   19   37 1
    41   20   38 1
    42   20   39 1
    43   20   40 1
@<TRIPOS>Similarity
1.7113
@<TRIPOS>ShapeSim
0.8453
@<TRIPOS>PharmSim
0.8661
# END
# Name:		AH-487/40652383
# Created and modified by SHAFTS on Thu Dec 15 20:34:29 2011

# 

@<TRIPOS>MOLECULE
AH-487/40652383
   40    43     0
SMALL
USER_CHARGE


@<TRIPOS>ATOM
      1 C1         -1.2660    2.0960    1.1449 C.ar      1 <1>        -0.0991
      2 C2         -0.5335    0.9193    0.9888 C.ar      1 <1>        -0.0903
      3 C3         -0.8048    3.2849    0.5797 C.ar      1 <1>        -0.0896
      4 C4          4.5968    3.7660   -5.9497 C.ar      1 <1>        -0.0839
      5 C5          4.0679    3.0407   -4.8821 C.ar      1 <1>        -0.0654
      6 C6          0.6603    0.9316    0.2675 C.ar      1 <1>        -0.0521
      7 C7          0.3890    3.2971   -0.1416 C.ar      1 <1>        -0.0513
      8 C8          5.3217    4.9332   -5.7088 C.ar      1 <1>        -0.0761
      9 C9          4.9885    4.6499   -3.3327 C.ar      1 <1>        -0.0497
     10 C10         5.7263   -0.0114   -0.8236 C.ar      1 <1>        -0.0239
     11 C11         4.3349    1.6876   -1.7575 C.ar      1 <1>         0.0501
     12 C12         4.2636    3.4827   -3.5737 C.ar      1 <1>        -0.0154
     13 C13         5.5547    0.9998   -1.7691 C.ar      1 <1>         0.0665
     14 C14         1.1216    2.1205   -0.2977 C.ar      1 <1>         0.0043
     15 C15         5.5176    5.3751   -4.4004 C.ar      1 <1>        -0.0300
     16 C16         3.7156    2.7323   -2.4721 C.2       1 <1>         0.0511
     17 C17         4.6938   -0.2808    0.0685 C.ar      1 <1>        -0.0246
     18 C18         3.3897    1.3178   -0.8134 C.ar      1 <1>         0.0657
     19 C19         4.8924   -1.3681    1.0758 C.3       1 <1>         0.0068
     20 C20         6.6608    1.2924   -2.7283 C.3       1 <1>         0.3660
     21 N1          2.4853    3.0070   -2.0262 N.2       1 <1>        -0.2721
     22 N2          3.4984    0.3554    0.1191 N.ar      1 <1>        -0.3437
     23 N3          2.3151    2.1318   -1.0188 N.pl3     1 <1>        -0.2421
     24 F1          7.7576    0.4977   -2.5557 F         1 <1>        -0.1806
     25 F2          6.3049    1.1310   -4.0364 F         1 <1>        -0.1776
     26 F3          7.1164    2.5743   -2.6266 F         1 <1>        -0.1766
     27 Br1         6.5007    6.9560   -4.0740 Br        1 <1>        -0.1067
     28 H1         -2.1965    2.0867    1.7049 H         1 <1>         0.1225
     29 H2         -0.8931   -0.0067    1.4277 H         1 <1>         0.1284
     30 H3         -1.3765    4.2006    0.7005 H         1 <1>         0.1293
     31 H4          4.4449    3.4214   -6.9684 H         1 <1>         0.1343
     32 H5          3.5047    2.1330   -5.0861 H         1 <1>         0.1489
     33 H6          1.2212    0.0072    0.1526 H         1 <1>         0.1369
     34 H7          0.7367    4.2306   -0.5775 H         1 <1>         0.1383
     35 H8          5.7272    5.4867   -6.5519 H         1 <1>         0.1411
     36 H9          5.1413    4.9937   -2.3116 H         1 <1>         0.1490
     37 H10         6.6526   -0.5779   -0.7847 H         1 <1>         0.1550
     38 H11         5.3349   -0.9593    1.9907 H         1 <1>         0.0875
     39 H12         3.9406   -1.8488    1.3302 H         1 <1>         0.0849
     40 H13         5.5532   -2.1512    0.6856 H         1 <1>         0.0844
@<TRIPOS>BOND
     1    1    2 ar
     2    1    3 ar
     3    2    6 ar
     4    3    7 ar
     5    4    5 ar
     6    4    8 ar
     7    5   12 ar
     8    6   14 ar
     9    7   14 ar
    10    8   15 ar
    11    9   12 ar
    12    9   15 ar
    13   10   13 ar
    14   10   17 ar
    15   11   13 ar
    16   11   16 1
    17   11   18 ar
    18   12   16 1
    19   13   20 1
    20   14   23 1
    21   15   27 1
    22   16   21 2
    23   17   19 1
    24   17   22 ar
    25   18   22 ar
    26   18   23 1
    27   20   24 1
    28   20   25 1
    29   20   26 1
    30   21   23 1
    31    1   28 1
    32    2   29 1
    33    3   30 1
    34    4   31 1
    35    5   32 1
    36    6   33 1
    37    7   34 1
    38    8   35 1
    39    9   36 1
    40   10   37 1
    41   19   38 1
    42   19   39 1
    43   19   40 1
@<TRIPOS>Similarity
1.7040
@<TRIPOS>ShapeSim
0.8623
@<TRIPOS>PharmSim
0.8417
# END
# Name:		AK-249/12180005
# Created and modified by SHAFTS on Thu Dec 15 20:34:29 2011

# 

@<TRIPOS>MOLECULE
AK-249/12180005
   58    63     0
SMALL
USER_CHARGE


@<TRIPOS>ATOM
      1 C1          5.1796    5.0160   -5.7197 C.ar      1 <1>        -0.1024
      2 C2         -1.2640    2.0566    1.1717 C.ar      1 <1>        -0.1002
      3 C3          5.8484    5.0277   -4.4958 C.ar      1 <1>        -0.0951
      4 C4          4.0189    4.2577   -5.8730 C.ar      1 <1>        -0.0992
      5 C5         -0.8479    0.9223    0.4747 C.ar      1 <1>        -0.0903
      6 C6         -0.4907    3.2171    1.1406 C.ar      1 <1>        -0.0913
      7 C7          5.3565    4.2811   -3.4251 C.ar      1 <1>        -0.0727
      8 C8          3.5270    3.5111   -4.8024 C.ar      1 <1>        -0.0772
      9 C9          4.9963   -2.6287    0.7114 C.ar      1 <1>        -0.0577
     10 C10         4.6774   -0.9640    2.4331 C.ar      1 <1>        -0.0630
     11 C11         0.3417    0.9484   -0.2532 C.ar      1 <1>        -0.0511
     12 C12         0.6989    3.2432    0.4127 C.ar      1 <1>        -0.0522
     13 C13         5.0867   -3.6209    1.6876 C.ar      1 <1>        -0.0700
     14 C14         4.7677   -1.9563    3.4093 C.ar      1 <1>        -0.0740
     15 C15         6.5818    1.3228   -2.7008 C.ar      1 <1>        -0.0311
     16 C16         6.9576   -0.7111   -0.8091 C.ar      1 <1>        -0.0312
     17 C17         5.5605    1.0188   -1.7800 C.ar      1 <1>        -0.0423
     18 C18         5.7441   -0.0050   -0.8244 C.ar      1 <1>        -0.0110
     19 C19         4.3250    1.7081   -1.7651 C.ar      1 <1>         0.0314
     20 C20         4.1958    3.5228   -3.5784 C.ar      1 <1>        -0.0273
     21 C21         4.7918   -1.3002    1.0842 C.ar      1 <1>        -0.0095
     22 C22         1.1152    2.1088   -0.2842 C.ar      1 <1>         0.0044
     23 C23         7.7790    0.6085   -2.6674 C.ar      1 <1>         0.0479
     24 C24         7.9661   -0.4038   -1.7259 C.ar      1 <1>         0.0462
     25 C25         4.9723   -3.2848    3.0365 C.ar      1 <1>        -0.0368
     26 C26         4.6978   -0.2677    0.0683 C.ar      1 <1>         0.0252
     27 C27         3.6874    2.7510   -2.4722 C.2       1 <1>         0.0419
     28 C28         3.3874    1.3293   -0.8164 C.ar      1 <1>         0.0603
     29 C29         8.4932    1.9565   -4.4919 C.3       1 <1>         0.0297
     30 C30         9.2033   -2.2858   -2.4898 C.3       1 <1>         0.0267
     31 N1          3.5017    0.3682    0.1153 N.ar      1 <1>        -0.3312
     32 N2          2.4581    3.0131   -2.0177 N.2       1 <1>        -0.2821
     33 N3          2.3040    2.1341   -1.0122 N.pl3     1 <1>        -0.2477
     34 O1          8.7618    0.9091   -3.5622 O.3       1 <1>        -0.3989
     35 O2          9.1341   -1.1060   -1.6920 O.3       1 <1>        -0.4048
     36 Br1         5.0935   -4.6288    4.3596 Br        1 <1>        -0.1059
     37 H1          5.5619    5.5980   -6.5532 H         1 <1>         0.1227
     38 H2         -2.1910    2.0375    1.7371 H         1 <1>         0.1210
     39 H3          6.7515    5.6190   -4.3758 H         1 <1>         0.1232
     40 H4          3.4977    4.2498   -6.8258 H         1 <1>         0.1210
     41 H5         -1.4505    0.0191    0.4978 H         1 <1>         0.1280
     42 H6         -0.8162    4.1004    1.6824 H         1 <1>         0.1270
     43 H7          5.8893    4.3005   -2.4771 H         1 <1>         0.1326
     44 H8          2.6209    2.9252   -4.9381 H         1 <1>         0.1285
     45 H9          5.0877   -2.9064   -0.3360 H         1 <1>         0.1460
     46 H10         4.5168    0.0669    2.7396 H         1 <1>         0.1401
     47 H11         0.6542    0.0576   -0.7926 H         1 <1>         0.1378
     48 H12         1.2917    4.1545    0.3963 H         1 <1>         0.1360
     49 H13         5.2456   -4.6515    1.3803 H         1 <1>         0.1400
     50 H14         4.6764   -1.6776    4.4558 H         1 <1>         0.1393
     51 H15         6.4627    2.1052   -3.4434 H         1 <1>         0.1423
     52 H16         7.1399   -1.5072   -0.0906 H         1 <1>         0.1441
     53 H17         9.3572    2.0939   -5.1467 H         1 <1>         0.1257
     54 H18         8.2831    2.8816   -3.9492 H         1 <1>         0.0912
     55 H19         7.6229    1.6835   -5.0932 H         1 <1>         0.0914
     56 H20        10.1859   -2.7491   -2.3719 H         1 <1>         0.0895
     57 H21         9.0335   -2.0282   -3.5382 H         1 <1>         0.0901
     58 H22         8.4314   -2.9845   -2.1586 H         1 <1>         0.1247
@<TRIPOS>BOND
     1    1    3 ar
     2    1    4 ar
     3    2    5 ar
     4    2    6 ar
     5    3    7 ar
     6    4    8 ar
     7    5   11 ar
     8    6   12 ar
     9    7   20 ar
    10    8   20 ar
    11    9   13 ar
    12    9   21 ar
    13   10   14 ar
    14   10   21 ar
    15   11   22 ar
    16   12   22 ar
    17   13   25 ar
    18   14   25 ar
    19   15   17 ar
    20   15   23 ar
    21   16   18 ar
    22   16   24 ar
    23   17   18 ar
    24   17   19 ar
    25   18   26 ar
    26   19   27 1
    27   19   28 ar
    28   20   27 1
    29   21   26 1
    30   22   33 1
    31   23   24 ar
    32   23   34 1
    33   24   35 1
    34   25   36 1
    35   26   31 ar
    36   27   32 2
    37   28   31 ar
    38   28   33 1
    39   29   34 1
    40   30   35 1
    41   32   33 1
    42    1   37 1
    43    2   38 1
    44    3   39 1
    45    4   40 1
    46    5   41 1
    47    6   42 1
    48    7   43 1
    49    8   44 1
    50    9   45 1
    51   10   46 1
    52   11   47 1
    53   12   48 1
    54   13   49 1
    55   14   50 1
    56   15   51 1
    57   16   52 1
    58   29   53 1
    59   29   54 1
    60   29   55 1
    61   30   56 1
    62   30   57 1
    63   30   58 1
@<TRIPOS>Similarity
1.6431
@<TRIPOS>ShapeSim
0.8627
@<TRIPOS>PharmSim
0.7804
# END
# Name:		AK-249/12180004
# Created and modified by SHAFTS on Thu Dec 15 20:34:29 2011

# 

@<TRIPOS>MOLECULE
AK-249/12180004
   62    67     0
SMALL
USER_CHARGE


@<TRIPOS>ATOM
      1 C1          5.2053    5.0113   -5.7277 C.ar      1 <1>        -0.1026
      2 C2         -1.2638    2.0838    1.1535 C.ar      1 <1>        -0.1004
      3 C3          4.4956    3.8345   -5.9664 C.ar      1 <1>        -0.0954
      4 C4          5.4181    5.4443   -4.4189 C.ar      1 <1>        -0.0993
      5 C5         -0.5252    0.9118    0.9917 C.ar      1 <1>        -0.0902
      6 C6         -0.8116    3.2767    0.5895 C.ar      1 <1>        -0.0916
      7 C7          5.0638   -3.6158    1.6919 C.ar      1 <1>        -0.0970
      8 C8          3.9986    3.0906   -4.8962 C.ar      1 <1>        -0.0727
      9 C9          4.9210    4.7005   -3.3488 C.ar      1 <1>        -0.0771
     10 C10         4.9797   -2.6252    0.7136 C.ar      1 <1>        -0.0740
     11 C11         0.6658    0.9325    0.2659 C.ar      1 <1>        -0.0507
     12 C12         0.3795    3.2975   -0.1362 C.ar      1 <1>        -0.0523
     13 C13         4.9471   -3.2763    3.0399 C.ar      1 <1>        -0.0684
     14 C14         6.5872    1.3160   -2.7016 C.ar      1 <1>        -0.0315
     15 C15         6.9514   -0.7166   -0.8064 C.ar      1 <1>        -0.0303
     16 C16         4.6626   -0.9557    2.4310 C.ar      1 <1>        -0.0249
     17 C17         5.5628    1.0171   -1.7826 C.ar      1 <1>        -0.0423
     18 C18         5.7405   -0.0061   -0.8253 C.ar      1 <1>        -0.0091
     19 C19         4.3298    1.7109   -1.7714 C.ar      1 <1>         0.0310
     20 C20         4.2112    3.5236   -3.5874 C.ar      1 <1>        -0.0273
     21 C21         4.7793   -1.2951    1.0831 C.ar      1 <1>        -0.0077
     22 C22         1.1182    2.1255   -0.2980 C.ar      1 <1>         0.0044
     23 C23         4.7466   -1.9463    3.4094 C.ar      1 <1>        -0.0048
     24 C24         7.7817    0.5974   -2.6646 C.ar      1 <1>         0.0472
     25 C25         7.9630   -0.4143   -1.7213 C.ar      1 <1>         0.0459
     26 C26         4.6913   -0.2637    0.0655 C.ar      1 <1>         0.0278
     27 C27         3.6976    2.7552   -2.4813 C.2       1 <1>         0.0415
     28 C28         3.3888    1.3369   -0.8242 C.ar      1 <1>         0.0602
     29 C29         4.4289   -0.2372    5.0323 C.3       1 <1>         0.0238
     30 C30         8.5049    1.9403   -4.4893 C.3       1 <1>         0.0294
     31 C31         9.1949   -2.3018   -2.4800 C.3       1 <1>         0.0263
     32 N1          3.4975    0.3766    0.1090 N.ar      1 <1>        -0.3298
     33 N2          2.4683    3.0225   -2.0298 N.2       1 <1>        -0.2826
     34 N3          2.3088    2.1454   -1.0235 N.pl3     1 <1>        -0.2478
     35 O1          4.6327   -1.6155    4.7247 O.3       1 <1>        -0.4169
     36 O2          8.7675    0.8932   -3.5577 O.3       1 <1>        -0.3992
     37 O3          9.1283   -1.1208   -1.6840 O.3       1 <1>        -0.4053
     38 H1          5.5933    5.5901   -6.5609 H         1 <1>         0.1223
     39 H2         -2.1920    2.0678    1.7170 H         1 <1>         0.1206
     40 H3          4.3309    3.4965   -6.9853 H         1 <1>         0.1229
     41 H4          5.9717    6.3600   -4.2334 H         1 <1>         0.1208
     42 H5         -0.8778   -0.0174    1.4296 H         1 <1>         0.1281
     43 H6         -1.3880    4.1887    0.7147 H         1 <1>         0.1265
     44 H7          5.2202   -4.6512    1.4042 H         1 <1>         0.1300
     45 H8          3.4473    2.1753   -5.0985 H         1 <1>         0.1324
     46 H9          5.0954    5.0515   -2.3343 H         1 <1>         0.1286
     47 H10         5.0726   -2.9056   -0.3330 H         1 <1>         0.1243
     48 H11         1.2315    0.0117    0.1467 H         1 <1>         0.1385
     49 H12         0.7201    4.2340   -0.5712 H         1 <1>         0.1358
     50 H13         5.0133   -4.0521    3.7979 H         1 <1>         0.1168
     51 H14         6.4725    2.0979   -3.4455 H         1 <1>         0.1417
     52 H15         7.1292   -1.5124   -0.0863 H         1 <1>         0.1462
     53 H16         4.5070    0.0793    2.7286 H         1 <1>         0.1458
     54 H17         4.3552   -0.1119    6.1153 H         1 <1>         0.0896
     55 H18         3.5122    0.1127    4.5510 H         1 <1>         0.1222
     56 H19         5.2778    0.3398    4.6579 H         1 <1>         0.0895
     57 H20         9.3707    2.0736   -5.1424 H         1 <1>         0.0912
     58 H21         8.2970    2.8668   -3.9484 H         1 <1>         0.1253
     59 H22         7.6348    1.6697   -5.0922 H         1 <1>         0.0911
     60 H23        10.1755   -2.7686   -2.3594 H         1 <1>         0.1239
     61 H24         9.0283   -2.0450   -3.5291 H         1 <1>         0.0896
     62 H25         8.4197   -2.9973   -2.1495 H         1 <1>         0.0900
@<TRIPOS>BOND
     1    1    3 ar
     2    1    4 ar
     3    2    5 ar
     4    2    6 ar
     5    3    8 ar
     6    4    9 ar
     7    5   11 ar
     8    6   12 ar
     9    7   10 ar
    10    7   13 ar
    11    8   20 ar
    12    9   20 ar
    13   10   21 ar
    14   11   22 ar
    15   12   22 ar
    16   13   23 ar
    17   14   17 ar
    18   14   24 ar
    19   15   18 ar
    20   15   25 ar
    21   16   21 ar
    22   16   23 ar
    23   17   18 ar
    24   17   19 ar
    25   18   26 ar
    26   19   27 1
    27   19   28 ar
    28   20   27 1
    29   21   26 1
    30   22   34 1
    31   23   35 1
    32   24   25 ar
    33   24   36 1
    34   25   37 1
    35   26   32 ar
    36   27   33 2
    37   28   32 ar
    38   28   34 1
    39   29   35 1
    40   30   36 1
    41   31   37 1
    42   33   34 1
    43    1   38 1
    44    2   39 1
    45    3   40 1
    46    4   41 1
    47    5   42 1
    48    6   43 1
    49    7   44 1
    50    8   45 1
    51    9   46 1
    52   10   47 1
    53   11   48 1
    54   12   49 1
    55   13   50 1
    56   14   51 1
    57   15   52 1
    58   16   53 1
    59   29   54 1
    60   29   55 1
    61   29   56 1
    62   30   57 1
    63   30   58 1
    64   30   59 1
    65   31   60 1
    66   31   61 1
    67   31   62 1
@<TRIPOS>Similarity
1.6342
@<TRIPOS>ShapeSim
0.8544
@<TRIPOS>PharmSim
0.7798
# END
# Name:		AG-690/12893094
# Created and modified by SHAFTS on Thu Dec 15 20:34:29 2011

# 

@<TRIPOS>MOLECULE
AG-690/12893094
   61    66     0
SMALL
USER_CHARGE


@<TRIPOS>ATOM
      1 C1          5.1796    5.0160   -5.7197 C.ar      1 <1>        -0.1026
      2 C2         -1.2635    2.0564    1.1724 C.ar      1 <1>        -0.1006
      3 C3          5.8484    5.0277   -4.4958 C.ar      1 <1>        -0.0954
      4 C4          4.0189    4.2577   -5.8730 C.ar      1 <1>        -0.0993
      5 C5          5.0900   -3.6314    1.6440 C.ar      1 <1>        -0.0990
      6 C6          4.9786   -3.3203    2.9991 C.ar      1 <1>        -0.1016
      7 C7         -0.5210    0.8873    1.0074 C.ar      1 <1>        -0.0905
      8 C8         -0.8169    3.2518    0.6090 C.ar      1 <1>        -0.0916
      9 C9          5.3565    4.2811   -3.4251 C.ar      1 <1>        -0.0727
     10 C10         3.5270    3.5111   -4.8024 C.ar      1 <1>        -0.0771
     11 C11         4.9966   -2.6213    0.6865 C.ar      1 <1>        -0.0751
     12 C12         4.7737   -1.9992    3.3969 C.ar      1 <1>        -0.0941
     13 C13         0.6684    0.9134    0.2791 C.ar      1 <1>        -0.0508
     14 C14         0.3725    3.2779   -0.1192 C.ar      1 <1>        -0.0522
     15 C15         6.5818    1.3228   -2.7008 C.ar      1 <1>        -0.0321
     16 C16         6.9576   -0.7111   -0.8091 C.ar      1 <1>        -0.0303
     17 C17         5.5605    1.0188   -1.7800 C.ar      1 <1>        -0.0431
     18 C18         5.7441   -0.0050   -0.8244 C.ar      1 <1>        -0.0098
     19 C19         4.3250    1.7081   -1.7651 C.ar      1 <1>         0.0302
     20 C20         4.1958    3.5228   -3.5784 C.ar      1 <1>        -0.0275
     21 C21         4.7918   -1.3002    1.0842 C.ar      1 <1>        -0.0161
     22 C22         4.6804   -0.9891    2.4394 C.ar      1 <1>        -0.0827
     23 C23         1.1152    2.1088   -0.2842 C.ar      1 <1>         0.0044
     24 C24         7.7790    0.6085   -2.6674 C.ar      1 <1>         0.0470
     25 C25         7.9661   -0.4038   -1.7259 C.ar      1 <1>         0.0462
     26 C26         4.6978   -0.2677    0.0683 C.ar      1 <1>         0.0243
     27 C27         3.6874    2.7510   -2.4722 C.2       1 <1>         0.0408
     28 C28         3.3874    1.3293   -0.8164 C.ar      1 <1>         0.0598
     29 C29         4.4605    0.4151    2.9035 C.3       1 <1>        -0.0344
     30 C30         8.4932    1.9565   -4.4919 C.3       1 <1>         0.0294
     31 C31        10.1739   -0.5928   -0.8624 C.3       1 <1>         0.0262
     32 N1          3.5017    0.3682    0.1153 N.ar      1 <1>        -0.3304
     33 N2          2.4581    3.0131   -2.0177 N.2       1 <1>        -0.2833
     34 N3          2.3040    2.1341   -1.0122 N.pl3     1 <1>        -0.2481
     35 O1          8.7618    0.9091   -3.5622 O.3       1 <1>        -0.3993
     36 O2          9.1341   -1.1060   -1.6920 O.3       1 <1>        -0.4053
     37 H1          5.5619    5.5980   -6.5532 H         1 <1>         0.1223
     38 H2         -2.1905    2.0363    1.7379 H         1 <1>         0.1204
     39 H3          6.7515    5.6190   -4.3758 H         1 <1>         0.1229
     40 H4          3.4977    4.2498   -6.8258 H         1 <1>         0.1208
     41 H5          5.2498   -4.6602    1.3344 H         1 <1>         0.1190
     42 H6          5.0516   -4.1071    3.7443 H         1 <1>         0.1225
     43 H7         -0.8692   -0.0437    1.4449 H         1 <1>         0.1274
     44 H8         -1.3965    4.1614    0.7368 H         1 <1>         0.1264
     45 H9          5.8893    4.3005   -2.4771 H         1 <1>         0.1323
     46 H10         2.6209    2.9252   -4.9381 H         1 <1>         0.1285
     47 H11         5.0858   -2.8813   -0.3658 H         1 <1>         0.1286
     48 H12         4.6885   -1.7678    4.4553 H         1 <1>         0.1217
     49 H13         1.2372   -0.0051    0.1574 H         1 <1>         0.1385
     50 H14         0.7087    4.2163   -0.5537 H         1 <1>         0.1357
     51 H15         6.4627    2.1052   -3.4434 H         1 <1>         0.1413
     52 H16         7.1399   -1.5072   -0.0906 H         1 <1>         0.1442
     53 H17         5.4220    0.9126    3.0719 H         1 <1>         0.0648
     54 H18         3.8922    0.9910    2.1636 H         1 <1>         0.0559
     55 H19         3.8858    0.4368    3.8370 H         1 <1>         0.0521
     56 H20         9.3572    2.0939   -5.1467 H         1 <1>         0.0910
     57 H21         8.2831    2.8816   -3.9492 H         1 <1>         0.1253
     58 H22         7.6229    1.6835   -5.0932 H         1 <1>         0.0910
     59 H23        11.0479   -1.2456   -0.9266 H         1 <1>         0.0897
     60 H24         9.8226   -0.5372    0.1711 H         1 <1>         0.0897
     61 H25        10.4433    0.4079   -1.2081 H         1 <1>         0.1240
@<TRIPOS>BOND
     1    1    3 ar
     2    1    4 ar
     3    2    7 ar
     4    2    8 ar
     5    3    9 ar
     6    4   10 ar
     7    5    6 ar
     8    5   11 ar
     9    6   12 ar
    10    7   13 ar
    11    8   14 ar
    12    9   20 ar
    13   10   20 ar
    14   11   21 ar
    15   12   22 ar
    16   13   23 ar
    17   14   23 ar
    18   15   17 ar
    19   15   24 ar
    20   16   18 ar
    21   16   25 ar
    22   17   18 ar
    23   17   19 ar
    24   18   26 ar
    25   19   27 1
    26   19   28 ar
    27   20   27 1
    28   21   22 ar
    29   21   26 1
    30   22   29 1
    31   23   34 1
    32   24   25 ar
    33   24   35 1
    34   25   36 1
    35   26   32 ar
    36   27   33 2
    37   28   32 ar
    38   28   34 1
    39   30   35 1
    40   31   36 1
    41   33   34 1
    42    1   37 1
    43    2   38 1
    44    3   39 1
    45    4   40 1
    46    5   41 1
    47    6   42 1
    48    7   43 1
    49    8   44 1
    50    9   45 1
    51   10   46 1
    52   11   47 1
    53   12   48 1
    54   13   49 1
    55   14   50 1
    56   15   51 1
    57   16   52 1
    58   29   53 1
    59   29   54 1
    60   29   55 1
    61   30   56 1
    62   30   57 1
    63   30   58 1
    64   31   59 1
    65   31   60 1
    66   31   61 1
@<TRIPOS>Similarity
1.6290
@<TRIPOS>ShapeSim
0.8530
@<TRIPOS>PharmSim
0.7761
# END
# Name:		AG-205/33680034
# Created and modified by SHAFTS on Thu Dec 15 20:34:29 2011

# 

@<TRIPOS>MOLECULE
AG-205/33680034
   44    47     0
SMALL
USER_CHARGE


@<TRIPOS>ATOM
      1 C1         -1.1957    1.9826    1.1566 C.ar      1 <1>        -0.1042
      2 C2         -0.3436    0.8815    1.0731 C.ar      1 <1>        -0.0981
      3 C3         -0.8596    3.1747    0.5150 C.ar      1 <1>        -0.0861
      4 C4          5.2682    4.4918   -3.5259 C.ar      1 <1>        -0.0626
      5 C5          3.5501    3.4799   -4.8901 C.ar      1 <1>        -0.0626
      6 C6          0.8448    0.9725    0.3483 C.ar      1 <1>        -0.0559
      7 C7          0.3286    3.2658   -0.2098 C.ar      1 <1>        -0.0404
      8 C8          5.2498   -3.3526    2.9931 C.ar      1 <1>        -0.0654
      9 C9          4.3376   -2.3431    3.3003 C.ar      1 <1>        -0.0504
     10 C10         5.7365    5.1939   -4.6363 C.ar      1 <1>        -0.0756
     11 C11         4.0184    4.1821   -6.0006 C.ar      1 <1>        -0.0761
     12 C12         5.6275   -2.3520    0.8266 C.ar      1 <1>        -0.0399
     13 C13         4.4158    1.9850   -1.7343 C.2       1 <1>        -0.0211
     14 C14         4.1750    3.6347   -3.6527 C.ar      1 <1>        -0.0282
     15 C15         4.7153   -1.3426    1.1338 C.ar      1 <1>         0.0161
     16 C16         1.1809    2.1648   -0.2931 C.ar      1 <1>         0.0080
     17 C17         5.8948   -3.3571    1.7562 C.ar      1 <1>         0.0460
     18 C18         4.0703   -1.3381    2.3706 C.ar      1 <1>        -0.0247
     19 C19         5.1116    5.0391   -5.8738 C.ar      1 <1>        -0.0438
     20 C20         3.6931    2.9113   -2.5097 C.2       1 <1>         0.0055
     21 C21         3.5266    1.5757   -0.7708 C.2       1 <1>         0.0355
     22 C22         4.4788   -0.3123    0.1084 C.2       1 <1>         0.0041
     23 N1          2.4410    3.0805   -2.0764 N.2       1 <1>        -0.3108
     24 N2          3.6463    0.7014    0.2522 N.2       1 <1>        -0.3403
     25 N3          2.3701    2.2550   -1.0184 N.pl3     1 <1>        -0.2594
     26 N4          6.8234   -4.3850    1.4441 N.pl3     1 <1>        -0.0896
     27 O1          3.2272   -0.4199    2.6758 O.3       1 <1>        -0.5036
     28 O2          7.0490   -5.2793    2.2949 O.3       1 <1>        -0.1964
     29 O3          7.3928   -4.3711    0.3262 O.2       1 <1>        -0.2838
     30 Br1         5.7471    5.9893   -7.3786 Br        1 <1>        -0.1188
     31 H1         -2.1219    1.9117    1.7192 H         1 <1>         0.1137
     32 H2         -0.6056   -0.0472    1.5714 H         1 <1>         0.1166
     33 H3         -1.5245    4.0313    0.5793 H         1 <1>         0.1266
     34 H4          5.7663    4.6233   -2.5683 H         1 <1>         0.1413
     35 H5          2.6975    2.8144   -5.0056 H         1 <1>         0.1419
     36 H6          1.4997    0.1065    0.2907 H         1 <1>         0.1296
     37 H7          0.5780    4.2008   -0.7056 H         1 <1>         0.1583
     38 H8          5.4492   -4.1300    3.7265 H         1 <1>         0.1404
     39 H9          3.8489   -2.3645    4.2732 H         1 <1>         0.1099
     40 H10         6.5901    5.8565   -4.5204 H         1 <1>         0.1359
     41 H11         3.5213    4.0489   -6.9582 H         1 <1>         0.1339
     42 H12         6.1310   -2.3561   -0.1383 H         1 <1>         0.1593
     43 H13         5.4390    1.6573   -1.8529 H         1 <1>         0.1201
     44 H14         5.0447   -0.4134   -0.8372 H         1 <1>         0.1954
@<TRIPOS>BOND
     1    1    2 ar
     2    1    3 ar
     3    2    6 ar
     4    3    7 ar
     5    4   10 ar
     6    4   14 ar
     7    5   11 ar
     8    5   14 ar
     9    6   16 ar
    10    7   16 ar
    11    8    9 ar
    12    8   17 ar
    13    9   18 ar
    14   10   19 ar
    15   11   19 ar
    16   12   15 ar
    17   12   17 ar
    18   13   20 1
    19   13   21 2
    20   14   20 1
    21   15   18 ar
    22   15   22 1
    23   16   25 1
    24   17   26 1
    25   18   27 1
    26   19   30 1
    27   20   23 2
    28   21   24 1
    29   21   25 1
    30   22   24 2
    31   23   25 1
    32   26   28 1
    33   26   29 2
    34    1   31 1
    35    2   32 1
    36    3   33 1
    37    4   34 1
    38    5   35 1
    39    6   36 1
    40    7   37 1
    41    8   38 1
    42    9   39 1
    43   10   40 1
    44   11   41 1
    45   12   42 1
    46   13   43 1
    47   22   44 1
@<TRIPOS>Similarity
1.5923
@<TRIPOS>ShapeSim
0.8497
@<TRIPOS>PharmSim
0.7425
# END
# Name:		AG-690/13775008
# Created and modified by SHAFTS on Thu Dec 15 20:34:29 2011

# 

@<TRIPOS>MOLECULE
AG-690/13775008
   60    65     0
SMALL
USER_CHARGE


@<TRIPOS>ATOM
      1 C1          5.2050    5.0113   -5.7280 C.ar      1 <1>        -0.1018
      2 C2         -1.2638    2.0838    1.1535 C.ar      1 <1>        -0.0995
      3 C3          5.0722    3.6275   -5.8424 C.ar      1 <1>        -0.0946
      4 C4          4.8410    5.6513   -4.5432 C.ar      1 <1>        -0.0990
      5 C5         -0.5252    0.9118    0.9917 C.ar      1 <1>        -0.0901
      6 C6         -0.8116    3.2767    0.5895 C.ar      1 <1>        -0.0906
      7 C7          4.5754    2.8836   -4.7721 C.ar      1 <1>        -0.0726
      8 C8          4.3440    4.9074   -3.4729 C.ar      1 <1>        -0.0774
      9 C9          4.9798   -2.6251    0.7133 C.ar      1 <1>        -0.0411
     10 C10         4.6641   -0.9559    2.4311 C.ar      1 <1>        -0.0464
     11 C11         0.6658    0.9325    0.2659 C.ar      1 <1>        -0.0515
     12 C12         0.3795    3.2975   -0.1362 C.ar      1 <1>        -0.0520
     13 C13         5.0652   -3.6157    1.6915 C.ar      1 <1>        -0.0332
     14 C14         4.7495   -1.9465    3.4094 C.ar      1 <1>        -0.0373
     15 C15         6.5872    1.3160   -2.7016 C.ar      1 <1>        -0.0294
     16 C16         6.9514   -0.7166   -0.8064 C.ar      1 <1>        -0.0319
     17 C17         5.5628    1.0171   -1.7826 C.ar      1 <1>        -0.0407
     18 C18         5.7405   -0.0061   -0.8253 C.ar      1 <1>        -0.0113
     19 C19         4.3298    1.7109   -1.7714 C.ar      1 <1>         0.0336
     20 C20         4.2112    3.5236   -3.5874 C.ar      1 <1>        -0.0272
     21 C21         4.7793   -1.2951    1.0831 C.ar      1 <1>         0.0001
     22 C22         1.1182    2.1255   -0.2980 C.ar      1 <1>         0.0043
     23 C23         4.9501   -3.2764    3.0396 C.ar      1 <1>         0.0703
     24 C24         7.7817    0.5974   -2.6646 C.ar      1 <1>         0.0497
     25 C25         7.9630   -0.4143   -1.7213 C.ar      1 <1>         0.0474
     26 C26         4.6913   -0.2637    0.0655 C.ar      1 <1>         0.0300
     27 C27         3.6976    2.7552   -2.4813 C.2       1 <1>         0.0439
     28 C28         3.3888    1.3369   -0.8242 C.ar      1 <1>         0.0624
     29 C29         8.5049    1.9403   -4.4893 C.3       1 <1>         0.0303
     30 C30         9.1949   -2.3018   -2.4800 C.3       1 <1>         0.0274
     31 N1          3.4975    0.3766    0.1090 N.ar      1 <1>        -0.3286
     32 N2          2.4683    3.0225   -2.0298 N.2       1 <1>        -0.2799
     33 N3          2.3088    2.1454   -1.0235 N.pl3     1 <1>        -0.2466
     34 N4          5.0349   -4.2857    4.0346 N.pl3     1 <1>        -0.0477
     35 O1          5.2136   -5.4760    3.6797 O.3       1 <1>        -0.1551
     36 O2          4.9290   -3.9600    5.2417 O.2       1 <1>        -0.2460
     37 O3          8.7675    0.8932   -3.5577 O.3       1 <1>        -0.3979
     38 O4          9.1283   -1.1208   -1.6840 O.3       1 <1>        -0.4034
     39 H1          5.5928    5.5905   -6.5608 H         1 <1>         0.1235
     40 H2         -2.1920    2.0678    1.7170 H         1 <1>         0.1221
     41 H3          5.3567    3.1289   -6.7643 H         1 <1>         0.1238
     42 H4          4.9456    6.7285   -4.4539 H         1 <1>         0.1215
     43 H5         -0.8778   -0.0174    1.4296 H         1 <1>         0.1286
     44 H6         -1.3880    4.1887    0.7147 H         1 <1>         0.1279
     45 H7          4.4778    1.8056   -4.8769 H         1 <1>         0.1329
     46 H8          4.0647    5.4213   -2.5561 H         1 <1>         0.1283
     47 H9          5.0713   -2.9056   -0.3334 H         1 <1>         0.1594
     48 H10         4.5074    0.0764    2.7352 H         1 <1>         0.1534
     49 H11         1.2315    0.0117    0.1467 H         1 <1>         0.1371
     50 H12         0.7201    4.2340   -0.5712 H         1 <1>         0.1366
     51 H13         5.2222   -4.6484    1.3896 H         1 <1>         0.1690
     52 H14         4.6586   -1.6687    4.4566 H         1 <1>         0.1680
     53 H15         6.4725    2.0979   -3.4455 H         1 <1>         0.1440
     54 H16         7.1292   -1.5124   -0.0863 H         1 <1>         0.1414
     55 H17         9.3707    2.0736   -5.1424 H         1 <1>         0.0917
     56 H18         8.2970    2.8668   -3.9484 H         1 <1>         0.0919
     57 H19         7.6348    1.6697   -5.0922 H         1 <1>         0.1266
     58 H20        10.1755   -2.7686   -2.3594 H         1 <1>         0.0899
     59 H21         9.0283   -2.0450   -3.5291 H         1 <1>         0.0898
     60 H22         8.4197   -2.9973   -2.1495 H         1 <1>         0.1261
@<TRIPOS>BOND
     1    1    3 ar
     2    1    4 ar
     3    2    5 ar
     4    2    6 ar
     5    3    7 ar
     6    4    8 ar
     7    5   11 ar
     8    6   12 ar
     9    7   20 ar
    10    8   20 ar
    11    9   13 ar
    12    9   21 ar
    13   10   14 ar
    14   10   21 ar
    15   11   22 ar
    16   12   22 ar
    17   13   23 ar
    18   14   23 ar
    19   15   17 ar
    20   15   24 ar
    21   16   18 ar
    22   16   25 ar
    23   17   18 ar
    24   17   19 ar
    25   18   26 ar
    26   19   27 1
    27   19   28 ar
    28   20   27 1
    29   21   26 1
    30   22   33 1
    31   23   34 1
    32   24   25 ar
    33   24   37 1
    34   25   38 1
    35   26   31 ar
    36   27   32 2
    37   28   31 ar
    38   28   33 1
    39   29   37 1
    40   30   38 1
    41   32   33 1
    42   34   35 1
    43   34   36 2
    44    1   39 1
    45    2   40 1
    46    3   41 1
    47    4   42 1
    48    5   43 1
    49    6   44 1
    50    7   45 1
    51    8   46 1
    52    9   47 1
    53   10   48 1
    54   11   49 1
    55   12   50 1
    56   13   51 1
    57   14   52 1
    58   15   53 1
    59   16   54 1
    60   29   55 1
    61   29   56 1
    62   29   57 1
    63   30   58 1
    64   30   59 1
    65   30   60 1
@<TRIPOS>Similarity
1.5888
@<TRIPOS>ShapeSim
0.8409
@<TRIPOS>PharmSim
0.7479
# END
# Name:		AG-205/08567054
# Created and modified by SHAFTS on Thu Dec 15 20:34:29 2011

# 

@<TRIPOS>MOLECULE
AG-205/08567054
   43    46     0
SMALL
USER_CHARGE


@<TRIPOS>ATOM
      1 C1         -1.1838    1.9708    1.1635 C.ar      1 <1>        -0.0994
      2 C2         -0.3313    0.8705    1.0733 C.ar      1 <1>        -0.0908
      3 C3         -0.8507    3.1653    0.5248 C.ar      1 <1>        -0.0884
      4 C4          5.2625    4.5001   -3.5323 C.ar      1 <1>        -0.0640
      5 C5          3.5404    3.4919   -4.8942 C.ar      1 <1>        -0.0627
      6 C6          0.8545    0.9648    0.3448 C.ar      1 <1>        -0.0514
      7 C7          0.3350    3.2596   -0.2037 C.ar      1 <1>        -0.0487
      8 C8          5.7266    5.2063   -4.6420 C.ar      1 <1>        -0.0738
      9 C9          4.0044    4.1981   -6.0039 C.ar      1 <1>        -0.0733
     10 C10         5.6340   -2.3756    0.8338 C.ar      1 <1>        -0.0316
     11 C11         5.2164   -3.3298    3.0138 C.ar      1 <1>        -0.0300
     12 C12         4.4178    1.9867   -1.7465 C.2       1 <1>        -0.0128
     13 C13         4.1694    3.6427   -3.6584 C.ar      1 <1>        -0.0272
     14 C14         4.7291   -1.3505    1.1091 C.ar      1 <1>         0.0255
     15 C15         1.1876    2.1594   -0.2937 C.ar      1 <1>         0.0063
     16 C16         4.0679   -1.3148    2.3368 C.ar      1 <1>         0.0349
     17 C17         5.8776   -3.3653    1.7861 C.ar      1 <1>         0.0075
     18 C18         4.3115   -2.3046    3.2891 C.ar      1 <1>         0.0451
     19 C19         5.0975    5.0554   -5.8778 C.ar      1 <1>        -0.0392
     20 C20         3.6918    2.9151   -2.5163 C.2       1 <1>         0.0160
     21 C21         3.5321    1.5735   -0.7814 C.2       1 <1>         0.0381
     22 C22         4.4885   -0.3168    0.0881 C.2       1 <1>         0.0173
     23 N1          2.4411    3.0821   -2.0781 N.2       1 <1>        -0.2985
     24 N2          3.6559    0.6958    0.2382 N.2       1 <1>        -0.3383
     25 N3          2.3744    2.2529   -1.0227 N.pl3     1 <1>        -0.2566
     26 O1          3.1838   -0.3080    2.5978 O.3       1 <1>        -0.4037
     27 Cl1         6.9932   -4.6308    1.4447 Cl        1 <1>        -0.1279
     28 Cl2         3.5083   -2.2877    4.8162 Cl        1 <1>        -0.1166
     29 Br1         5.7273    6.0112   -7.3815 Br        1 <1>        -0.1098
     30 H1         -2.1081    1.8973    1.7290 H         1 <1>         0.1217
     31 H2         -0.5911   -0.0601    1.5693 H         1 <1>         0.1265
     32 H3         -1.5159    4.0212    0.5943 H         1 <1>         0.1281
     33 H4          5.7637    4.6287   -2.5760 H         1 <1>         0.1400
     34 H5          2.6878    2.8262   -5.0091 H         1 <1>         0.1432
     35 H6          1.5097    0.0994    0.2820 H         1 <1>         0.1365
     36 H7          0.5821    4.1965   -0.6971 H         1 <1>         0.1400
     37 H8          6.5801    5.8691   -4.5267 H         1 <1>         0.1382
     38 H9          3.5042    4.0679   -6.9602 H         1 <1>         0.1376
     39 H10         6.1474   -2.4018   -0.1251 H         1 <1>         0.1622
     40 H11         5.4083   -4.1029    3.7549 H         1 <1>         0.1598
     41 H12         5.4408    1.6601   -1.8697 H         1 <1>         0.1350
     42 H13         5.0512   -0.4144   -0.8598 H         1 <1>         0.2126
     43 H14         2.8073   -0.4178    3.4840 H         1 <1>         0.3721
@<TRIPOS>BOND
     1    1    2 ar
     2    1    3 ar
     3    2    6 ar
     4    3    7 ar
     5    4    8 ar
     6    4   13 ar
     7    5    9 ar
     8    5   13 ar
     9    6   15 ar
    10    7   15 ar
    11    8   19 ar
    12    9   19 ar
    13   10   14 ar
    14   10   17 ar
    15   11   17 ar
    16   11   18 ar
    17   12   20 1
    18   12   21 2
    19   13   20 1
    20   14   16 ar
    21   14   22 1
    22   15   25 1
    23   16   18 ar
    24   16   26 1
    25   17   27 1
    26   18   28 1
    27   19   29 1
    28   20   23 2
    29   21   24 1
    30   21   25 1
    31   22   24 2
    32   23   25 1
    33    1   30 1
    34    2   31 1
    35    3   32 1
    36    4   33 1
    37    5   34 1
    38    6   35 1
    39    7   36 1
    40    8   37 1
    41    9   38 1
    42   10   39 1
    43   11   40 1
    44   12   41 1
    45   22   42 1
    46   26   43 1
@<TRIPOS>Similarity
1.5791
@<TRIPOS>ShapeSim
0.8581
@<TRIPOS>PharmSim
0.7210
# END
# Name:		AG-219/34261001
# Created and modified by SHAFTS on Thu Dec 15 20:34:29 2011

# 

@<TRIPOS>MOLECULE
AG-219/34261001
   42    45     0
SMALL
USER_CHARGE


@<TRIPOS>ATOM
      1 C1          4.9564    5.0206   -5.5821 C.ar      1 <1>        -0.1030
      2 C2          4.9560   -3.0219    2.7859 C.ar      1 <1>        -0.1040
      3 C3          5.7305    5.0332   -4.4218 C.ar      1 <1>        -0.0960
      4 C4          3.8562    4.1686   -5.6774 C.ar      1 <1>        -0.0990
      5 C5          5.7489   -3.3102    1.6752 C.ar      1 <1>        -0.0969
      6 C6          4.2783   -1.8051    2.8622 C.ar      1 <1>        -0.0987
      7 C7          5.4043    4.1936   -3.3568 C.ar      1 <1>        -0.0728
      8 C8          3.5300    3.3290   -4.6123 C.ar      1 <1>        -0.0785
      9 C9          0.5214    3.2880   -0.2140 C.ar      1 <1>        -0.0499
     10 C10         0.4661    0.9449    0.3729 C.ar      1 <1>        -0.0506
     11 C11         5.8642   -2.3817    0.6406 C.ar      1 <1>        -0.0705
     12 C12         4.3936   -0.8765    1.8277 C.ar      1 <1>        -0.0728
     13 C13        -0.7404    3.4602    0.3550 C.ar      1 <1>        -0.0706
     14 C14        -0.7956    1.1172    0.9419 C.ar      1 <1>        -0.0711
     15 C15         4.8567    1.5227   -1.8869 C.ar      1 <1>         0.0096
     16 C16         4.3041    3.3414   -3.4520 C.ar      1 <1>        -0.0305
     17 C17         1.1247    2.0302   -0.2051 C.ar      1 <1>         0.0172
     18 C18         5.1866   -1.1648    0.7170 C.ar      1 <1>        -0.0583
     19 C19        -1.3989    2.3749    0.9331 C.ar      1 <1>        -0.0385
     20 C20         3.9659    2.4709   -2.3470 C.ar      1 <1>        -0.0023
     21 C21         4.4174    0.7552   -0.8275 C.ar      1 <1>         0.0124
     22 C22         2.4271    1.8527   -0.7923 C.ar      1 <1>         0.0535
     23 N1          2.7384    2.6638   -1.8212 N.ar      1 <1>        -0.3492
     24 N2          3.2042    0.8939   -0.2536 N.ar      1 <1>        -0.3324
     25 N3          5.3023   -0.2298   -0.3244 N.pl3     1 <1>        -0.3327
     26 Br1        -3.1081    2.6078    1.7051 Br        1 <1>        -0.1079
     27 H1          5.2096    5.6757   -6.4106 H         1 <1>         0.1218
     28 H2          4.8664   -3.7451    3.5916 H         1 <1>         0.1161
     29 H3          6.5862    5.6978   -4.3468 H         1 <1>         0.1198
     30 H4          3.2522    4.1593   -6.5800 H         1 <1>         0.1194
     31 H5          6.2764   -4.2575    1.6159 H         1 <1>         0.1256
     32 H6          3.6609   -1.5808    3.7274 H         1 <1>         0.1246
     33 H7          6.0174    4.2152   -2.4589 H         1 <1>         0.1408
     34 H8          2.6691    2.6706   -4.7009 H         1 <1>         0.1278
     35 H9          1.0221    4.1437   -0.6607 H         1 <1>         0.1538
     36 H10         0.9236   -0.0414    0.3884 H         1 <1>         0.1522
     37 H11         6.4846   -2.6159   -0.2205 H         1 <1>         0.1257
     38 H12         3.8607    0.0683    1.8981 H         1 <1>         0.1229
     39 H13        -1.1963    4.4469    0.3405 H         1 <1>         0.1371
     40 H14        -1.2952    0.2613    1.3881 H         1 <1>         0.1363
     41 H15         5.8378    1.3892   -2.3279 H         1 <1>         0.1407
     42 H16         6.1881   -0.2612   -0.8154 H         1 <1>         0.3288
@<TRIPOS>BOND
     1    1    3 ar
     2    1    4 ar
     3    2    5 ar
     4    2    6 ar
     5    3    7 ar
     6    4    8 ar
     7    5   11 ar
     8    6   12 ar
     9    7   16 ar
    10    8   16 ar
    11    9   13 ar
    12    9   17 ar
    13   10   14 ar
    14   10   17 ar
    15   11   18 ar
    16   12   18 ar
    17   13   19 ar
    18   14   19 ar
    19   15   20 ar
    20   15   21 ar
    21   16   20 1
    22   17   22 1
    23   18   25 1
    24   19   26 1
    25   20   23 ar
    26   21   24 ar
    27   21   25 1
    28   22   23 ar
    29   22   24 ar
    30    1   27 1
    31    2   28 1
    32    3   29 1
    33    4   30 1
    34    5   31 1
    35    6   32 1
    36    7   33 1
    37    8   34 1
    38    9   35 1
    39   10   36 1
    40   11   37 1
    41   12   38 1
    42   13   39 1
    43   14   40 1
    44   15   41 1
    45   25   42 1
@<TRIPOS>Similarity
1.5602
@<TRIPOS>ShapeSim
0.8489
@<TRIPOS>PharmSim
0.7114
# END
# Name:		AI-031/11219358
# Created and modified by SHAFTS on Thu Dec 15 20:34:29 2011

# 

@<TRIPOS>MOLECULE
AI-031/11219358
   37    40     0
SMALL
USER_CHARGE


@<TRIPOS>ATOM
      1 C1          5.2489    4.7955   -5.5191 C.ar      1 <1>        -0.1046
      2 C2          4.9729   -3.0031    2.7521 C.ar      1 <1>        -0.1011
      3 C3          5.4789    5.2144   -4.2087 C.ar      1 <1>        -0.1008
      4 C4          4.5670    3.6030   -5.7606 C.ar      1 <1>        -0.1007
      5 C5          4.2662   -1.8057    2.8632 C.ar      1 <1>        -0.0911
      6 C6          5.7448   -3.2547    1.6178 C.ar      1 <1>        -0.0921
      7 C7          5.0270    4.4406   -3.1397 C.ar      1 <1>        -0.0873
      8 C8          4.1151    2.8291   -4.6917 C.ar      1 <1>        -0.0873
      9 C9          4.3311   -0.8600    1.8400 C.ar      1 <1>        -0.0517
     10 C10         5.8098   -2.3088    0.5945 C.ar      1 <1>        -0.0528
     11 C11         2.6132    2.6247   -1.7157 C.ar      1 <1>        -0.0420
     12 C12         2.2311    1.8161   -0.6505 C.ar      1 <1>        -0.0187
     13 C13         4.6928    1.4542   -1.7214 C.ar      1 <1>         0.0226
     14 C14         4.3451    3.2479   -3.3813 C.ar      1 <1>        -0.0648
     15 C15         3.8782    2.4489   -2.2766 C.ar      1 <1>        -0.0461
     16 C16         5.1030   -1.1115    0.7056 C.ar      1 <1>         0.0016
     17 C17         5.9814    0.9220   -1.9256 C.2       1 <1>         0.0045
     18 C18         4.1881    0.7189   -0.6602 C.ar      1 <1>         0.0507
     19 C19         6.9840    1.3209   -2.9298 C.3       1 <1>         0.0046
     20 N1          2.9817    0.8428   -0.0800 N.ar      1 <1>        -0.3593
     21 N2          6.2757   -0.0649   -1.0727 N.2       1 <1>        -0.3023
     22 N3          5.1675   -0.1655   -0.3165 N.pl3     1 <1>        -0.2547
     23 H1          5.5994    5.3991   -6.3512 H         1 <1>         0.1195
     24 H2          4.9241   -3.7391    3.5491 H         1 <1>         0.1199
     25 H3          6.0084    6.1438   -4.0204 H         1 <1>         0.1193
     26 H4          4.3864    3.2769   -6.7808 H         1 <1>         0.1191
     27 H5          3.6661   -1.6091    3.7469 H         1 <1>         0.1277
     28 H6          6.2961   -4.1867    1.5326 H         1 <1>         0.1264
     29 H7          5.2139    4.7808   -2.1238 H         1 <1>         0.1265
     30 H8          3.5845    1.9021   -4.8954 H         1 <1>         0.1265
     31 H9          3.7759    0.0697    1.9397 H         1 <1>         0.1372
     32 H10         6.4158   -2.5174   -0.2838 H         1 <1>         0.1351
     33 H11         1.9290    3.3778   -2.0957 H         1 <1>         0.1329
     34 H12         1.2486    1.9430   -0.2034 H         1 <1>         0.2278
     35 H13         7.6438    2.1152   -2.5418 H         1 <1>         0.0859
     36 H14         7.6248    0.4755   -3.2362 H         1 <1>         0.0816
     37 H15         6.5170    1.6984   -3.8565 H         1 <1>         0.0879
@<TRIPOS>BOND
     1    1    3 ar
     2    1    4 ar
     3    2    5 ar
     4    2    6 ar
     5    3    7 ar
     6    4    8 ar
     7    5    9 ar
     8    6   10 ar
     9    7   14 ar
    10    8   14 ar
    11    9   16 ar
    12   10   16 ar
    13   11   12 ar
    14   11   15 ar
    15   12   20 ar
    16   13   15 ar
    17   13   17 1
    18   13   18 ar
    19   14   15 1
    20   16   22 1
    21   17   19 1
    22   17   21 2
    23   18   20 ar
    24   18   22 1
    25   21   22 1
    26    1   23 1
    27    2   24 1
    28    3   25 1
    29    4   26 1
    30    5   27 1
    31    6   28 1
    32    7   29 1
    33    8   30 1
    34    9   31 1
    35   10   32 1
    36   11   33 1
    37   12   34 1
    38   19   35 1
    39   19   36 1
    40   19   37 1
@<TRIPOS>Similarity
1.5538
@<TRIPOS>ShapeSim
0.8220
@<TRIPOS>PharmSim
0.7318
# END
# Name:		AG-690/11481224
# Created and modified by SHAFTS on Thu Dec 15 20:34:29 2011

# 

@<TRIPOS>MOLECULE
AG-690/11481224
   42    44     0
SMALL
USER_CHARGE


@<TRIPOS>ATOM
      1 C1          6.0902    1.2499   -2.3456 C.1       1 <1>         0.0803
      2 C2         -1.5285    2.4138    0.9711 C.ar      1 <1>        -0.1027
      3 C3         -0.8798    3.5058    0.3947 C.ar      1 <1>        -0.0986
      4 C4         -0.9187    1.1592    0.9684 C.ar      1 <1>        -0.0963
      5 C5          0.3787    3.3433   -0.1843 C.ar      1 <1>        -0.0782
      6 C6          0.3398    0.9967    0.3893 C.ar      1 <1>        -0.0739
      7 C7          5.0694    4.5171   -3.2440 C.ar      1 <1>        -0.0740
      8 C8          4.1487    2.9099   -4.7952 C.ar      1 <1>        -0.0727
      9 C9          5.4892    5.3085   -4.3131 C.ar      1 <1>        -0.0738
     10 C10         4.5685    3.7013   -5.8643 C.ar      1 <1>        -0.0736
     11 C11         2.6959    2.7139   -1.8481 C.ar      1 <1>        -0.0199
     12 C12         4.7769    1.5081   -1.8336 C.ar      1 <1>         0.1494
     13 C13         4.3991    3.3178   -3.4850 C.ar      1 <1>        -0.0498
     14 C14         0.9886    2.0888   -0.1870 C.ar      1 <1>        -0.0298
     15 C15         3.9639    2.4971   -2.3760 C.ar      1 <1>        -0.0013
     16 C16         5.2387    4.9007   -5.6232 C.ar      1 <1>        -0.0364
     17 C17         2.2912    1.9211   -0.7862 C.ar      1 <1>        -0.0021
     18 C18         4.2791    0.7694   -0.7723 C.ar      1 <1>         0.1212
     19 C19         4.8947   -2.7700    2.5429 C.3       1 <1>        -0.0632
     20 C20         5.4565   -1.9582    1.3896 C.3       1 <1>        -0.0386
     21 C21         4.4578   -0.9292    0.8826 C.3       1 <1>         0.0321
     22 N1          7.1537    1.0410   -2.7602 N.1       1 <1>        -0.3655
     23 N2          3.0529    0.9510   -0.2328 N.ar      1 <1>        -0.3378
     24 O1          5.0413   -0.2176   -0.2016 O.3       1 <1>        -0.3607
     25 Br1         5.8063    5.9729   -7.0723 Br        1 <1>        -0.1053
     26 H1         -2.5077    2.5408    1.4234 H         1 <1>         0.1221
     27 H2         -1.3537    4.4830    0.3982 H         1 <1>         0.1203
     28 H3         -1.4226    0.3088    1.4182 H         1 <1>         0.1192
     29 H4          0.8717    4.2045   -0.6295 H         1 <1>         0.1308
     30 H5          0.8031    0.0129    0.3954 H         1 <1>         0.1393
     31 H6          5.2720    4.8486   -2.2283 H         1 <1>         0.1353
     32 H7          3.6268    1.9781   -4.9993 H         1 <1>         0.1417
     33 H8          6.0096    6.2406   -4.1082 H         1 <1>         0.1396
     34 H9          4.3656    3.3691   -6.8791 H         1 <1>         0.1402
     35 H10         2.0413    3.4805   -2.2542 H         1 <1>         0.1462
     36 H11         4.6008   -2.1200    3.3732 H         1 <1>         0.0350
     37 H12         4.0106   -3.3281    2.2193 H         1 <1>         0.0350
     38 H13         5.6330   -3.4883    2.9132 H         1 <1>         0.0398
     39 H14         5.7445   -2.6268    0.5695 H         1 <1>         0.0553
     40 H15         6.3778   -1.4531    1.7037 H         1 <1>         0.0553
     41 H16         3.5424   -1.4143    0.5286 H         1 <1>         0.1083
     42 H17         4.1999   -0.2140    1.6702 H         1 <1>         0.1083
@<TRIPOS>BOND
     1    1   12 1
     2    1   22 3
     3    2    3 ar
     4    2    4 ar
     5    3    5 ar
     6    4    6 ar
     7    5   14 ar
     8    6   14 ar
     9    7    9 ar
    10    7   13 ar
    11    8   10 ar
    12    8   13 ar
    13    9   16 ar
    14   10   16 ar
    15   11   15 ar
    16   11   17 ar
    17   12   15 ar
    18   12   18 ar
    19   13   15 1
    20   14   17 1
    21   16   25 1
    22   17   23 ar
    23   18   23 ar
    24   18   24 1
    25   19   20 1
    26   20   21 1
    27   21   24 1
    28    2   26 1
    29    3   27 1
    30    4   28 1
    31    5   29 1
    32    6   30 1
    33    7   31 1
    34    8   32 1
    35    9   33 1
    36   10   34 1
    37   11   35 1
    38   19   36 1
    39   19   37 1
    40   19   38 1
    41   20   39 1
    42   20   40 1
    43   21   41 1
    44   21   42 1
@<TRIPOS>Similarity
1.5463
@<TRIPOS>ShapeSim
0.9049
@<TRIPOS>PharmSim
0.6414
# END
# Name:		AG-670/34584025
# Created and modified by SHAFTS on Thu Dec 15 20:34:29 2011

# 

@<TRIPOS>MOLECULE
AG-670/34584025
   52    56     0
SMALL
USER_CHARGE


@<TRIPOS>ATOM
      1 C1          7.9369    0.0510   -3.2240 C.ar      1 <1>        -0.1078
      2 C2          5.1230    5.8315   -5.3381 C.ar      1 <1>        -0.1046
      3 C3         -1.0317    1.8044    1.3122 C.ar      1 <1>        -0.0991
      4 C4          7.9302    1.3228   -2.6512 C.ar      1 <1>        -0.1044
      5 C5          6.7359   -0.6290   -3.4264 C.ar      1 <1>        -0.1014
      6 C6          4.8844    4.5119   -5.7220 C.ar      1 <1>        -0.0978
      7 C7          4.8797    6.2303   -4.0237 C.ar      1 <1>        -0.0988
      8 C8          5.9917   -3.0338    1.9259 C.ar      1 <1>        -0.0899
      9 C9         -0.3797    0.6643    0.8426 C.ar      1 <1>        -0.0924
     10 C10        -0.5525    3.0705    0.9756 C.ar      1 <1>        -0.0892
     11 C11         5.0393   -3.3937    2.8793 C.ar      1 <1>        -0.0901
     12 C12         6.7227    1.9146   -2.2807 C.ar      1 <1>        -0.0903
     13 C13         5.5284   -0.0373   -3.0558 C.ar      1 <1>        -0.0857
     14 C14         4.4025    3.5911   -4.7916 C.ar      1 <1>        -0.0737
     15 C15         4.3978    5.3095   -3.0934 C.ar      1 <1>        -0.0749
     16 C16         5.7848   -1.9130    1.1217 C.ar      1 <1>        -0.0693
     17 C17         0.7517    0.7902    0.0365 C.ar      1 <1>        -0.0570
     18 C18         0.5790    3.1962    0.1696 C.ar      1 <1>        -0.0507
     19 C19         3.8797   -2.6330    3.0283 C.ar      1 <1>        -0.0637
     20 C20         5.5217    1.2346   -2.4831 C.ar      1 <1>        -0.0658
     21 C21         4.1592    3.9900   -3.4773 C.ar      1 <1>        -0.0274
     22 C22         4.2784    1.8434   -2.1015 C.2       1 <1>         0.0197
     23 C23         4.6251   -1.1523    1.2707 C.ar      1 <1>        -0.0007
     24 C24         1.2311    2.0561   -0.3000 C.ar      1 <1>        -0.0009
     25 C25         3.6725   -1.5123    2.2240 C.ar      1 <1>         0.0199
     26 C26         3.6610    3.0389   -2.5159 C.2       1 <1>         0.0303
     27 C27         3.4084    1.3081   -1.1834 C.2       1 <1>         0.0563
     28 C28         4.4500    0.0219    0.3993 C.2       1 <1>         0.0159
     29 N1          2.4893    3.2507   -1.9108 N.2       1 <1>        -0.3020
     30 N2          3.4465    0.1769   -0.4422 N.2       1 <1>        -0.3257
     31 N3          2.3633    2.1812   -1.1068 N.pl3     1 <1>        -0.2597
     32 Cl1         2.2237   -0.5978    2.4405 Cl        1 <1>        -0.1024
     33 H1          8.8770   -0.4095   -3.5135 H         1 <1>         0.1128
     34 H2          5.4993    6.5483   -6.0621 H         1 <1>         0.1180
     35 H3         -1.9136    1.7071    1.9384 H         1 <1>         0.1222
     36 H4          8.8651    1.8530   -2.4947 H         1 <1>         0.1144
     37 H5          6.7412   -1.6187   -3.8734 H         1 <1>         0.1158
     38 H6          5.0750    4.2008   -6.7449 H         1 <1>         0.1186
     39 H7          5.0667    7.2574   -3.7248 H         1 <1>         0.1180
     40 H8          6.8946   -3.6264    1.8100 H         1 <1>         0.1274
     41 H9         -0.7535   -0.3214    1.1035 H         1 <1>         0.1284
     42 H10        -1.0616    3.9578    1.3406 H         1 <1>         0.1293
     43 H11         5.2007   -4.2663    3.5055 H         1 <1>         0.1357
     44 H12         6.7341    2.9067   -1.8353 H         1 <1>         0.1132
     45 H13         4.6007   -0.5806   -3.2203 H         1 <1>         0.1216
     46 H14         4.2214    2.5660   -5.1064 H         1 <1>         0.1295
     47 H15         4.2132    5.6362   -2.0727 H         1 <1>         0.1284
     48 H16         6.5350   -1.6435    0.3826 H         1 <1>         0.1430
     49 H17         1.2500   -0.1067   -0.3234 H         1 <1>         0.1235
     50 H18         0.9415    4.1891   -0.0858 H         1 <1>         0.1388
     51 H19         3.1472   -2.9271    3.7759 H         1 <1>         0.1336
     52 H20         5.2212    0.8123    0.4699 H         1 <1>         0.2110
@<TRIPOS>BOND
     1    1    4 ar
     2    1    5 ar
     3    2    6 ar
     4    2    7 ar
     5    3    9 ar
     6    3   10 ar
     7    4   12 ar
     8    5   13 ar
     9    6   14 ar
    10    7   15 ar
    11    8   11 ar
    12    8   16 ar
    13    9   17 ar
    14   10   18 ar
    15   11   19 ar
    16   12   20 ar
    17   13   20 ar
    18   14   21 ar
    19   15   21 ar
    20   16   23 ar
    21   17   24 ar
    22   18   24 ar
    23   19   25 ar
    24   20   22 1
    25   21   26 1
    26   22   26 1
    27   22   27 2
    28   23   25 ar
    29   23   28 1
    30   24   31 1
    31   25   32 1
    32   26   29 2
    33   27   30 1
    34   27   31 1
    35   28   30 2
    36   29   31 1
    37    1   33 1
    38    2   34 1
    39    3   35 1
    40    4   36 1
    41    5   37 1
    42    6   38 1
    43    7   39 1
    44    8   40 1
    45    9   41 1
    46   10   42 1
    47   11   43 1
    48   12   44 1
    49   13   45 1
    50   14   46 1
    51   15   47 1
    52   16   48 1
    53   17   49 1
    54   18   50 1
    55   19   51 1
    56   28   52 1
@<TRIPOS>Similarity
1.5459
@<TRIPOS>ShapeSim
0.8558
@<TRIPOS>PharmSim
0.6901
# END
# Name:		AO-435/41051597
# Created and modified by SHAFTS on Thu Dec 15 20:34:29 2011

# 

@<TRIPOS>MOLECULE
AO-435/41051597
   35    38     0
SMALL
USER_CHARGE


@<TRIPOS>ATOM
      1 C1         -1.2230    1.8273    1.3981 C.ar      1 <1>        -0.1044
      2 C2          5.5512    5.0582   -5.9748 C.ar      1 <1>        -0.1044
      3 C3          4.9830   -0.1324   -0.2413 C.ar      1 <1>        -0.1012
      4 C4          5.9069    0.3084   -1.2461 C.ar      1 <1>        -0.1012
      5 C5         -0.1909    2.6852    1.7781 C.ar      1 <1>        -0.1004
      6 C6         -1.1083    1.0728    0.2304 C.ar      1 <1>        -0.0992
      7 C7          4.8141    3.8989   -6.2166 C.ar      1 <1>        -0.0992
      8 C8          5.7329    5.5093   -4.6674 C.ar      1 <1>        -0.1004
      9 C9          3.6965    0.4184   -0.0527 C.ar      1 <1>        -0.0928
     10 C10         5.6400    1.3459   -2.1663 C.ar      1 <1>        -0.0928
     11 C11         0.9557    2.7886    0.9906 C.ar      1 <1>        -0.0864
     12 C12         0.0383    1.1763   -0.5571 C.ar      1 <1>        -0.0846
     13 C13         4.2587    3.1908   -5.1510 C.ar      1 <1>        -0.0846
     14 C14         5.1773    4.8010   -3.6018 C.ar      1 <1>        -0.0864
     15 C15         3.4412    1.4415   -0.9651 C.ar      1 <1>        -0.0719
     16 C16         4.3682    1.8838   -1.9732 C.ar      1 <1>        -0.0719
     17 C17         1.0704    2.0342   -0.1770 C.ar      1 <1>        -0.0659
     18 C18         4.4402    3.6419   -3.8436 C.ar      1 <1>        -0.0659
     19 C19         2.2601    2.1410   -0.9933 C.2       1 <1>        -0.0049
     20 C20         3.8647    2.9066   -2.7382 C.2       1 <1>        -0.0049
     21 S1          2.2727    3.3312   -2.2377 S.3       1 <1>        -0.0805
     22 H1         -2.1154    1.7462    2.0115 H         1 <1>         0.1186
     23 H2          5.9843    5.6091   -6.8046 H         1 <1>         0.1186
     24 H3          5.2962   -0.9440    0.4154 H         1 <1>         0.1170
     25 H4          6.8738   -0.1915   -1.3003 H         1 <1>         0.1170
     26 H5         -0.2804    3.2727    2.6872 H         1 <1>         0.1199
     27 H6         -1.9115    0.4039   -0.0651 H         1 <1>         0.1204
     28 H7          4.6727    3.5480   -7.2347 H         1 <1>         0.1203
     29 H8          6.3078    6.4113   -4.4791 H         1 <1>         0.1199
     30 H9          3.0229    0.0644    0.7160 H         1 <1>         0.1241
     31 H10         6.3573    1.6543   -2.9149 H         1 <1>         0.1241
     32 H11         1.7526    3.4599    1.3019 H         1 <1>         0.1242
     33 H12         0.1119    0.5823   -1.4650 H         1 <1>         0.1278
     34 H13         3.6889    2.2875   -5.3557 H         1 <1>         0.1279
     35 H14         5.3271    5.1663   -2.5886 H         1 <1>         0.1242
@<TRIPOS>BOND
     1    1    5 ar
     2    1    6 ar
     3    2    7 ar
     4    2    8 ar
     5    3    4 ar
     6    3    9 ar
     7    4   10 ar
     8    5   11 ar
     9    6   12 ar
    10    7   13 ar
    11    8   14 ar
    12    9   15 ar
    13   10   16 ar
    14   11   17 ar
    15   12   17 ar
    16   13   18 ar
    17   14   18 ar
    18   15   16 ar
    19   15   19 2
    20   16   20 2
    21   17   19 1
    22   18   20 1
    23   19   21 1
    24   20   21 1
    25    1   22 1
    26    2   23 1
    27    3   24 1
    28    4   25 1
    29    5   26 1
    30    6   27 1
    31    7   28 1
    32    8   29 1
    33    9   30 1
    34   10   31 1
    35   11   32 1
    36   12   33 1
    37   13   34 1
    38   14   35 1
@<TRIPOS>Similarity
1.5372
@<TRIPOS>ShapeSim
0.7924
@<TRIPOS>PharmSim
0.7447
# END
# Name:		AO-476/42008145
# Created and modified by SHAFTS on Thu Dec 15 20:34:29 2011

# 

@<TRIPOS>MOLECULE
AO-476/42008145
   50    54     0
SMALL
USER_CHARGE


@<TRIPOS>ATOM
      1 C1          6.2967    1.2515   -2.5072 C.1       1 <1>         0.0819
      2 C2          4.4572   -3.7737    3.0286 C.ar      1 <1>        -0.1058
      3 C3         -0.5635    1.0155    1.3450 C.ar      1 <1>        -0.0957
      4 C4         -1.3125    2.1665    1.1196 C.ar      1 <1>        -0.1010
      5 C5          3.6068   -2.6720    2.9373 C.ar      1 <1>        -0.1034
      6 C6          5.7279   -3.7234    2.4555 C.ar      1 <1>        -0.1033
      7 C7          0.6888    0.8630    0.7448 C.ar      1 <1>        -0.0716
      8 C8          4.2385    2.8852   -4.8180 C.ar      1 <1>        -0.0737
      9 C9          5.2087    4.4723   -3.2763 C.ar      1 <1>        -0.0740
     10 C10        -0.8132    3.1684    0.2912 C.ar      1 <1>        -0.0947
     11 C11         4.0269   -1.5198    2.2725 C.ar      1 <1>        -0.0955
     12 C12         6.1481   -2.5714    1.7907 C.ar      1 <1>        -0.0954
     13 C13         4.6208    3.6923   -5.8895 C.ar      1 <1>        -0.0663
     14 C14         5.5911    5.2794   -4.3478 C.ar      1 <1>        -0.0660
     15 C15         4.9998    1.4528   -1.9297 C.ar      1 <1>         0.1511
     16 C16         4.5323    3.2753   -3.5115 C.ar      1 <1>        -0.0499
     17 C17         1.2127    1.8582   -0.0973 C.ar      1 <1>        -0.0237
     18 C18         4.1328    2.4333   -2.3933 C.ar      1 <1>         0.0013
     19 C19         0.4359    3.0172   -0.3270 C.ar      1 <1>        -0.0835
     20 C20         2.8826    2.5945   -1.7937 C.ar      1 <1>        -0.0280
     21 C21         5.2976   -1.4695    1.6993 C.ar      1 <1>        -0.0725
     22 C22         5.2972    4.8893   -5.6545 C.ar      1 <1>        -0.0116
     23 C23         2.5298    1.7337   -0.7463 C.ar      1 <1>         0.0041
     24 C24         4.5732    0.6555   -0.8830 C.ar      1 <1>         0.1250
     25 C25         0.9942    4.1337   -1.1792 C.3       1 <1>        -0.0280
     26 C26         1.8954    3.6097   -2.3013 C.3       1 <1>        -0.0208
     27 C27         5.7500   -0.2306    0.9839 C.3       1 <1>         0.0601
     28 N1          7.3463    1.0886   -2.9745 N.1       1 <1>        -0.3644
     29 N2          3.3656    0.7701   -0.2854 N.ar      1 <1>        -0.3347
     30 O1          5.3897   -0.3290   -0.3882 O.3       1 <1>        -0.3474
     31 Cl1         5.7673    5.8853   -6.9770 Cl        1 <1>        -0.1383
     32 H1          4.1304   -4.6702    3.5474 H         1 <1>         0.1189
     33 H2         -0.9520    0.2339    1.9915 H         1 <1>         0.1188
     34 H3         -2.2828    2.2853    1.5923 H         1 <1>         0.1233
     35 H4          2.6178   -2.7106    3.3844 H         1 <1>         0.1173
     36 H5          6.3907   -4.5806    2.5273 H         1 <1>         0.1173
     37 H6          1.2452   -0.0499    0.9448 H         1 <1>         0.1395
     38 H7          3.7116    1.9551   -5.0174 H         1 <1>         0.1408
     39 H8          5.4443    4.7906   -2.2635 H         1 <1>         0.1374
     40 H9         -1.4008    4.0689    0.1324 H         1 <1>         0.1223
     41 H10         3.3575   -0.6662    2.2061 H         1 <1>         0.1228
     42 H11         7.1397   -2.5412    1.3470 H         1 <1>         0.1228
     43 H12         4.3837    3.3772   -6.9027 H         1 <1>         0.1384
     44 H13         6.1166    6.2102   -4.1499 H         1 <1>         0.1380
     45 H14         0.1817    4.7212   -1.6231 H         1 <1>         0.0746
     46 H15         1.5655    4.8037   -0.5236 H         1 <1>         0.0778
     47 H16         2.3903    4.4742   -2.7567 H         1 <1>         0.0785
     48 H17         1.2832    3.1310   -3.0766 H         1 <1>         0.0756
     49 H18         5.2826    0.6623    1.4128 H         1 <1>         0.1306
     50 H19         6.8362   -0.1124    1.0625 H         1 <1>         0.1310
@<TRIPOS>BOND
     1    1   15 1
     2    1   28 3
     3    2    5 ar
     4    2    6 ar
     5    3    4 ar
     6    3    7 ar
     7    4   10 ar
     8    5   11 ar
     9    6   12 ar
    10    7   17 ar
    11    8   13 ar
    12    8   16 ar
    13    9   14 ar
    14    9   16 ar
    15   10   19 ar
    16   11   21 ar
    17   12   21 ar
    18   13   22 ar
    19   14   22 ar
    20   15   18 ar
    21   15   24 ar
    22   16   18 1
    23   17   19 ar
    24   17   23 1
    25   18   20 ar
    26   19   25 1
    27   20   23 ar
    28   20   26 1
    29   21   27 1
    30   22   31 1
    31   23   29 ar
    32   24   29 ar
    33   24   30 1
    34   25   26 1
    35   27   30 1
    36    2   32 1
    37    3   33 1
    38    4   34 1
    39    5   35 1
    40    6   36 1
    41    7   37 1
    42    8   38 1
    43    9   39 1
    44   10   40 1
    45   11   41 1
    46   12   42 1
    47   13   43 1
    48   14   44 1
    49   25   45 1
    50   25   46 1
    51   26   47 1
    52   26   48 1
    53   27   49 1
    54   27   50 1
@<TRIPOS>Similarity
1.5351
@<TRIPOS>ShapeSim
0.8935
@<TRIPOS>PharmSim
0.6416
# END
# Name:		AO-476/40672202
# Created and modified by SHAFTS on Thu Dec 15 20:34:29 2011

# 

@<TRIPOS>MOLECULE
AO-476/40672202
   51    54     0
SMALL
USER_CHARGE


@<TRIPOS>ATOM
      1 C1          1.6914    3.6730   -2.2529 C.1       1 <1>         0.0854
      2 C2          4.9775   -2.9567    2.6978 C.ar      1 <1>        -0.0999
      3 C3          4.2671   -1.7619    2.8139 C.ar      1 <1>        -0.0908
      4 C4          5.7483   -3.2023    1.5615 C.ar      1 <1>        -0.0904
      5 C5          5.0457    4.4739   -3.1839 C.ar      1 <1>        -0.0806
      6 C6          4.1320    2.8610   -4.7333 C.ar      1 <1>        -0.0717
      7 C7          4.3273   -0.8128    1.7936 C.ar      1 <1>        -0.0521
      8 C8          5.8084   -2.2531    0.5411 C.ar      1 <1>        -0.0512
      9 C9          5.5234    5.2310   -4.2536 C.ar      1 <1>        -0.0626
     10 C10         4.6097    3.6181   -5.8031 C.ar      1 <1>        -0.0500
     11 C11         2.5915    2.6764   -1.7496 C.ar      1 <1>         0.1663
     12 C12         4.6739    1.5110   -1.7639 C.ar      1 <1>         0.0477
     13 C13         4.3501    3.2889   -3.4237 C.ar      1 <1>        -0.0440
     14 C14         3.8549    2.5042   -2.3152 C.ar      1 <1>         0.0181
     15 C15         5.0980   -1.0583    0.6572 C.ar      1 <1>         0.0045
     16 C16         5.3053    4.8030   -5.5632 C.ar      1 <1>        -0.0093
     17 C17         5.9631    0.9822   -1.9733 C.2       1 <1>         0.0117
     18 C18         4.1749    0.7734   -0.7016 C.ar      1 <1>         0.0669
     19 C19         2.2152    1.8658   -0.6838 C.ar      1 <1>         0.1395
     20 C20        -0.9820    1.2182    1.0383 C.2       1 <1>         0.0866
     21 C21         6.9621    1.3825   -2.9809 C.3       1 <1>         0.0080
     22 C22        -2.0041    0.1125    1.0461 C.3       1 <1>         0.0340
     23 C23         6.4733    6.7431   -6.2899 C.3       1 <1>         0.0253
     24 C24         0.3679    0.8790    0.4429 C.3       1 <1>         0.1268
     25 N1          0.9631    4.4795   -2.6603 N.1       1 <1>        -0.3622
     26 N2          6.2628   -0.0048   -1.1224 N.2       1 <1>        -0.2959
     27 N3          2.9702    0.8937   -0.1169 N.ar      1 <1>        -0.3100
     28 N4          5.1577   -0.1089   -0.3623 N.pl3     1 <1>        -0.2458
     29 O1         -1.2413    2.3313    1.4930 O.2       1 <1>        -0.4562
     30 O2          5.7710    5.5422   -6.6068 O.3       1 <1>        -0.4147
     31 O3          0.9704    2.0337   -0.1240 O.3       1 <1>        -0.3275
     32 H1          4.9324   -3.6952    3.4928 H         1 <1>         0.1214
     33 H2          3.6680   -1.5699    3.6992 H         1 <1>         0.1280
     34 H3          6.3023   -4.1322    1.4725 H         1 <1>         0.1279
     35 H4          5.2236    4.8206   -2.1688 H         1 <1>         0.1395
     36 H5          3.5915    1.9397   -4.9367 H         1 <1>         0.1422
     37 H6          3.7693    0.1147    1.8970 H         1 <1>         0.1363
     38 H7          6.4136   -2.4569   -0.3390 H         1 <1>         0.1379
     39 H8          6.0645    6.1532   -4.0606 H         1 <1>         0.1184
     40 H9          4.4366    3.2800   -6.8212 H         1 <1>         0.1349
     41 H10         7.6215    2.1780   -2.5950 H         1 <1>         0.0885
     42 H11         7.6032    0.5379   -3.2888 H         1 <1>         0.0854
     43 H12         6.4914    1.7588   -3.9061 H         1 <1>         0.0887
     44 H13        -1.9219   -0.4598    1.9743 H         1 <1>         0.0687
     45 H14        -3.0074    0.5411    0.9829 H         1 <1>         0.0859
     46 H15        -1.8258   -0.5570    0.2011 H         1 <1>         0.0856
     47 H16         6.7896    7.2354   -7.2127 H         1 <1>         0.0903
     48 H17         7.3444    6.5051   -5.6742 H         1 <1>         0.0911
     49 H18         5.8078    7.4081   -5.7344 H         1 <1>         0.1229
     50 H19         0.2492    0.1183   -0.3335 H         1 <1>         0.1460
     51 H20         1.0212    0.5007    1.2336 H         1 <1>         0.1546
@<TRIPOS>BOND
     1    1   11 1
     2    1   25 3
     3    2    3 ar
     4    2    4 ar
     5    3    7 ar
     6    4    8 ar
     7    5    9 ar
     8    5   13 ar
     9    6   10 ar
    10    6   13 ar
    11    7   15 ar
    12    8   15 ar
    13    9   16 ar
    14   10   16 ar
    15   11   14 ar
    16   11   19 ar
    17   12   14 ar
    18   12   17 1
    19   12   18 ar
    20   13   14 1
    21   15   28 1
    22   16   30 1
    23   17   21 1
    24   17   26 2
    25   18   27 ar
    26   18   28 1
    27   19   27 ar
    28   19   31 1
    29   20   22 1
    30   20   24 1
    31   20   29 2
    32   23   30 1
    33   24   31 1
    34   26   28 1
    35    2   32 1
    36    3   33 1
    37    4   34 1
    38    5   35 1
    39    6   36 1
    40    7   37 1
    41    8   38 1
    42    9   39 1
    43   10   40 1
    44   21   41 1
    45   21   42 1
    46   21   43 1
    47   22   44 1
    48   22   45 1
    49   22   46 1
    50   23   47 1
    51   23   48 1
    52   23   49 1
    53   24   50 1
    54   24   51 1
@<TRIPOS>Similarity
1.5336
@<TRIPOS>ShapeSim
0.9087
@<TRIPOS>PharmSim
0.6248
# END
# Name:		AG-219/34246010
# Created and modified by SHAFTS on Thu Dec 15 20:34:29 2011

# 

@<TRIPOS>MOLECULE
AG-219/34246010
   42    45     0
SMALL
USER_CHARGE


@<TRIPOS>ATOM
      1 C1          4.9564    5.0206   -5.5821 C.ar      1 <1>        -0.1027
      2 C2          5.7305    5.0332   -4.4218 C.ar      1 <1>        -0.0958
      3 C3          3.8562    4.1686   -5.6774 C.ar      1 <1>        -0.0988
      4 C4          5.7500   -3.3099    1.6751 C.ar      1 <1>        -0.0845
      5 C5          5.4043    4.1936   -3.3568 C.ar      1 <1>        -0.0727
      6 C6          3.5300    3.3290   -4.6123 C.ar      1 <1>        -0.0784
      7 C7          0.5214    3.2880   -0.2140 C.ar      1 <1>        -0.0499
      8 C8          0.4661    0.9449    0.3729 C.ar      1 <1>        -0.0505
      9 C9          5.8643   -2.3816    0.6404 C.ar      1 <1>        -0.0643
     10 C10         4.9578   -3.0214    2.7865 C.ar      1 <1>        -0.0466
     11 C11        -0.7404    3.4602    0.3550 C.ar      1 <1>        -0.0704
     12 C12        -0.7956    1.1172    0.9419 C.ar      1 <1>        -0.0709
     13 C13         4.3944   -0.8764    1.8283 C.ar      1 <1>        -0.0143
     14 C14         4.8567    1.5227   -1.8869 C.ar      1 <1>         0.0101
     15 C15         4.3041    3.3414   -3.4520 C.ar      1 <1>        -0.0301
     16 C16         1.1247    2.0302   -0.2051 C.ar      1 <1>         0.0175
     17 C17         5.1866   -1.1648    0.7170 C.ar      1 <1>        -0.0461
     18 C18         4.2801   -1.8047    2.8631 C.ar      1 <1>         0.0716
     19 C19        -1.3989    2.3749    0.9331 C.ar      1 <1>        -0.0381
     20 C20         3.9659    2.4709   -2.3470 C.ar      1 <1>        -0.0015
     21 C21         4.4174    0.7552   -0.8275 C.ar      1 <1>         0.0140
     22 C22         2.4271    1.8527   -0.7923 C.ar      1 <1>         0.0546
     23 N1          2.7384    2.6638   -1.8212 N.ar      1 <1>        -0.3479
     24 N2          3.2042    0.8939   -0.2536 N.ar      1 <1>        -0.3312
     25 N3          5.3023   -0.2298   -0.3244 N.pl3     1 <1>        -0.3283
     26 F1          3.5180   -1.5286    3.9295 F         1 <1>        -0.2622
     27 Br1        -3.1081    2.6078    1.7051 Br        1 <1>        -0.1073
     28 H1          5.2096    5.6757   -6.4106 H         1 <1>         0.1221
     29 H2          6.5862    5.6978   -4.3468 H         1 <1>         0.1201
     30 H3          3.2522    4.1593   -6.5800 H         1 <1>         0.1197
     31 H4          6.2771   -4.2577    1.6155 H         1 <1>         0.1409
     32 H5          6.0174    4.2152   -2.4589 H         1 <1>         0.1410
     33 H6          2.6691    2.6706   -4.7009 H         1 <1>         0.1280
     34 H7          1.0221    4.1437   -0.6607 H         1 <1>         0.1540
     35 H8          0.9236   -0.0414    0.3884 H         1 <1>         0.1523
     36 H9          6.4847   -2.6164   -0.2206 H         1 <1>         0.1288
     37 H10         4.8684   -3.7444    3.5920 H         1 <1>         0.1309
     38 H11        -1.1963    4.4469    0.3405 H         1 <1>         0.1373
     39 H12        -1.2952    0.2613    1.3881 H         1 <1>         0.1365
     40 H13         3.8621    0.0686    1.8990 H         1 <1>         0.1395
     41 H14         5.8378    1.3892   -2.3279 H         1 <1>         0.1411
     42 H15         6.1881   -0.2612   -0.8154 H         1 <1>         0.3320
@<TRIPOS>BOND
     1    1    2 ar
     2    1    3 ar
     3    2    5 ar
     4    3    6 ar
     5    4    9 ar
     6    4   10 ar
     7    5   15 ar
     8    6   15 ar
     9    7   11 ar
    10    7   16 ar
    11    8   12 ar
    12    8   16 ar
    13    9   17 ar
    14   10   18 ar
    15   11   19 ar
    16   12   19 ar
    17   13   17 ar
    18   13   18 ar
    19   14   20 ar
    20   14   21 ar
    21   15   20 1
    22   16   22 1
    23   17   25 1
    24   18   26 1
    25   19   27 1
    26   20   23 ar
    27   21   24 ar
    28   21   25 1
    29   22   23 ar
    30   22   24 ar
    31    1   28 1
    32    2   29 1
    33    3   30 1
    34    4   31 1
    35    5   32 1
    36    6   33 1
    37    7   34 1
    38    8   35 1
    39    9   36 1
    40   10   37 1
    41   11   38 1
    42   12   39 1
    43   13   40 1
    44   14   41 1
    45   25   42 1
@<TRIPOS>Similarity
1.5326
@<TRIPOS>ShapeSim
0.8476
@<TRIPOS>PharmSim
0.6850
# END
# Name:		AF-886/30571011
# Created and modified by SHAFTS on Thu Dec 15 20:34:29 2011

# 

@<TRIPOS>MOLECULE
AF-886/30571011
   46    49     0
SMALL
USER_CHARGE


@<TRIPOS>ATOM
      1 C1          5.3240    4.8943   -5.6639 C.ar      1 <1>        -0.0975
      2 C2          5.1337   -3.2257    2.9141 C.ar      1 <1>        -0.1040
      3 C3          4.3302   -2.1147    3.1701 C.ar      1 <1>        -0.0998
      4 C4          5.9606    4.9061   -4.4229 C.ar      1 <1>        -0.0934
      5 C5          4.1505    4.1609   -5.8389 C.ar      1 <1>        -0.0871
      6 C6          0.2773    0.9947   -0.2569 C.ar      1 <1>        -0.0557
      7 C7          0.6554    3.2903    0.3945 C.ar      1 <1>        -0.0586
      8 C8          5.7961   -3.3407    1.6920 C.ar      1 <1>        -0.0927
      9 C9          4.1890   -1.1187    2.2039 C.ar      1 <1>        -0.0654
     10 C10         5.4238    4.1843   -3.3568 C.ar      1 <1>        -0.0604
     11 C11         3.6136    3.4392   -4.7728 C.ar      1 <1>        -0.0505
     12 C12        -0.9199    0.9888    0.4587 C.ar      1 <1>        -0.0623
     13 C13        -0.5418    3.2843    1.1102 C.ar      1 <1>        -0.0644
     14 C14         1.0651    2.1454   -0.2890 C.ar      1 <1>        -0.0041
     15 C15         5.6549   -2.3447    0.7257 C.ar      1 <1>        -0.0711
     16 C16         4.8513   -1.2336    0.9817 C.ar      1 <1>        -0.0050
     17 C17         3.4145    1.3194   -0.8221 C.2       1 <1>         0.1221
     18 C18         4.2502    3.4508   -3.5317 C.ar      1 <1>        -0.0027
     19 C19        -1.3295    2.1336    1.1422 C.ar      1 <1>        -0.0128
     20 C20         2.2976    2.1518   -1.0259 C.2       1 <1>         0.0752
     21 C21         4.3195    1.7199   -1.7747 C.2       1 <1>         0.0510
     22 C22         6.3727   -2.4908   -0.5761 C.3       1 <1>        -0.0316
     23 N1          2.4746    3.0158   -2.0290 N.2       1 <1>        -0.2841
     24 N2          4.6968   -0.2207    0.0198 N.2       1 <1>        -0.2953
     25 N3          3.5666    0.3191    0.1279 N.2       1 <1>        -0.2660
     26 N4          3.7133    2.7287   -2.4639 N.pl3     1 <1>        -0.2517
     27 N5          5.5670    1.2935   -2.0698 N.pl3     1 <1>        -0.3560
     28 Cl1        -2.8059    2.1269    2.0265 Cl        1 <1>        -0.1408
     29 H1          5.7407    5.4574   -6.4938 H         1 <1>         0.1243
     30 H2          5.2434   -4.0017    3.6661 H         1 <1>         0.1180
     31 H3          3.8135   -2.0259    4.1213 H         1 <1>         0.1155
     32 H4          6.8737    5.4780   -4.2860 H         1 <1>         0.1315
     33 H5          3.6546    4.1535   -6.8052 H         1 <1>         0.1325
     34 H6          0.5820    0.0936   -0.7845 H         1 <1>         0.1495
     35 H7          1.2586    4.1951    0.3792 H         1 <1>         0.1447
     36 H8          6.4203   -4.2099    1.5025 H         1 <1>         0.1216
     37 H9          3.5603   -0.2568    2.4132 H         1 <1>         0.1317
     38 H10         5.9296    4.2026   -2.3944 H         1 <1>         0.1249
     39 H11         2.6979    2.8724   -4.9228 H         1 <1>         0.1423
     40 H12        -1.5236    0.0850    0.4749 H         1 <1>         0.1368
     41 H13        -0.8476    4.1833    1.6390 H         1 <1>         0.1359
     42 H14         5.7437   -3.0231   -1.2988 H         1 <1>         0.0599
     43 H15         6.6357   -1.5120   -0.9955 H         1 <1>         0.0572
     44 H16         7.3099   -3.0472   -0.4512 H         1 <1>         0.0568
     45 H17         6.0411    0.5644   -1.5176 H         1 <1>         0.3020
     46 H18         6.1396    1.7410   -2.8000 H         1 <1>         0.2799
@<TRIPOS>BOND
     1    1    4 ar
     2    1    5 ar
     3    2    3 ar
     4    2    8 ar
     5    3    9 ar
     6    4   10 ar
     7    5   11 ar
     8    6   12 ar
     9    6   14 ar
    10    7   13 ar
    11    7   14 ar
    12    8   15 ar
    13    9   16 ar
    14   10   18 ar
    15   11   18 ar
    16   12   19 ar
    17   13   19 ar
    18   14   20 1
    19   15   16 ar
    20   15   22 1
    21   16   24 1
    22   17   20 1
    23   17   21 2
    24   17   25 1
    25   18   26 1
    26   19   28 1
    27   20   23 2
    28   21   26 1
    29   21   27 1
    30   23   26 1
    31   24   25 2
    32    1   29 1
    33    2   30 1
    34    3   31 1
    35    4   32 1
    36    5   33 1
    37    6   34 1
    38    7   35 1
    39    8   36 1
    40    9   37 1
    41   10   38 1
    42   11   39 1
    43   12   40 1
    44   13   41 1
    45   22   42 1
    46   22   43 1
    47   22   44 1
    48   27   45 1
    49   27   46 1
@<TRIPOS>Similarity
1.5310
@<TRIPOS>ShapeSim
0.8723
@<TRIPOS>PharmSim
0.6588
# END
# Name:		AG-219/34246005
# Created and modified by SHAFTS on Thu Dec 15 20:34:29 2011

# 

@<TRIPOS>MOLECULE
AG-219/34246005
   46    49     0
SMALL
USER_CHARGE


@<TRIPOS>ATOM
      1 C1          5.0305    4.9001   -5.5011 C.ar      1 <1>        -0.1032
      2 C2          5.0010    3.5167   -5.6763 C.ar      1 <1>        -0.0993
      3 C3          4.7168    5.4528   -4.2594 C.ar      1 <1>        -0.0961
      4 C4          4.6577    2.6859   -4.6098 C.ar      1 <1>        -0.0785
      5 C5          4.3734    4.6219   -3.1929 C.ar      1 <1>        -0.0728
      6 C6          0.5321    3.2343   -0.1640 C.ar      1 <1>        -0.0499
      7 C7          0.4505    0.8947    0.4334 C.ar      1 <1>        -0.0508
      8 C8          5.8159   -2.4786    0.7652 C.ar      1 <1>        -0.0621
      9 C9          4.3483   -0.9552    1.9324 C.ar      1 <1>        -0.0636
     10 C10         5.6834   -3.4012    1.8028 C.ar      1 <1>        -0.0546
     11 C11         4.2158   -1.8778    2.9700 C.ar      1 <1>        -0.0624
     12 C12        -0.7332    3.4206    0.3927 C.ar      1 <1>        -0.0705
     13 C13        -0.8148    1.0810    0.9902 C.ar      1 <1>        -0.0713
     14 C14         4.8661    1.4223   -1.7894 C.ar      1 <1>         0.0096
     15 C15         4.3439    3.2384   -3.3680 C.ar      1 <1>        -0.0300
     16 C16         1.1239    1.9713   -0.1438 C.ar      1 <1>         0.0171
     17 C17         5.1485   -1.2555    0.8300 C.ar      1 <1>        -0.0526
     18 C18         4.8833   -3.1009    2.9052 C.ar      1 <1>        -0.0157
     19 C19        -1.4066    2.3440    0.9699 C.ar      1 <1>        -0.0384
     20 C20         3.9881    2.3763   -2.2620 C.ar      1 <1>        -0.0018
     21 C21         4.4105    0.6639   -0.7304 C.ar      1 <1>         0.0137
     22 C22         2.4298    1.7793   -0.7184 C.ar      1 <1>         0.0542
     23 C23         5.4641   -5.2319    3.7869 C.3       1 <1>         0.0217
     24 N1          2.7577    2.5826   -1.7483 N.ar      1 <1>        -0.3494
     25 N2          3.1935    0.8162   -0.1682 N.ar      1 <1>        -0.3300
     26 N3          5.2819   -0.3265   -0.2147 N.pl3     1 <1>        -0.3326
     27 O1          4.7540   -4.0013    3.9178 O.3       1 <1>        -0.4217
     28 Br1        -3.1205    2.5959    1.7254 Br        1 <1>        -0.1078
     29 H1          5.2995    5.5467   -6.3312 H         1 <1>         0.1216
     30 H2          5.2469    3.0861   -6.6425 H         1 <1>         0.1192
     31 H3          4.7409    6.5299   -4.1219 H         1 <1>         0.1198
     32 H4          4.6395    1.6092   -4.7623 H         1 <1>         0.1283
     33 H5          4.1319    5.0670   -2.2306 H         1 <1>         0.1408
     34 H6          1.0444    4.0834   -0.6103 H         1 <1>         0.1537
     35 H7          0.8989   -0.0955    0.4577 H         1 <1>         0.1518
     36 H8          6.4419   -2.7229   -0.0892 H         1 <1>         0.1342
     37 H9          3.8237   -0.0051    1.9931 H         1 <1>         0.1444
     38 H10         6.2059   -4.3523    1.7466 H         1 <1>         0.1326
     39 H11         3.5911   -1.6383    3.8262 H         1 <1>         0.1165
     40 H12        -1.1801    4.4113    0.3694 H         1 <1>         0.1369
     41 H13        -1.3260    0.2318    1.4359 H         1 <1>         0.1356
     42 H14         5.8499    1.2779   -2.2209 H         1 <1>         0.1359
     43 H15         5.2740   -5.8580    4.6622 H         1 <1>         0.0884
     44 H16         6.5341   -5.0284    3.6968 H         1 <1>         0.0880
     45 H17         5.1167   -5.7491    2.8895 H         1 <1>         0.1206
     46 H18         6.1718   -0.3682   -0.6976 H         1 <1>         0.3312
@<TRIPOS>BOND
     1    1    2 ar
     2    1    3 ar
     3    2    4 ar
     4    3    5 ar
     5    4   15 ar
     6    5   15 ar
     7    6   12 ar
     8    6   16 ar
     9    7   13 ar
    10    7   16 ar
    11    8   10 ar
    12    8   17 ar
    13    9   11 ar
    14    9   17 ar
    15   10   18 ar
    16   11   18 ar
    17   12   19 ar
    18   13   19 ar
    19   14   20 ar
    20   14   21 ar
    21   15   20 1
    22   16   22 1
    23   17   26 1
    24   18   27 1
    25   19   28 1
    26   20   24 ar
    27   21   25 ar
    28   21   26 1
    29   22   24 ar
    30   22   25 ar
    31   23   27 1
    32    1   29 1
    33    2   30 1
    34    3   31 1
    35    4   32 1
    36    5   33 1
    37    6   34 1
    38    7   35 1
    39    8   36 1
    40    9   37 1
    41   10   38 1
    42   11   39 1
    43   12   40 1
    44   13   41 1
    45   14   42 1
    46   23   43 1
    47   23   44 1
    48   23   45 1
    49   26   46 1
@<TRIPOS>Similarity
1.5262
@<TRIPOS>ShapeSim
0.8384
@<TRIPOS>PharmSim
0.6878
# END
# Name:		ZINC00453870
# Created and modified by SHAFTS on Thu Dec 15 20:34:29 2011

# 

@<TRIPOS>MOLECULE
ZINC00453870
   33    35     0
SMALL
USER_CHARGE


@<TRIPOS>ATOM
      1 C1         -1.2819    2.1398    1.0989 C.ar      1 <1>        -0.0999
      2 C2         -0.5516    0.9606    0.9518 C.ar      1 <1>        -0.0904
      3 C3         -0.8140    3.3253    0.5319 C.ar      1 <1>        -0.0910
      4 C4          0.6467    0.9669    0.2378 C.ar      1 <1>        -0.0519
      5 C5          0.3842    3.3316   -0.1821 C.ar      1 <1>        -0.0524
      6 C6          5.7165    0.0059   -0.8184 C.ar      1 <1>        -0.0257
      7 C7          4.3354    1.7048   -1.7677 C.ar      1 <1>         0.0335
      8 C8          5.5533    1.0136   -1.7691 C.ar      1 <1>         0.0621
      9 C9          1.1146    2.1524   -0.3291 C.ar      1 <1>         0.0024
     10 C10         4.6779   -0.2570    0.0686 C.ar      1 <1>        -0.0261
     11 C11         3.7233    2.7482   -2.4903 C.2       1 <1>         0.0076
     12 C12         3.3835    1.3416   -0.8277 C.ar      1 <1>         0.0592
     13 C13         4.8680   -1.3403    1.0817 C.3       1 <1>         0.0061
     14 C14         4.2800    3.5170   -3.6177 C.3       1 <1>         0.0071
     15 C15         6.6628    1.3026   -2.7250 C.3       1 <1>         0.3647
     16 N1          3.4840    0.3828    0.1094 N.ar      1 <1>        -0.3461
     17 N2          2.4911    3.0282   -2.0529 N.2       1 <1>        -0.2952
     18 N3          2.3124    2.1577   -1.0429 N.pl3     1 <1>        -0.2493
     19 F1          7.7586    0.5076   -2.5463 F         1 <1>        -0.1800
     20 F2          6.3118    1.1378   -4.0341 F         1 <1>        -0.1789
     21 F3          7.1192    2.5845   -2.6256 F         1 <1>        -0.1784
     22 H1         -2.2158    2.1352    1.6532 H         1 <1>         0.1215
     23 H2         -0.9163    0.0373    1.3920 H         1 <1>         0.1287
     24 H3         -1.3841    4.2428    0.6458 H         1 <1>         0.1278
     25 H4          1.2058    0.0405    0.1299 H         1 <1>         0.1371
     26 H5          0.7370    4.2624   -0.6195 H         1 <1>         0.1364
     27 H6          6.6408   -0.5635   -0.7729 H         1 <1>         0.1531
     28 H7          5.3060   -0.9286    1.9975 H         1 <1>         0.0868
     29 H8          3.9135   -1.8177    1.3326 H         1 <1>         0.0844
     30 H9          5.5291   -2.1267    0.6988 H         1 <1>         0.0838
     31 H10         4.0412    3.0399   -4.5833 H         1 <1>         0.0888
     32 H11         3.8894    4.5493   -3.6506 H         1 <1>         0.0876
     33 H12         5.3786    3.6109   -3.5551 H         1 <1>         0.0864
@<TRIPOS>BOND
     1    1    2 ar
     2    1    3 ar
     3    2    4 ar
     4    3    5 ar
     5    4    9 ar
     6    5    9 ar
     7    6    8 ar
     8    6   10 ar
     9    7    8 ar
    10    7   11 1
    11    7   12 ar
    12    8   15 1
    13    9   18 1
    14   10   13 1
    15   10   16 ar
    16   11   14 1
    17   11   17 2
    18   12   16 ar
    19   12   18 1
    20   15   19 1
    21   15   20 1
    22   15   21 1
    23   17   18 1
    24    1   22 1
    25    2   23 1
    26    3   24 1
    27    4   25 1
    28    5   26 1
    29    6   27 1
    30   13   28 1
    31   13   29 1
    32   13   30 1
    33   14   31 1
    34   14   32 1
    35   14   33 1
@<TRIPOS>Similarity
1.5257
@<TRIPOS>ShapeSim
0.7623
@<TRIPOS>PharmSim
0.7634
# END
# Name:		AJ-077/33272019
# Created and modified by SHAFTS on Thu Dec 15 20:34:29 2011

# 

@<TRIPOS>MOLECULE
AJ-077/33272019
   39    42     0
SMALL
USER_CHARGE


@<TRIPOS>ATOM
      1 C1          4.8114   -3.0366    2.9049 C.ar      1 <1>        -0.0955
      2 C2          4.1752   -1.8009    3.0224 C.ar      1 <1>        -0.0883
      3 C3          5.5301   -3.3440    1.7496 C.ar      1 <1>        -0.0865
      4 C4          3.9431    2.8615   -4.6109 C.ar      1 <1>        -0.0555
      5 C5          4.9518    4.4373   -3.0825 C.ar      1 <1>        -0.0552
      6 C6          4.2575   -0.8726    1.9845 C.ar      1 <1>        -0.0542
      7 C7          5.6125   -2.4157    0.7118 C.ar      1 <1>        -0.0504
      8 C8          4.3248    3.6616   -5.6878 C.ar      1 <1>        -0.0376
      9 C9          5.3338    5.2374   -4.1594 C.ar      1 <1>        -0.0374
     10 C10         4.2565    3.2494   -3.3083 C.ar      1 <1>        -0.0412
     11 C11         4.6335    1.3592   -1.6082 C.2       1 <1>         0.0340
     12 C12         4.9762   -1.1799    0.8292 C.ar      1 <1>         0.0054
     13 C13         5.0202    4.8495   -5.4620 C.ar      1 <1>         0.0701
     14 C14         5.8745    0.7702   -1.8696 C.2       1 <1>         0.0032
     15 C15         4.1246    0.6820   -0.5372 C.2       1 <1>         0.1322
     16 C16         2.6576    2.6411   -1.5827 C.2       1 <1>         0.0473
     17 C17         3.8519    2.4018   -2.1674 C.2       1 <1>        -0.0280
     18 C18         2.1797    1.8396   -0.4081 C.2       1 <1>         0.2159
     19 C19         6.8515    1.1064   -2.9187 C.3       1 <1>         0.0072
     20 N1          6.1448   -0.2216   -1.0092 N.2       1 <1>        -0.2937
     21 N2          5.0582   -0.2518   -0.2073 N.pl3     1 <1>        -0.2339
     22 N3          5.4089    5.6639   -6.5584 N.pl3     1 <1>        -0.0464
     23 O1          5.1170    5.2967   -7.7221 O.3       1 <1>        -0.1533
     24 O2          1.0834    2.0898    0.0872 O.2       1 <1>        -0.4129
     25 O3          6.0337    6.7287   -6.3334 O.2       1 <1>        -0.2438
     26 O4          2.9759    0.8458    0.0914 O.3       1 <1>        -0.2437
     27 H1          4.7491   -3.7590    3.7133 H         1 <1>         0.1278
     28 H2          3.6167   -1.5608    3.9223 H         1 <1>         0.1331
     29 H3          6.0265   -4.3059    1.6595 H         1 <1>         0.1325
     30 H4          3.4015    1.9383   -4.8028 H         1 <1>         0.1532
     31 H5          5.2033    4.7529   -2.0727 H         1 <1>         0.1542
     32 H6          3.7576    0.0873    2.0892 H         1 <1>         0.1345
     33 H7          6.1766   -2.6679   -0.1829 H         1 <1>         0.1432
     34 H8          4.0742    3.3476   -6.6982 H         1 <1>         0.1683
     35 H9          5.8752    6.1609   -3.9694 H         1 <1>         0.1685
     36 H10         1.9865    3.4192   -1.9358 H         1 <1>         0.1626
     37 H11         7.5694    1.8679   -2.5686 H         1 <1>         0.0913
     38 H12         7.4338    0.2259   -3.2444 H         1 <1>         0.0841
     39 H13         6.3666    1.5009   -3.8297 H         1 <1>         0.0887
@<TRIPOS>BOND
     1    1    2 ar
     2    1    3 ar
     3    2    6 ar
     4    3    7 ar
     5    4    8 ar
     6    4   10 ar
     7    5    9 ar
     8    5   10 ar
     9    6   12 ar
    10    7   12 ar
    11    8   13 ar
    12    9   13 ar
    13   10   17 1
    14   11   14 1
    15   11   15 2
    16   11   17 1
    17   12   21 1
    18   13   22 1
    19   14   19 1
    20   14   20 2
    21   15   21 1
    22   15   26 1
    23   16   17 2
    24   16   18 1
    25   18   24 2
    26   18   26 1
    27   20   21 1
    28   22   23 1
    29   22   25 2
    30    1   27 1
    31    2   28 1
    32    3   29 1
    33    4   30 1
    34    5   31 1
    35    6   32 1
    36    7   33 1
    37    8   34 1
    38    9   35 1
    39   16   36 1
    40   19   37 1
    41   19   38 1
    42   19   39 1
@<TRIPOS>Similarity
1.5232
@<TRIPOS>ShapeSim
0.8809
@<TRIPOS>PharmSim
0.6423
# END
# Name:		AO-081/13877153
# Created and modified by SHAFTS on Thu Dec 15 20:34:29 2011

# 

@<TRIPOS>MOLECULE
AO-081/13877153
   53    57     0
SMALL
USER_CHARGE


@<TRIPOS>ATOM
      1 C1         -1.2059    2.0288    1.1875 C.ar      1 <1>        -0.0998
      2 C2          1.7137    0.0168    6.5486 C.ar      1 <1>        -0.1011
      3 C3         -0.4629    0.8604    1.0194 C.ar      1 <1>        -0.0908
      4 C4         -0.7630    3.2244    0.6217 C.ar      1 <1>        -0.0897
      5 C5          3.0748   -0.2038    6.3381 C.ar      1 <1>        -0.0952
      6 C6          0.7696   -0.7805    5.9016 C.ar      1 <1>        -0.0952
      7 C7          5.1769    2.8922   -4.4437 C.ar      1 <1>        -0.0640
      8 C8          3.8682    4.8104   -3.7768 C.ar      1 <1>        -0.0626
      9 C9          5.9747   -2.1464    1.2662 C.ar      1 <1>        -0.0588
     10 C10         0.7232    0.8876    0.2857 C.ar      1 <1>        -0.0517
     11 C11         0.4229    3.2516   -0.1120 C.ar      1 <1>        -0.0500
     12 C12         3.4917   -1.2217    5.4803 C.ar      1 <1>        -0.0610
     13 C13         1.1865   -1.7984    5.0439 C.ar      1 <1>        -0.0610
     14 C14         6.1599   -3.1573    2.2092 C.ar      1 <1>        -0.0245
     15 C15         5.7006    3.6207   -5.5116 C.ar      1 <1>        -0.0738
     16 C16         4.3919    5.5390   -4.8448 C.ar      1 <1>        -0.0732
     17 C17         3.7642   -1.7291    2.1473 C.ar      1 <1>        -0.0261
     18 C18         4.3583    1.6967   -1.7748 C.2       1 <1>        -0.0134
     19 C19         4.2606    3.4870   -3.5763 C.ar      1 <1>        -0.0270
     20 C20         4.7768   -1.4323    1.2353 C.ar      1 <1>        -0.0203
     21 C21         1.1661    2.0832   -0.2800 C.ar      1 <1>         0.0048
     22 C22         2.5476   -2.0190    4.8333 C.ar      1 <1>         0.0087
     23 C23         3.9494   -2.7401    3.0905 C.ar      1 <1>         0.0722
     24 C24         5.1472   -3.4542    3.1213 C.ar      1 <1>         0.1195
     25 C25         5.3081    4.9441   -5.7122 C.ar      1 <1>        -0.0392
     26 C26         3.7209    2.7370   -2.4771 C.2       1 <1>         0.0158
     27 C27         3.4416    1.3091   -0.8283 C.2       1 <1>         0.0341
     28 C28         4.5821   -0.3655    0.2387 C.2       1 <1>         0.0063
     29 N1          2.4939    2.9940   -2.0161 N.2       1 <1>        -0.2990
     30 N2          3.4855    0.3606    0.1328 N.2       1 <1>        -0.3460
     31 N3          2.3530    2.1096   -1.0142 N.pl3     1 <1>        -0.2579
     32 O1          2.9611   -3.0287    3.9804 O.3       1 <1>        -0.3630
     33 F1          5.3317   -4.4255    4.0257 F         1 <1>        -0.2497
     34 Br1         6.0167    5.9306   -7.1600 Br        1 <1>        -0.1098
     35 H1         -2.1304    2.0079    1.7571 H         1 <1>         0.1220
     36 H2          1.3886    0.8090    7.2169 H         1 <1>         0.1229
     37 H3         -0.8082   -0.0708    1.4587 H         1 <1>         0.1270
     38 H4         -1.3430    4.1336    0.7518 H         1 <1>         0.1280
     39 H5          3.8101    0.4171    6.8416 H         1 <1>         0.1260
     40 H6         -0.2902   -0.6081    6.0662 H         1 <1>         0.1261
     41 H7          5.4928    1.8616   -4.3009 H         1 <1>         0.1398
     42 H8          3.1536    5.2881   -3.1101 H         1 <1>         0.1433
     43 H9          6.7703   -1.9232    0.5598 H         1 <1>         0.1524
     44 H10         1.2924   -0.0304    0.1617 H         1 <1>         0.1370
     45 H11         0.7563    4.1902   -0.5482 H         1 <1>         0.1413
     46 H12         4.5535   -1.3875    5.3195 H         1 <1>         0.1311
     47 H13         0.4465   -2.4152    4.5412 H         1 <1>         0.1311
     48 H14         7.0925   -3.7130    2.2341 H         1 <1>         0.1496
     49 H15         6.4124    3.1417   -6.1787 H         1 <1>         0.1381
     50 H16         4.0744    6.5687   -4.9882 H         1 <1>         0.1377
     51 H17         2.8287   -1.1752    2.1269 H         1 <1>         0.1438
     52 H18         5.3448    1.2827   -1.9292 H         1 <1>         0.1346
     53 H19         5.4212   -0.1773   -0.4577 H         1 <1>         0.2108
@<TRIPOS>BOND
     1    1    3 ar
     2    1    4 ar
     3    2    5 ar
     4    2    6 ar
     5    3   10 ar
     6    4   11 ar
     7    5   12 ar
     8    6   13 ar
     9    7   15 ar
    10    7   19 ar
    11    8   16 ar
    12    8   19 ar
    13    9   14 ar
    14    9   20 ar
    15   10   21 ar
    16   11   21 ar
    17   12   22 ar
    18   13   22 ar
    19   14   24 ar
    20   15   25 ar
    21   16   25 ar
    22   17   20 ar
    23   17   23 ar
    24   18   26 1
    25   18   27 2
    26   19   26 1
    27   20   28 1
    28   21   31 1
    29   22   32 1
    30   23   24 ar
    31   23   32 1
    32   24   33 1
    33   25   34 1
    34   26   29 2
    35   27   30 1
    36   27   31 1
    37   28   30 2
    38   29   31 1
    39    1   35 1
    40    2   36 1
    41    3   37 1
    42    4   38 1
    43    5   39 1
    44    6   40 1
    45    7   41 1
    46    8   42 1
    47    9   43 1
    48   10   44 1
    49   11   45 1
    50   12   46 1
    51   13   47 1
    52   14   48 1
    53   15   49 1
    54   16   50 1
    55   17   51 1
    56   18   52 1
    57   28   53 1
@<TRIPOS>Similarity
1.5215
@<TRIPOS>ShapeSim
0.7652
@<TRIPOS>PharmSim
0.7563
# END
# Name:		AO-081/13877152
# Created and modified by SHAFTS on Thu Dec 15 20:34:29 2011

# 

@<TRIPOS>MOLECULE
AO-081/13877152
   53    57     0
SMALL
USER_CHARGE


@<TRIPOS>ATOM
      1 C1         -1.2052    2.0298    1.1890 C.ar      1 <1>        -0.0999
      2 C2          1.7158    0.0171    6.5492 C.ar      1 <1>        -0.1011
      3 C3         -0.4625    0.8612    1.0207 C.ar      1 <1>        -0.0908
      4 C4         -0.7623    3.2253    0.6231 C.ar      1 <1>        -0.0898
      5 C5          3.0767   -0.2038    6.3382 C.ar      1 <1>        -0.0952
      6 C6          0.7712   -0.7801    5.9025 C.ar      1 <1>        -0.0952
      7 C7          5.1760    2.8917   -4.4442 C.ar      1 <1>        -0.0647
      8 C8          3.8686    4.8107   -3.7766 C.ar      1 <1>        -0.0634
      9 C9          5.9746   -2.1469    1.2653 C.ar      1 <1>        -0.0588
     10 C10         0.7233    0.8881    0.2866 C.ar      1 <1>        -0.0517
     11 C11         0.4235    3.2523   -0.1110 C.ar      1 <1>        -0.0501
     12 C12         3.4933   -1.2218    5.4803 C.ar      1 <1>        -0.0610
     13 C13         1.1878   -1.7981    5.0446 C.ar      1 <1>        -0.0610
     14 C14         6.1600   -3.1578    2.2083 C.ar      1 <1>        -0.0245
     15 C15         5.7002    3.6204   -5.5119 C.ar      1 <1>        -0.0660
     16 C16         4.3929    5.5393   -4.8442 C.ar      1 <1>        -0.0655
     17 C17         3.7645   -1.7293    2.1473 C.ar      1 <1>        -0.0261
     18 C18         4.3580    1.6965   -1.7752 C.2       1 <1>        -0.0137
     19 C19         4.2601    3.4869   -3.5766 C.ar      1 <1>        -0.0284
     20 C20         4.7769   -1.4325    1.2348 C.ar      1 <1>        -0.0203
     21 C21         1.1663    2.0836   -0.2792 C.ar      1 <1>         0.0047
     22 C22         2.5487   -2.0189    4.8335 C.ar      1 <1>         0.0087
     23 C23         3.9497   -2.7402    3.0902 C.ar      1 <1>         0.0721
     24 C24         5.1475   -3.4545    3.1207 C.ar      1 <1>         0.1195
     25 C25         5.3087    4.9441   -5.7119 C.ar      1 <1>        -0.0139
     26 C26         3.7206    2.7370   -2.4772 C.2       1 <1>         0.0144
     27 C27         3.4415    1.3092   -0.8284 C.2       1 <1>         0.0338
     28 C28         4.5821   -0.3658    0.2384 C.2       1 <1>         0.0063
     29 N1          2.4938    2.9942   -2.0158 N.2       1 <1>        -0.2996
     30 N2          3.4855    0.3606    0.1328 N.2       1 <1>        -0.3461
     31 N3          2.3530    2.1098   -1.0138 N.pl3     1 <1>        -0.2582
     32 O1          2.9617   -3.0287    3.9804 O.3       1 <1>        -0.3630
     33 F1          5.3320   -4.4260    4.0251 F         1 <1>        -0.2498
     34 Cl1         5.9540    5.8436   -7.0295 Cl        1 <1>        -0.1416
     35 H1         -2.1294    2.0090    1.7589 H         1 <1>         0.1219
     36 H2          1.3911    0.8093    7.2174 H         1 <1>         0.1229
     37 H3         -0.8079   -0.0701    1.4601 H         1 <1>         0.1270
     38 H4         -1.3420    4.1345    0.7534 H         1 <1>         0.1280
     39 H5          3.8124    0.4169    6.8415 H         1 <1>         0.1260
     40 H6         -0.2884   -0.6075    6.0674 H         1 <1>         0.1261
     41 H7          5.4919    1.8607   -4.3024 H         1 <1>         0.1407
     42 H8          3.1556    5.2887   -3.1088 H         1 <1>         0.1441
     43 H9          6.7700   -1.9238    0.5587 H         1 <1>         0.1524
     44 H10         1.2924   -0.0301    0.1624 H         1 <1>         0.1370
     45 H11         0.7569    4.1907   -0.5473 H         1 <1>         0.1411
     46 H12         4.5549   -1.3878    5.3191 H         1 <1>         0.1311
     47 H13         0.4475   -2.4147    4.5421 H         1 <1>         0.1311
     48 H14         7.0925   -3.7138    2.2328 H         1 <1>         0.1496
     49 H15         6.4129    3.1439   -6.1799 H         1 <1>         0.1365
     50 H16         4.0777    6.5696   -4.9884 H         1 <1>         0.1361
     51 H17         2.8290   -1.1751    2.1270 H         1 <1>         0.1438
     52 H18         5.3445    1.2824   -1.9299 H         1 <1>         0.1342
     53 H19         5.4210   -0.1776   -0.4584 H         1 <1>         0.2107
@<TRIPOS>BOND
     1    1    3 ar
     2    1    4 ar
     3    2    5 ar
     4    2    6 ar
     5    3   10 ar
     6    4   11 ar
     7    5   12 ar
     8    6   13 ar
     9    7   15 ar
    10    7   19 ar
    11    8   16 ar
    12    8   19 ar
    13    9   14 ar
    14    9   20 ar
    15   10   21 ar
    16   11   21 ar
    17   12   22 ar
    18   13   22 ar
    19   14   24 ar
    20   15   25 ar
    21   16   25 ar
    22   17   20 ar
    23   17   23 ar
    24   18   26 1
    25   18   27 2
    26   19   26 1
    27   20   28 1
    28   21   31 1
    29   22   32 1
    30   23   24 ar
    31   23   32 1
    32   24   33 1
    33   25   34 1
    34   26   29 2
    35   27   30 1
    36   27   31 1
    37   28   30 2
    38   29   31 1
    39    1   35 1
    40    2   36 1
    41    3   37 1
    42    4   38 1
    43    5   39 1
    44    6   40 1
    45    7   41 1
    46    8   42 1
    47    9   43 1
    48   10   44 1
    49   11   45 1
    50   12   46 1
    51   13   47 1
    52   14   48 1
    53   15   49 1
    54   16   50 1
    55   17   51 1
    56   18   52 1
    57   28   53 1
@<TRIPOS>Similarity
1.5167
@<TRIPOS>ShapeSim
0.7628
@<TRIPOS>PharmSim
0.7540
# END
# Name:		AO-638/40907341
# Created and modified by SHAFTS on Thu Dec 15 20:34:29 2011

# 

@<TRIPOS>MOLECULE
AO-638/40907341
   40    44     0
SMALL
USER_CHARGE


@<TRIPOS>ATOM
      1 C1          5.3520    4.9114   -5.7040 C.ar      1 <1>        -0.0998
      2 C2         -1.2670    2.0953    1.1444 C.ar      1 <1>        -0.0989
      3 C3          5.1933    3.5293   -5.8042 C.ar      1 <1>        -0.0939
      4 C4          4.9719    5.5743   -4.5370 C.ar      1 <1>        -0.0955
      5 C5         -0.5328    0.9193    0.9906 C.ar      1 <1>        -0.0892
      6 C6         -0.8068    3.2840    0.5778 C.ar      1 <1>        -0.0904
      7 C7          4.6543    2.8101   -4.7375 C.ar      1 <1>        -0.0723
      8 C8          4.4330    4.8551   -3.4703 C.ar      1 <1>        -0.0751
      9 C9          0.6616    0.9320    0.2704 C.ar      1 <1>        -0.0514
     10 C10         0.3877    3.2965   -0.1424 C.ar      1 <1>        -0.0524
     11 C11         5.5487    0.9976   -1.7513 C.ar      1 <1>        -0.0195
     12 C12         5.7223   -0.0190   -0.7975 C.ar      1 <1>         0.0529
     13 C13         4.3340    1.6880   -1.7496 C.ar      1 <1>         0.0513
     14 C14         4.2742    3.4729   -3.5705 C.ar      1 <1>        -0.0236
     15 C15         4.6718   -0.2962    0.1128 C.ar      1 <1>         0.0778
     16 C16         1.1219    2.1206   -0.2962 C.ar      1 <1>         0.0038
     17 C17         6.9185   -0.7527   -0.7434 C.ar      1 <1>         0.1663
     18 C18         4.8735   -1.3083    1.0453 C.ar      1 <1>         0.2061
     19 C19         7.0885   -1.7593    0.2023 C.ar      1 <1>         0.2037
     20 C20         6.0644   -2.0371    1.0976 C.ar      1 <1>         0.2169
     21 C21         3.7174    2.7304   -2.4687 C.2       1 <1>         0.0534
     22 C22         3.3914    1.3201   -0.8090 C.ar      1 <1>         0.0753
     23 N1          3.5007    0.3618    0.1226 N.ar      1 <1>        -0.3220
     24 N2          2.4862    3.0058   -2.0256 N.2       1 <1>        -0.2716
     25 N3          2.3159    2.1324   -1.0161 N.pl3     1 <1>        -0.2396
     26 F1          7.9166   -0.4948   -1.6022 F         1 <1>        -0.2265
     27 F2          3.9036   -1.6026    1.9252 F         1 <1>        -0.2156
     28 F3          8.2317   -2.4549    0.2481 F         1 <1>        -0.2353
     29 F4          6.2170   -3.0038    2.0122 F         1 <1>        -0.2218
     30 H1          5.7727    5.4715   -6.5341 H         1 <1>         0.1247
     31 H2         -2.1980    2.0856    1.7036 H         1 <1>         0.1226
     32 H3          5.4903    3.0128   -6.7121 H         1 <1>         0.1239
     33 H4          5.0968    6.6503   -4.4589 H         1 <1>         0.1245
     34 H5         -0.8917   -0.0066    1.4305 H         1 <1>         0.1299
     35 H6         -1.3798    4.1990    0.6967 H         1 <1>         0.1282
     36 H7          4.5369    1.7328   -4.8309 H         1 <1>         0.1349
     37 H8          4.1416    5.3867   -2.5675 H         1 <1>         0.1293
     38 H9          1.2238    0.0081    0.1574 H         1 <1>         0.1382
     39 H10         0.7345    4.2299   -0.5796 H         1 <1>         0.1368
     40 H11         6.3262    1.2439   -2.4683 H         1 <1>         0.1938
@<TRIPOS>BOND
     1    1    3 ar
     2    1    4 ar
     3    2    5 ar
     4    2    6 ar
     5    3    7 ar
     6    4    8 ar
     7    5    9 ar
     8    6   10 ar
     9    7   14 ar
    10    8   14 ar
    11    9   16 ar
    12   10   16 ar
    13   11   12 ar
    14   11   13 ar
    15   12   15 ar
    16   12   17 ar
    17   13   21 1
    18   13   22 ar
    19   14   21 1
    20   15   18 ar
    21   15   23 ar
    22   16   25 1
    23   17   19 ar
    24   17   26 1
    25   18   20 ar
    26   18   27 1
    27   19   20 ar
    28   19   28 1
    29   20   29 1
    30   21   24 2
    31   22   23 ar
    32   22   25 1
    33   24   25 1
    34    1   30 1
    35    2   31 1
    36    3   32 1
    37    4   33 1
    38    5   34 1
    39    6   35 1
    40    7   36 1
    41    8   37 1
    42    9   38 1
    43   10   39 1
    44   11   40 1
@<TRIPOS>Similarity
1.5166
@<TRIPOS>ShapeSim
0.8192
@<TRIPOS>PharmSim
0.6974
# END
# Name:		AE-842/31985041
# Created and modified by SHAFTS on Thu Dec 15 20:34:29 2011

# 

@<TRIPOS>MOLECULE
AE-842/31985041
   42    46     0
SMALL
USER_CHARGE


@<TRIPOS>ATOM
      1 C1          5.2305    5.0356   -5.9345 C.ar      1 <1>        -0.1026
      2 C2         -1.1873    1.9383    0.9326 C.ar      1 <1>        -0.1120
      3 C3          4.4077    3.9172   -6.0678 C.ar      1 <1>        -0.0965
      4 C4          5.5745    5.5011   -4.6654 C.ar      1 <1>        -0.0973
      5 C5         -0.5219    0.8303    0.4081 C.ar      1 <1>        -0.1041
      6 C6         -0.5922    3.1987    0.8800 C.ar      1 <1>        -0.1023
      7 C7          3.9288    3.2644   -4.9320 C.ar      1 <1>        -0.0739
      8 C8          5.0956    4.8484   -3.5296 C.ar      1 <1>        -0.0754
      9 C9          0.7389    0.9828   -0.1690 C.ar      1 <1>        -0.0635
     10 C10         0.6685    3.3513    0.3030 C.ar      1 <1>        -0.0607
     11 C11         4.2727    3.7299   -3.6629 C.ar      1 <1>        -0.0305
     12 C12         1.3340    2.2432   -0.2215 C.ar      1 <1>        -0.0349
     13 C13         3.7759    3.0528   -2.4848 C.2       1 <1>         0.0063
     14 C14         6.2035    0.5087   -0.8075 C.3       1 <1>        -0.0665
     15 C15         5.0600    0.1906    0.1968 C.3       1 <1>        -0.0628
     16 C16         4.5113   -0.5164   -2.0099 C.3       1 <1>        -0.0569
     17 C17         4.5207    1.9250   -1.8309 C.3       1 <1>         0.0103
     18 C18         5.4186    0.7242   -2.1294 C.3       1 <1>        -0.0522
     19 C19         3.8240   -0.0248   -0.7065 C.3       1 <1>        -0.0459
     20 C20         3.2461    1.2337   -1.3266 C.3       1 <1>        -0.0074
     21 N1          2.7238    3.3931   -1.7757 N.2       1 <1>        -0.3290
     22 N2          2.5822    2.3947   -0.7929 N.pl3     1 <1>        -0.3401
     23 H1          5.6034    5.5439   -6.8189 H         1 <1>         0.1217
     24 H2         -2.1690    1.8194    1.3822 H         1 <1>         0.1019
     25 H3          4.1398    3.5550   -7.0561 H         1 <1>         0.1200
     26 H4          6.2155    6.3718   -4.5616 H         1 <1>         0.1206
     27 H5         -0.9852   -0.1508    0.4492 H         1 <1>         0.1217
     28 H6         -1.1107    4.0614    1.2886 H         1 <1>         0.1213
     29 H7          3.2883    2.3938   -5.0474 H         1 <1>         0.1347
     30 H8          5.3700    5.2199   -2.5456 H         1 <1>         0.1316
     31 H9          1.2492    0.1132   -0.5748 H         1 <1>         0.1155
     32 H10         1.1223    4.3384    0.2674 H         1 <1>         0.1188
     33 H11         6.7934    1.3783   -0.5001 H         1 <1>         0.0504
     34 H12         6.8876   -0.3444   -0.8928 H         1 <1>         0.0450
     35 H13         5.3042   -0.7198    0.7549 H         1 <1>         0.0464
     36 H14         4.9012    1.0023    0.9140 H         1 <1>         0.0516
     37 H15         3.8349   -0.6354   -2.8637 H         1 <1>         0.0608
     38 H16         5.0618   -1.4549   -1.8746 H         1 <1>         0.0538
     39 H17         5.0251    2.5001   -1.0317 H         1 <1>         0.0826
     40 H18         6.0403    0.7895   -3.0222 H         1 <1>         0.0887
     41 H19         3.0774   -0.7042   -0.2916 H         1 <1>         0.0821
     42 H20         2.6059    0.9032   -2.1665 H         1 <1>         0.1283
@<TRIPOS>BOND
     1    1    3 ar
     2    1    4 ar
     3    2    5 ar
     4    2    6 ar
     5    3    7 ar
     6    4    8 ar
     7    5    9 ar
     8    6   10 ar
     9    7   11 ar
    10    8   11 ar
    11    9   12 ar
    12   10   12 ar
    13   11   13 1
    14   12   22 1
    15   13   17 1
    16   13   21 2
    17   14   15 1
    18   14   18 1
    19   15   19 1
    20   16   18 1
    21   16   19 1
    22   17   18 1
    23   17   20 1
    24   19   20 1
    25   20   22 1
    26   21   22 1
    27    1   23 1
    28    2   24 1
    29    3   25 1
    30    4   26 1
    31    5   27 1
    32    6   28 1
    33    7   29 1
    34    8   30 1
    35    9   31 1
    36   10   32 1
    37   14   33 1
    38   14   34 1
    39   15   35 1
    40   15   36 1
    41   16   37 1
    42   16   38 1
    43   17   39 1
    44   18   40 1
    45   19   41 1
    46   20   42 1
@<TRIPOS>Similarity
1.5156
@<TRIPOS>ShapeSim
0.7789
@<TRIPOS>PharmSim
0.7367
# END
# Name:		AG-205/33125019
# Created and modified by SHAFTS on Thu Dec 15 20:34:29 2011

# 

@<TRIPOS>MOLECULE
AG-205/33125019
   40    42     0
SMALL
USER_CHARGE


@<TRIPOS>ATOM
      1 C1          6.2900    1.2450   -2.4419 C.1       1 <1>         0.0763
      2 C2         -1.2704    2.1498    1.0918 C.ar      1 <1>        -0.1028
      3 C3         -0.3908    3.2323    1.0761 C.ar      1 <1>        -0.0988
      4 C4         -0.9026    0.9437    0.4955 C.ar      1 <1>        -0.0965
      5 C5          0.8564    3.1086    0.4642 C.ar      1 <1>        -0.0791
      6 C6          0.3447    0.8200   -0.1165 C.ar      1 <1>        -0.0748
      7 C7          3.7722    3.2488   -4.6721 C.ar      1 <1>        -0.0748
      8 C8          5.6357    4.0889   -3.3842 C.ar      1 <1>        -0.0734
      9 C9          4.1424    4.0653   -5.7406 C.ar      1 <1>        -0.0740
     10 C10         6.0060    4.9055   -4.4527 C.ar      1 <1>        -0.0737
     11 C11         2.8743    2.5906   -1.8261 C.ar      1 <1>        -0.0179
     12 C12         4.9855    1.4396   -1.8748 C.ar      1 <1>         0.1156
     13 C13         4.5189    3.2605   -3.4938 C.ar      1 <1>        -0.0514
     14 C14         1.2242    1.9025   -0.1322 C.ar      1 <1>        -0.0318
     15 C15         4.1347    2.4135   -2.3858 C.ar      1 <1>        -0.0054
     16 C16         5.2594    4.8937   -5.6308 C.ar      1 <1>        -0.0363
     17 C17         2.5152    1.7748   -0.7652 C.ar      1 <1>        -0.0025
     18 C18         4.5320    0.6754   -0.8117 C.ar      1 <1>         0.0588
     19 C19         4.5037   -3.5233    2.0657 C.2       1 <1>        -0.1272
     20 C20         5.0102   -2.2871    1.9928 C.2       1 <1>        -0.1221
     21 C21         4.3926   -1.1789    1.2020 C.3       1 <1>         0.0145
     22 N1          7.3445    1.0880   -2.9003 N.1       1 <1>        -0.3580
     23 N2          3.3145    0.8184   -0.2418 N.ar      1 <1>        -0.3596
     24 S1          5.5393   -0.6073   -0.0686 S.3       1 <1>        -0.1152
     25 Br1         5.7621    5.9997   -7.0785 Br        1 <1>        -0.1051
     26 H1         -2.2408    2.2459    1.5699 H         1 <1>         0.1220
     27 H2         -0.6764    4.1710    1.5419 H         1 <1>         0.1203
     28 H3         -1.5864    0.1000    0.5086 H         1 <1>         0.1194
     29 H4          1.5311    3.9616    0.4606 H         1 <1>         0.1297
     30 H5          0.6178   -0.1266   -0.5767 H         1 <1>         0.1381
     31 H6          2.8990    2.6086   -4.7727 H         1 <1>         0.1345
     32 H7          6.2284    4.1087   -2.4727 H         1 <1>         0.1410
     33 H8          3.5504    4.0438   -6.6519 H         1 <1>         0.1397
     34 H9          6.8788    5.5451   -4.3510 H         1 <1>         0.1403
     35 H10         2.1907    3.3448   -2.2065 H         1 <1>         0.1514
     36 H11         4.9833   -4.2997    2.6514 H         1 <1>         0.0919
     37 H12         3.5933   -3.7760    1.5333 H         1 <1>         0.0874
     38 H13         5.9375   -2.0768    2.5206 H         1 <1>         0.0992
     39 H14         4.1213   -0.3277    1.8348 H         1 <1>         0.0982
     40 H15         3.4800   -1.5393    0.7174 H         1 <1>         0.1020
@<TRIPOS>BOND
     1    1   12 1
     2    1   22 3
     3    2    3 ar
     4    2    4 ar
     5    3    5 ar
     6    4    6 ar
     7    5   14 ar
     8    6   14 ar
     9    7    9 ar
    10    7   13 ar
    11    8   10 ar
    12    8   13 ar
    13    9   16 ar
    14   10   16 ar
    15   11   15 ar
    16   11   17 ar
    17   12   15 ar
    18   12   18 ar
    19   13   15 1
    20   14   17 1
    21   16   25 1
    22   17   23 ar
    23   18   23 ar
    24   18   24 1
    25   19   20 2
    26   20   21 1
    27   21   24 1
    28    2   26 1
    29    3   27 1
    30    4   28 1
    31    5   29 1
    32    6   30 1
    33    7   31 1
    34    8   32 1
    35    9   33 1
    36   10   34 1
    37   11   35 1
    38   19   36 1
    39   19   37 1
    40   20   38 1
    41   21   39 1
    42   21   40 1
@<TRIPOS>Similarity
1.5118
@<TRIPOS>ShapeSim
0.9030
@<TRIPOS>PharmSim
0.6088
# END
# Name:		AG-664/14116010
# Created and modified by SHAFTS on Thu Dec 15 20:34:29 2011

# 

@<TRIPOS>MOLECULE
AG-664/14116010
   47    50     0
SMALL
USER_CHARGE


@<TRIPOS>ATOM
      1 C1          6.2416    1.1750   -2.3454 C.1       1 <1>         0.0683
      2 C2          5.2578    4.8294   -5.5626 C.ar      1 <1>        -0.1027
      3 C3         -1.3364    2.1521    1.1277 C.ar      1 <1>        -0.1037
      4 C4          4.9289    5.4044   -4.3351 C.ar      1 <1>        -0.0991
      5 C5          5.2031    3.4447   -5.7213 C.ar      1 <1>        -0.0996
      6 C6         -0.7190    3.2613    0.5497 C.ar      1 <1>        -0.0994
      7 C7         -0.7031    0.9095    1.1027 C.ar      1 <1>        -0.0969
      8 C8          4.5452    4.5945   -3.2662 C.ar      1 <1>        -0.0859
      9 C9          4.8196    2.6349   -4.6524 C.ar      1 <1>        -0.0875
     10 C10         0.5316    3.1280   -0.0535 C.ar      1 <1>        -0.0781
     11 C11         0.5475    0.7761    0.4995 C.ar      1 <1>        -0.0734
     12 C12         5.6141   -3.4226    1.8722 C.ar      1 <1>        -0.0996
     13 C13         4.1552   -1.8560    2.9925 C.ar      1 <1>        -0.0946
     14 C14         5.7844   -2.5158    0.8260 C.ar      1 <1>        -0.0725
     15 C15         4.3255   -0.9494    1.9461 C.ar      1 <1>        -0.0636
     16 C16         2.8299    2.5573   -1.7645 C.ar      1 <1>        -0.0229
     17 C17         4.9341    1.3930   -1.7961 C.ar      1 <1>         0.1321
     18 C18         4.4906    3.2097   -3.4248 C.ar      1 <1>        -0.0592
     19 C19         1.1649    1.8854   -0.0785 C.ar      1 <1>        -0.0286
     20 C20         4.0925    2.3701   -2.3159 C.ar      1 <1>        -0.0101
     21 C21         4.7995   -3.0927    2.9554 C.ar      1 <1>        -0.1175
     22 C22         5.1400   -1.2793    0.8630 C.ar      1 <1>        -0.0534
     23 C23         2.4593    1.7478   -0.7027 C.ar      1 <1>         0.0008
     24 C24         4.4694    0.6358   -0.7328 C.ar      1 <1>         0.0569
     25 C25         4.6165   -4.0615    4.0743 C.3       1 <1>        -0.0460
     26 N1          7.2991    0.9987   -2.7897 N.1       1 <1>        -0.3738
     27 N2          3.2494    0.7884   -0.1707 N.ar      1 <1>        -0.3383
     28 N3          5.3126   -0.3662   -0.1884 N.pl3     1 <1>        -0.3241
     29 H1          5.5549    5.4604   -6.3953 H         1 <1>         0.1213
     30 H2         -2.3094    2.2566    1.5988 H         1 <1>         0.1207
     31 H3          4.9697    6.4827   -4.2119 H         1 <1>         0.1213
     32 H4          5.4579    2.9965   -6.6772 H         1 <1>         0.1202
     33 H5         -1.2112    4.2292    0.5706 H         1 <1>         0.1189
     34 H6         -1.1826    0.0458    1.5538 H         1 <1>         0.1184
     35 H7          4.2915    5.0579   -2.3156 H         1 <1>         0.1295
     36 H8          4.7810    1.5570   -4.7911 H         1 <1>         0.1225
     37 H9          1.0000    4.0022   -0.4996 H         1 <1>         0.1302
     38 H10         1.0293   -0.1986    0.4882 H         1 <1>         0.1400
     39 H11         6.1190   -4.3840    1.8347 H         1 <1>         0.1212
     40 H12         3.5173   -1.5910    3.8313 H         1 <1>         0.1218
     41 H13         6.4202   -2.7835   -0.0139 H         1 <1>         0.1201
     42 H14         3.8181    0.0111    1.9850 H         1 <1>         0.1389
     43 H15         2.1536    3.3145   -2.1519 H         1 <1>         0.1394
     44 H16         5.3797   -3.9025    4.8460 H         1 <1>         0.0546
     45 H17         3.6267   -3.9542    4.5366 H         1 <1>         0.0523
     46 H18         4.6908   -5.0981    3.7199 H         1 <1>         0.0518
     47 H19         6.2098   -0.4290   -0.6538 H         1 <1>         0.3295
@<TRIPOS>BOND
     1    1   17 1
     2    1   26 3
     3    2    4 ar
     4    2    5 ar
     5    3    6 ar
     6    3    7 ar
     7    4    8 ar
     8    5    9 ar
     9    6   10 ar
    10    7   11 ar
    11    8   18 ar
    12    9   18 ar
    13   10   19 ar
    14   11   19 ar
    15   12   14 ar
    16   12   21 ar
    17   13   15 ar
    18   13   21 ar
    19   14   22 ar
    20   15   22 ar
    21   16   20 ar
    22   16   23 ar
    23   17   20 ar
    24   17   24 ar
    25   18   20 1
    26   19   23 1
    27   21   25 1
    28   22   28 1
    29   23   27 ar
    30   24   27 ar
    31   24   28 1
    32    2   29 1
    33    3   30 1
    34    4   31 1
    35    5   32 1
    36    6   33 1
    37    7   34 1
    38    8   35 1
    39    9   36 1
    40   10   37 1
    41   11   38 1
    42   12   39 1
    43   13   40 1
    44   14   41 1
    45   15   42 1
    46   16   43 1
    47   25   44 1
    48   25   45 1
    49   25   46 1
    50   28   47 1
@<TRIPOS>Similarity
1.5094
@<TRIPOS>ShapeSim
0.8937
@<TRIPOS>PharmSim
0.6157
# END
# Name:		AG-219/34246017
# Created and modified by SHAFTS on Thu Dec 15 20:34:29 2011

# 

@<TRIPOS>MOLECULE
AG-219/34246017
   41    44     0
SMALL
USER_CHARGE


@<TRIPOS>ATOM
      1 C1          4.8689    4.9912   -5.5020 C.ar      1 <1>        -0.1020
      2 C2          4.1264   -2.6370    2.8835 C.ar      1 <1>        -0.1007
      3 C3          4.2702    3.7552   -5.7454 C.ar      1 <1>        -0.0952
      4 C4          5.1905    5.3656   -4.1973 C.ar      1 <1>        -0.0980
      5 C5          3.8831   -3.0534    1.5747 C.ar      1 <1>        -0.0932
      6 C6          4.8023   -1.4400    3.1203 C.ar      1 <1>        -0.0939
      7 C7          3.9929    2.8935   -4.6842 C.ar      1 <1>        -0.0723
      8 C8          4.9132    4.5039   -3.1360 C.ar      1 <1>        -0.0774
      9 C9          0.1708    1.0867   -0.5507 C.ar      1 <1>        -0.0500
     10 C10         1.0818    2.6996    1.0003 C.ar      1 <1>        -0.0504
     11 C11         4.3161   -2.2731    0.5026 C.ar      1 <1>        -0.0549
     12 C12         5.2352   -0.6597    2.0483 C.ar      1 <1>        -0.0563
     13 C13        -1.0815    1.2168    0.0496 C.ar      1 <1>        -0.0700
     14 C14        -0.1705    2.8296    1.6006 C.ar      1 <1>        -0.0702
     15 C15         4.9518    1.4400   -1.8579 C.ar      1 <1>         0.0298
     16 C16         4.3144    3.2678   -3.3794 C.ar      1 <1>        -0.0281
     17 C17         1.2525    1.8281   -0.0754 C.ar      1 <1>         0.0175
     18 C18         4.9921   -1.0761    0.7394 C.ar      1 <1>         0.0292
     19 C19        -1.2522    2.0881    1.1252 C.ar      1 <1>        -0.0374
     20 C20         4.0269    2.3736   -2.2790 C.ar      1 <1>         0.0066
     21 C21         4.5590    0.6456   -0.8001 C.ar      1 <1>         0.0970
     22 C22         2.5448    1.6939   -0.6951 C.ar      1 <1>         0.0564
     23 N1          2.8095    2.5284   -1.7184 N.ar      1 <1>        -0.3418
     24 N2          3.3586    0.7458   -0.1926 N.ar      1 <1>        -0.3198
     25 O1          5.4223   -0.3042   -0.3214 O.3       1 <1>        -0.3210
     26 Br1        -2.9489    2.2655    1.9385 Br        1 <1>        -0.1063
     27 H1          5.0863    5.6612   -6.3286 H         1 <1>         0.1232
     28 H2          3.7889   -3.2441    3.7184 H         1 <1>         0.1218
     29 H3          4.0213    3.4629   -6.7613 H         1 <1>         0.1207
     30 H4          5.6580    6.3273   -4.0071 H         1 <1>         0.1207
     31 H5          3.3569   -3.9856    1.3901 H         1 <1>         0.1260
     32 H6          4.9912   -1.1164    4.1398 H         1 <1>         0.1245
     33 H7          3.5261    1.9331   -4.8903 H         1 <1>         0.1415
     34 H8          5.1701    4.8090   -2.1244 H         1 <1>         0.1307
     35 H9          0.2880    0.4032   -1.3885 H         1 <1>         0.1541
     36 H10         1.9150    3.2850    1.3817 H         1 <1>         0.1523
     37 H11         4.1248   -2.6038   -0.5145 H         1 <1>         0.1324
     38 H12         5.7630    0.2709    2.2388 H         1 <1>         0.1272
     39 H13        -1.9143    0.6323   -0.3333 H         1 <1>         0.1378
     40 H14        -0.2867    3.5129    2.4377 H         1 <1>         0.1370
     41 H15         5.9244    1.3313   -2.3229 H         1 <1>         0.1527
@<TRIPOS>BOND
     1    1    3 ar
     2    1    4 ar
     3    2    5 ar
     4    2    6 ar
     5    3    7 ar
     6    4    8 ar
     7    5   11 ar
     8    6   12 ar
     9    7   16 ar
    10    8   16 ar
    11    9   13 ar
    12    9   17 ar
    13   10   14 ar
    14   10   17 ar
    15   11   18 ar
    16   12   18 ar
    17   13   19 ar
    18   14   19 ar
    19   15   20 ar
    20   15   21 ar
    21   16   20 1
    22   17   22 1
    23   18   25 1
    24   19   26 1
    25   20   23 ar
    26   21   24 ar
    27   21   25 1
    28   22   23 ar
    29   22   24 ar
    30    1   27 1
    31    2   28 1
    32    3   29 1
    33    4   30 1
    34    5   31 1
    35    6   32 1
    36    7   33 1
    37    8   34 1
    38    9   35 1
    39   10   36 1
    40   11   37 1
    41   12   38 1
    42   13   39 1
    43   14   40 1
    44   15   41 1
@<TRIPOS>Similarity
1.5074
@<TRIPOS>ShapeSim
0.8137
@<TRIPOS>PharmSim
0.6937
# END
# Name:		AG-690/11481222
# Created and modified by SHAFTS on Thu Dec 15 20:34:29 2011

# 

@<TRIPOS>MOLECULE
AG-690/11481222
   39    41     0
SMALL
USER_CHARGE


@<TRIPOS>ATOM
      1 C1          6.2292    1.2096   -2.3748 C.1       1 <1>         0.0802
      2 C2         -1.3415    2.1686    1.1130 C.ar      1 <1>        -0.1028
      3 C3         -0.4589    3.2487    1.0984 C.ar      1 <1>        -0.0986
      4 C4         -0.9747    0.9602    0.5207 C.ar      1 <1>        -0.0963
      5 C5          0.7903    3.1205    0.4912 C.ar      1 <1>        -0.0782
      6 C6          0.2746    0.8320   -0.0865 C.ar      1 <1>        -0.0739
      7 C7          5.1182    4.4627   -3.2153 C.ar      1 <1>        -0.0740
      8 C8          4.2006    2.8521   -4.7648 C.ar      1 <1>        -0.0726
      9 C9          5.4980    5.2746   -4.2841 C.ar      1 <1>        -0.0738
     10 C10         4.5803    3.6640   -5.8336 C.ar      1 <1>        -0.0736
     11 C11         2.8148    2.5925   -1.7904 C.ar      1 <1>        -0.0200
     12 C12         4.9216    1.4331   -1.8327 C.ar      1 <1>         0.1493
     13 C13         4.4696    3.2515   -3.4556 C.ar      1 <1>        -0.0498
     14 C14         1.1571    1.9121   -0.1012 C.ar      1 <1>        -0.0299
     15 C15         4.0759    2.4096   -2.3470 C.ar      1 <1>        -0.0014
     16 C16         5.2289    4.8753   -5.5932 C.ar      1 <1>        -0.0364
     17 C17         2.4501    1.7797   -0.7292 C.ar      1 <1>        -0.0022
     18 C18         4.4627    0.6723   -0.7695 C.ar      1 <1>         0.1208
     19 C19         5.7239   -2.0721    1.3142 C.3       1 <1>        -0.0313
     20 C20         4.7135   -1.0395    0.8623 C.3       1 <1>         0.0317
     21 N1          7.2881    1.0287   -2.8138 N.1       1 <1>        -0.3655
     22 N2          3.2444    0.8209   -0.2026 N.ar      1 <1>        -0.3380
     23 O1          5.2582   -0.3035   -0.2259 O.3       1 <1>        -0.3621
     24 Br1         5.7422    5.9752   -7.0418 Br        1 <1>        -0.1053
     25 H1         -2.3134    2.2681    1.5873 H         1 <1>         0.1221
     26 H2         -0.7437    4.1891    1.5611 H         1 <1>         0.1203
     27 H3         -1.6607    0.1183    0.5329 H         1 <1>         0.1193
     28 H4          1.4672    3.9716    0.4883 H         1 <1>         0.1308
     29 H5          0.5468   -0.1164   -0.5437 H         1 <1>         0.1393
     30 H6          5.3350    4.7878   -2.2005 H         1 <1>         0.1353
     31 H7          3.6950    1.9112   -4.9684 H         1 <1>         0.1418
     32 H8          6.0020    6.2158   -4.0797 H         1 <1>         0.1396
     33 H9          4.3633    3.3382   -6.8475 H         1 <1>         0.1402
     34 H10         2.1352    3.3488   -2.1743 H         1 <1>         0.1462
     35 H11         5.9587   -2.7688    0.5046 H         1 <1>         0.0601
     36 H12         6.6492   -1.5884    1.6438 H         1 <1>         0.0478
     37 H13         5.3399   -2.6398    2.1683 H         1 <1>         0.0478
     38 H14         4.4831   -0.3460    1.6766 H         1 <1>         0.1065
     39 H15         3.7899   -1.5246    0.5325 H         1 <1>         0.1065
@<TRIPOS>BOND
     1    1   12 1
     2    1   21 3
     3    2    3 ar
     4    2    4 ar
     5    3    5 ar
     6    4    6 ar
     7    5   14 ar
     8    6   14 ar
     9    7    9 ar
    10    7   13 ar
    11    8   10 ar
    12    8   13 ar
    13    9   16 ar
    14   10   16 ar
    15   11   15 ar
    16   11   17 ar
    17   12   15 ar
    18   12   18 ar
    19   13   15 1
    20   14   17 1
    21   16   24 1
    22   17   22 ar
    23   18   22 ar
    24   18   23 1
    25   19   20 1
    26   20   23 1
    27    2   25 1
    28    3   26 1
    29    4   27 1
    30    5   28 1
    31    6   29 1
    32    7   30 1
    33    8   31 1
    34    9   32 1
    35   10   33 1
    36   11   34 1
    37   19   35 1
    38   19   36 1
    39   19   37 1
    40   20   38 1
    41   20   39 1
@<TRIPOS>Similarity
1.5052
@<TRIPOS>ShapeSim
0.8901
@<TRIPOS>PharmSim
0.6151
# END
# Name:		AO-476/15509074
# Created and modified by SHAFTS on Thu Dec 15 20:34:29 2011

# 

@<TRIPOS>MOLECULE
AO-476/15509074
   45    48     0
SMALL
USER_CHARGE


@<TRIPOS>ATOM
      1 C1          1.6912    3.6735   -2.2521 C.1       1 <1>         0.0874
      2 C2         -0.7141    1.4540    1.4377 C.1       1 <1>         0.0704
      3 C3          4.9777   -2.9567    2.6977 C.ar      1 <1>        -0.0985
      4 C4          4.2673   -1.7619    2.8140 C.ar      1 <1>        -0.0896
      5 C5          5.7483   -3.2022    1.5612 C.ar      1 <1>        -0.0893
      6 C6          5.0455    4.4744   -3.1839 C.ar      1 <1>        -0.0528
      7 C7          4.1322    2.8607   -4.7328 C.ar      1 <1>        -0.0534
      8 C8          4.3274   -0.8127    1.7937 C.ar      1 <1>        -0.0518
      9 C9          5.8083   -2.2530    0.5409 C.ar      1 <1>        -0.0511
     10 C10         5.5238    5.2306   -4.2539 C.ar      1 <1>        -0.0351
     11 C11         4.6106    3.6170   -5.8028 C.ar      1 <1>        -0.0351
     12 C12         2.5913    2.6768   -1.7490 C.ar      1 <1>         0.1705
     13 C13         4.6737    1.5113   -1.7637 C.ar      1 <1>         0.0509
     14 C14         4.3497    3.2894   -3.4233 C.ar      1 <1>        -0.0274
     15 C15         3.8546    2.5046   -2.3148 C.ar      1 <1>         0.0299
     16 C16         5.0979   -1.0582    0.6572 C.ar      1 <1>         0.0054
     17 C17         5.3064    4.8020   -5.5633 C.ar      1 <1>         0.0721
     18 C18         5.9628    0.9825   -1.9733 C.2       1 <1>         0.0139
     19 C19         4.1747    0.7736   -0.7014 C.ar      1 <1>         0.0722
     20 C20         2.2151    1.8661   -0.6832 C.ar      1 <1>         0.1505
     21 C21         6.9618    1.3827   -2.9810 C.3       1 <1>         0.0082
     22 C22         0.6413    1.1783    0.9617 C.3       1 <1>         0.1780
     23 N1          0.9629    4.4801   -2.6594 N.1       1 <1>        -0.3570
     24 N2         -1.7890    1.6721    1.8160 N.1       1 <1>        -0.3624
     25 N3          6.2626   -0.0046   -1.1225 N.2       1 <1>        -0.2913
     26 N4          2.9702    0.8940   -0.1165 N.ar      1 <1>        -0.3023
     27 N5          5.1576   -0.1088   -0.3623 N.pl3     1 <1>        -0.2420
     28 N6          5.7916    5.5736   -6.6518 N.pl3     1 <1>        -0.0459
     29 O1          6.4132    6.6373   -6.4139 O.3       1 <1>        -0.1530
     30 O2          5.5858    5.1708   -7.8223 O.2       1 <1>        -0.2446
     31 O3          0.9704    2.0340   -0.1232 O.3       1 <1>        -0.3036
     32 H1          4.9326   -3.6953    3.4926 H         1 <1>         0.1232
     33 H2          3.6684   -1.5700    3.6994 H         1 <1>         0.1296
     34 H3          6.3022   -4.1322    1.4721 H         1 <1>         0.1289
     35 H4          5.2230    4.8220   -2.1688 H         1 <1>         0.1567
     36 H5          3.5914    1.9393   -4.9356 H         1 <1>         0.1538
     37 H6          3.7695    0.1148    1.8973 H         1 <1>         0.1379
     38 H7          6.4134   -2.4568   -0.3392 H         1 <1>         0.1388
     39 H8          6.0651    6.1520   -4.0532 H         1 <1>         0.1708
     40 H9          4.4347    3.2715   -6.8185 H         1 <1>         0.1704
     41 H10         7.6212    2.1783   -2.5951 H         1 <1>         0.0909
     42 H11         7.6027    0.5382   -3.2890 H         1 <1>         0.0885
     43 H12         6.4909    1.7591   -3.9061 H         1 <1>         0.0834
     44 H13         1.3714    1.3502    1.7581 H         1 <1>         0.2022
     45 H14         0.7427    0.1409    0.6289 H         1 <1>         0.2013
@<TRIPOS>BOND
     1    1   12 1
     2    1   23 3
     3    2   22 1
     4    2   24 3
     5    3    4 ar
     6    3    5 ar
     7    4    8 ar
     8    5    9 ar
     9    6   10 ar
    10    6   14 ar
    11    7   11 ar
    12    7   14 ar
    13    8   16 ar
    14    9   16 ar
    15   10   17 ar
    16   11   17 ar
    17   12   15 ar
    18   12   20 ar
    19   13   15 ar
    20   13   18 1
    21   13   19 ar
    22   14   15 1
    23   16   27 1
    24   17   28 1
    25   18   21 1
    26   18   25 2
    27   19   26 ar
    28   19   27 1
    29   20   26 ar
    30   20   31 1
    31   22   31 1
    32   25   27 1
    33   28   29 1
    34   28   30 2
    35    3   32 1
    36    4   33 1
    37    5   34 1
    38    6   35 1
    39    7   36 1
    40    8   37 1
    41    9   38 1
    42   10   39 1
    43   11   40 1
    44   21   41 1
    45   21   42 1
    46   21   43 1
    47   22   44 1
    48   22   45 1
@<TRIPOS>Similarity
1.5041
@<TRIPOS>ShapeSim
0.9045
@<TRIPOS>PharmSim
0.5995
# END
# Name:		AG-690/40749446
# Created and modified by SHAFTS on Thu Dec 15 20:34:29 2011

# 

@<TRIPOS>MOLECULE
AG-690/40749446
   42    44     0
SMALL
USER_CHARGE


@<TRIPOS>ATOM
      1 C1          6.2898    1.2453   -2.4419 C.1       1 <1>         0.0761
      2 C2         -1.2705    2.1496    1.0920 C.ar      1 <1>        -0.1030
      3 C3         -0.3910    3.2322    1.0763 C.ar      1 <1>        -0.0990
      4 C4         -0.9026    0.9435    0.4958 C.ar      1 <1>        -0.0968
      5 C5          0.8563    3.1086    0.4642 C.ar      1 <1>        -0.0792
      6 C6          0.3447    0.8199   -0.1163 C.ar      1 <1>        -0.0749
      7 C7          5.1611    4.4752   -3.2536 C.ar      1 <1>        -0.0756
      8 C8          4.2468    2.8627   -4.8031 C.ar      1 <1>        -0.0742
      9 C9          5.5320    5.2917   -4.3220 C.ar      1 <1>        -0.0662
     10 C10         4.6175    3.6791   -5.8715 C.ar      1 <1>        -0.0660
     11 C11         2.8742    2.5906   -1.8260 C.ar      1 <1>        -0.0187
     12 C12         4.9854    1.4398   -1.8748 C.ar      1 <1>         0.1157
     13 C13         4.5186    3.2607   -3.4941 C.ar      1 <1>        -0.0529
     14 C14         1.2241    1.9024   -0.1320 C.ar      1 <1>        -0.0320
     15 C15         4.1345    2.4135   -2.3858 C.ar      1 <1>        -0.0068
     16 C16         5.2601    4.8937   -5.6309 C.ar      1 <1>        -0.0111
     17 C17         2.5151    1.7749   -0.7652 C.ar      1 <1>        -0.0021
     18 C18         4.5319    0.6756   -0.8117 C.ar      1 <1>         0.0580
     19 C19         3.3449   -2.0910    0.5762 C.3       1 <1>        -0.0520
     20 C20         5.1635   -1.8922    2.3065 C.3       1 <1>        -0.0503
     21 C21         4.3928   -1.1787    1.2022 C.3       1 <1>        -0.0098
     22 N1          7.3443    1.0882   -2.9003 N.1       1 <1>        -0.3588
     23 N2          3.3145    0.8185   -0.2417 N.ar      1 <1>        -0.3580
     24 S1          5.5394   -0.6070   -0.0685 S.3       1 <1>        -0.1256
     25 Cl1         5.7192    5.9009   -6.9488 Cl        1 <1>        -0.1373
     26 H1         -2.2409    2.2456    1.5701 H         1 <1>         0.1216
     27 H2         -0.6765    4.1709    1.5419 H         1 <1>         0.1200
     28 H3         -1.5863    0.0997    0.5089 H         1 <1>         0.1191
     29 H4          1.5309    3.9616    0.4605 H         1 <1>         0.1295
     30 H5          0.6179   -0.1267   -0.5765 H         1 <1>         0.1387
     31 H6          5.3801    4.7991   -2.2389 H         1 <1>         0.1352
     32 H7          3.7473    1.9184   -5.0069 H         1 <1>         0.1417
     33 H8          6.0337    6.2348   -4.1204 H         1 <1>         0.1380
     34 H9          4.4004    3.3558   -6.8865 H         1 <1>         0.1386
     35 H10         2.1904    3.3447   -2.2064 H         1 <1>         0.1505
     36 H11         3.8210   -2.9812    0.1500 H         1 <1>         0.0385
     37 H12         2.6193   -2.4351    1.3218 H         1 <1>         0.0424
     38 H13         2.7981   -1.5917   -0.2318 H         1 <1>         0.0516
     39 H14         5.6675   -2.7794    1.9069 H         1 <1>         0.0445
     40 H15         4.4943   -2.2300    3.1056 H         1 <1>         0.0536
     41 H16         5.9321   -1.2489    2.7500 H         1 <1>         0.0444
     42 H17         3.8974   -0.2965    1.6216 H         1 <1>         0.0923
@<TRIPOS>BOND
     1    1   12 1
     2    1   22 3
     3    2    3 ar
     4    2    4 ar
     5    3    5 ar
     6    4    6 ar
     7    5   14 ar
     8    6   14 ar
     9    7    9 ar
    10    7   13 ar
    11    8   10 ar
    12    8   13 ar
    13    9   16 ar
    14   10   16 ar
    15   11   15 ar
    16   11   17 ar
    17   12   15 ar
    18   12   18 ar
    19   13   15 1
    20   14   17 1
    21   16   25 1
    22   17   23 ar
    23   18   23 ar
    24   18   24 1
    25   19   21 1
    26   20   21 1
    27   21   24 1
    28    2   26 1
    29    3   27 1
    30    4   28 1
    31    5   29 1
    32    6   30 1
    33    7   31 1
    34    8   32 1
    35    9   33 1
    36   10   34 1
    37   11   35 1
    38   19   36 1
    39   19   37 1
    40   19   38 1
    41   20   39 1
    42   20   40 1
    43   20   41 1
    44   21   42 1
@<TRIPOS>Similarity
1.5030
@<TRIPOS>ShapeSim
0.8933
@<TRIPOS>PharmSim
0.6097
# END
# Name:		AO-476/43421045
# Created and modified by SHAFTS on Thu Dec 15 20:34:29 2011

# 

@<TRIPOS>MOLECULE
AO-476/43421045
   47    50     0
SMALL
USER_CHARGE


@<TRIPOS>ATOM
      1 C1          5.4471   -3.3731    2.8548 C.ar      1 <1>        -0.0961
      2 C2          5.4456   -3.6202    1.4820 C.ar      1 <1>        -0.0892
      3 C3          5.1505   -2.0971    3.3341 C.ar      1 <1>        -0.0869
      4 C4          5.1476   -2.5914    0.5885 C.ar      1 <1>        -0.0548
      5 C5          4.8525   -1.0683    2.4406 C.ar      1 <1>        -0.0513
      6 C6          4.6515    1.1773   -1.4065 C.ar      1 <1>         0.0149
      7 C7          3.3808    1.2479   -0.7281 C.ar      1 <1>         0.0855
      8 C8          4.8511   -1.3153    1.0678 C.ar      1 <1>        -0.0021
      9 C9          5.0606    1.9676   -2.4699 C.ar      1 <1>        -0.0053
     10 C10         5.3760    0.1882   -0.8071 C.2       1 <1>        -0.0136
     11 C11         2.4190    2.1847   -1.1329 C.ar      1 <1>         0.0953
     12 C12        -0.3904    3.7237    0.7683 C.3       1 <1>        -0.0474
     13 C13        -1.2031    1.6478   -0.3678 C.3       1 <1>        -0.0461
     14 C14         1.0520    3.2451    0.6054 C.3       1 <1>        -0.0202
     15 C15         0.2414    1.1735   -0.5315 C.3       1 <1>        -0.0195
     16 C16        -1.3986    2.5710    0.8395 C.3       1 <1>        -0.0678
     17 C17         6.3504    1.9424   -3.2038 C.3       1 <1>        -0.0012
     18 C18         6.7306   -0.3489   -1.0504 C.3       1 <1>         0.0036
     19 C19        -1.3094    1.8100    2.1639 C.3       1 <1>        -0.0710
     20 N1          3.3531    0.3244    0.2481 N.2       1 <1>        -0.2941
     21 N2          4.1080    2.8651   -2.8388 N.ar      1 <1>        -0.2981
     22 N3          2.8072    2.9694   -2.1779 N.ar      1 <1>        -0.2604
     23 N4          4.5528   -0.2863    0.1730 N.pl3     1 <1>        -0.2789
     24 N5          1.1639    2.3136   -0.5253 N.pl3     1 <1>        -0.3642
     25 H1          5.6773   -4.1741    3.5510 H         1 <1>         0.1273
     26 H2          5.6751   -4.6139    1.1087 H         1 <1>         0.1318
     27 H3          5.1505   -1.9059    4.4033 H         1 <1>         0.1312
     28 H4          5.1492   -2.7976   -0.4790 H         1 <1>         0.1360
     29 H5          4.6224   -0.0786    2.8278 H         1 <1>         0.1404
     30 H6         -0.4643    4.3340    1.6850 H         1 <1>         0.0512
     31 H7         -0.6449    4.3957   -0.0674 H         1 <1>         0.0589
     32 H8         -1.5212    2.1613   -1.2910 H         1 <1>         0.0525
     33 H9         -1.8612    0.7658   -0.2685 H         1 <1>         0.0600
     34 H10         1.7143    4.1057    0.4448 H         1 <1>         0.1230
     35 H11         1.3667    2.7534    1.5344 H         1 <1>         0.0972
     36 H12         0.4794    0.4863    0.2908 H         1 <1>         0.0992
     37 H13         0.3450    0.6137   -1.4706 H         1 <1>         0.1238
     38 H14        -2.4205    3.0073    0.7738 H         1 <1>         0.0504
     39 H15         6.2998    1.2496   -4.0559 H         1 <1>         0.0771
     40 H16         6.6179    2.9382   -3.5882 H         1 <1>         0.0733
     41 H17         7.1805    1.6259   -2.5544 H         1 <1>         0.0790
     42 H18         7.4840    0.1926   -0.4561 H         1 <1>         0.0884
     43 H19         6.8030   -1.4184   -0.7910 H         1 <1>         0.0792
     44 H20         7.0205   -0.2716   -2.1118 H         1 <1>         0.0921
     45 H21        -0.3210    1.3654    2.2688 H         1 <1>         0.0323
     46 H22        -2.0593    1.0208    2.1878 H         1 <1>         0.0334
     47 H23        -1.4834    2.4922    2.9947 H         1 <1>         0.0314
@<TRIPOS>BOND
     1    1    2 ar
     2    1    3 ar
     3    2    4 ar
     4    3    5 ar
     5    4    8 ar
     6    5    8 ar
     7    6    7 ar
     8    6    9 ar
     9    6   10 2
    10    7   11 ar
    11    7   20 2
    12    8   23 1
    13    9   17 1
    14    9   21 ar
    15   10   18 1
    16   10   23 1
    17   11   22 ar
    18   11   24 1
    19   12   14 1
    20   12   16 1
    21   13   15 1
    22   13   16 1
    23   14   24 1
    24   15   24 1
    25   16   19 1
    26   20   23 1
    27   21   22 ar
    28    1   25 1
    29    2   26 1
    30    3   27 1
    31    4   28 1
    32    5   29 1
    33   12   30 1
    34   12   31 1
    35   13   32 1
    36   13   33 1
    37   14   34 1
    38   14   35 1
    39   15   36 1
    40   15   37 1
    41   16   38 1
    42   17   39 1
    43   17   40 1
    44   17   41 1
    45   18   42 1
    46   18   43 1
    47   18   44 1
    48   19   45 1
    49   19   46 1
    50   19   47 1
@<TRIPOS>Similarity
1.5020
@<TRIPOS>ShapeSim
0.7788
@<TRIPOS>PharmSim
0.7232
# END
# Name:		AG-205/37022139
# Created and modified by SHAFTS on Thu Dec 15 20:34:29 2011

# 

@<TRIPOS>MOLECULE
AG-205/37022139
   35    37     0
SMALL
USER_CHARGE


@<TRIPOS>ATOM
      1 C1          5.3932   -3.1144    2.7454 C.1       1 <1>        -0.1809
      2 C2          4.9312   -2.2333    2.0732 C.1       1 <1>        -0.1956
      3 C3          6.2697    1.2742   -2.3737 C.1       1 <1>         0.0778
      4 C4         -0.9674    1.3930    0.6571 C.2       1 <1>        -0.1018
      5 C5          5.0997    4.4805   -3.2229 C.ar      1 <1>        -0.0752
      6 C6          4.2347    2.8424   -4.7739 C.ar      1 <1>        -0.0738
      7 C7          5.4718    5.2958   -4.2917 C.ar      1 <1>        -0.0657
      8 C8          4.6069    3.6577   -5.8427 C.ar      1 <1>        -0.0654
      9 C9          0.1833    0.8981   -0.0220 C.2       1 <1>        -0.0833
     10 C10         2.8243    2.5675   -1.8150 C.ar      1 <1>        -0.0108
     11 C11        -0.8193    2.7095    1.0344 C.2       1 <1>        -0.0420
     12 C12         4.9546    1.4512   -1.8260 C.ar      1 <1>         0.1187
     13 C13         4.4810    3.2537   -3.4640 C.ar      1 <1>        -0.0516
     14 C14         4.0955    2.4077   -2.3554 C.ar      1 <1>        -0.0027
     15 C15         5.2255    4.8845   -5.6015 C.ar      1 <1>        -0.0105
     16 C16         2.4634    1.7525   -0.7543 C.ar      1 <1>         0.0092
     17 C17         1.1671    1.8555   -0.1380 C.2       1 <1>         0.0148
     18 C18         4.4983    0.6861   -0.7647 C.ar      1 <1>         0.0691
     19 C19         4.3603   -1.1585    1.2580 C.3       1 <1>         0.0600
     20 N1          7.3329    1.1313   -2.8164 N.1       1 <1>        -0.3560
     21 N2          3.2705    0.8125   -0.2133 N.ar      1 <1>        -0.3517
     22 S1          0.7022    3.3436    0.5701 S.3       1 <1>        -0.1149
     23 S2          5.5154   -0.5764   -0.0002 S.3       1 <1>        -0.0850
     24 Cl1         5.6865    5.8904   -6.9198 Cl        1 <1>        -0.1366
     25 H1          5.8035   -3.8956    3.3414 H         1 <1>         0.2403
     26 H2         -1.8589    0.8134    0.8583 H         1 <1>         0.1168
     27 H3          5.2985    4.8149   -2.2076 H         1 <1>         0.1360
     28 H4          3.7542    1.8884   -4.9781 H         1 <1>         0.1424
     29 H5          5.9549    6.2486   -4.0896 H         1 <1>         0.1386
     30 H6          4.4098    3.3239   -6.8583 H         1 <1>         0.1393
     31 H7          0.2761   -0.1110   -0.4045 H         1 <1>         0.1355
     32 H8          2.1335    3.3076   -2.2098 H         1 <1>         0.1533
     33 H9         -1.5319    3.3295    1.5598 H         1 <1>         0.1736
     34 H10         4.0820   -0.3090    1.8891 H         1 <1>         0.1391
     35 H11         3.4534   -1.5072    0.7540 H         1 <1>         0.1391
@<TRIPOS>BOND
     1    1    2 3
     2    2   19 1
     3    3   12 1
     4    3   20 3
     5    4    9 1
     6    4   11 2
     7    5    7 ar
     8    5   13 ar
     9    6    8 ar
    10    6   13 ar
    11    7   15 ar
    12    8   15 ar
    13    9   17 2
    14   10   14 ar
    15   10   16 ar
    16   11   22 1
    17   12   14 ar
    18   12   18 ar
    19   13   14 1
    20   15   24 1
    21   16   17 1
    22   16   21 ar
    23   17   22 1
    24   18   21 ar
    25   18   23 1
    26   19   23 1
    27    1   25 1
    28    4   26 1
    29    5   27 1
    30    6   28 1
    31    7   29 1
    32    8   30 1
    33    9   31 1
    34   10   32 1
    35   11   33 1
    36   19   34 1
    37   19   35 1
@<TRIPOS>Similarity
1.5001
@<TRIPOS>ShapeSim
0.9144
@<TRIPOS>PharmSim
0.5858
# END
# Name:		AG-690/40082566
# Created and modified by SHAFTS on Thu Dec 15 20:34:29 2011

# 

@<TRIPOS>MOLECULE
AG-690/40082566
   45    48     0
SMALL
USER_CHARGE


@<TRIPOS>ATOM
      1 C1         -1.1905    2.0659    1.2186 C.ar      1 <1>        -0.1055
      2 C2          5.2998    4.9908   -5.7141 C.ar      1 <1>        -0.1001
      3 C3         -0.8353    0.9502    0.4607 C.ar      1 <1>        -0.0932
      4 C4         -0.3793    3.2007    1.2119 C.ar      1 <1>        -0.1008
      5 C5          5.6426    3.6460   -5.5739 C.ar      1 <1>        -0.0936
      6 C6          4.4274    5.5868   -4.8034 C.ar      1 <1>        -0.0902
      7 C7          0.3312    0.9692   -0.3040 C.ar      1 <1>        -0.0641
      8 C8          0.7871    3.2196    0.4473 C.ar      1 <1>        -0.0745
      9 C9          4.3633   -2.3280    3.3133 C.ar      1 <1>        -0.0957
     10 C10         5.7332   -3.5199    1.7197 C.ar      1 <1>        -0.1036
     11 C11         4.2930   -1.2421    2.4406 C.ar      1 <1>        -0.0688
     12 C12         5.6628   -2.4341    0.8470 C.ar      1 <1>        -0.0797
     13 C13         5.1129    2.8971   -4.5230 C.ar      1 <1>        -0.0582
     14 C14         3.8977    4.8379   -3.7526 C.ar      1 <1>        -0.0522
     15 C15         4.3228    1.6896   -1.9515 C.2       1 <1>         0.0059
     16 C16         1.1424    2.1039   -0.3108 C.ar      1 <1>        -0.0184
     17 C17         3.4487    1.2593   -0.9833 C.2       1 <1>         0.0272
     18 C18         5.0834   -3.4668    2.9528 C.ar      1 <1>        -0.1182
     19 C19         4.9427   -1.2952    1.2075 C.ar      1 <1>        -0.0488
     20 C20         4.2404    3.4931   -3.6124 C.ar      1 <1>        -0.0085
     21 C21         2.3434    2.1236   -1.0978 C.2       1 <1>         0.0351
     22 C22         3.6757    0.1646   -0.0879 C.2       1 <1>        -0.0084
     23 C23         5.1596   -4.6276    3.8862 C.3       1 <1>        -0.0452
     24 N1          2.4988    3.0342   -2.0626 N.2       1 <1>        -0.3046
     25 N2          4.8704   -0.2017    0.3278 N.2       1 <1>        -0.3869
     26 N3          3.7118    2.7445   -2.5630 N.pl3     1 <1>        -0.2848
     27 H1         -2.0992    2.0517    1.8132 H         1 <1>         0.1161
     28 H2          5.7133    5.5747   -6.5311 H         1 <1>         0.1206
     29 H3         -1.4673    0.0670    0.4647 H         1 <1>         0.1150
     30 H4         -0.6568    4.0697    1.8011 H         1 <1>         0.1137
     31 H5          6.3229    3.1821   -6.2820 H         1 <1>         0.1300
     32 H6          4.1620    6.6344   -4.9125 H         1 <1>         0.1298
     33 H7          0.5946    0.0914   -0.8896 H         1 <1>         0.1401
     34 H8          1.4087    4.1120    0.4527 H         1 <1>         0.1259
     35 H9          3.8544   -2.2779    4.2722 H         1 <1>         0.1218
     36 H10         6.2976   -4.4028    1.4313 H         1 <1>         0.1176
     37 H11         3.7301   -0.3583    2.7303 H         1 <1>         0.1318
     38 H12         6.1723   -2.4846   -0.1116 H         1 <1>         0.1148
     39 H13         5.3889    1.8500   -4.4247 H         1 <1>         0.1290
     40 H14         3.2193    5.3151   -3.0495 H         1 <1>         0.1411
     41 H15         5.3037    1.3400   -2.2468 H         1 <1>         0.2287
     42 H16         2.7880   -0.4190    0.2829 H         1 <1>         0.1992
     43 H17         4.3337   -5.3243    3.6976 H         1 <1>         0.0556
     44 H18         6.1064   -5.1710    3.7698 H         1 <1>         0.0530
     45 H19         5.1074   -4.3013    4.9331 H         1 <1>         0.0523
@<TRIPOS>BOND
     1    1    3 ar
     2    1    4 ar
     3    2    5 ar
     4    2    6 ar
     5    3    7 ar
     6    4    8 ar
     7    5   13 ar
     8    6   14 ar
     9    7   16 ar
    10    8   16 ar
    11    9   11 ar
    12    9   18 ar
    13   10   12 ar
    14   10   18 ar
    15   11   19 ar
    16   12   19 ar
    17   13   20 ar
    18   14   20 ar
    19   15   17 2
    20   15   26 1
    21   16   21 1
    22   17   21 1
    23   17   22 1
    24   18   23 1
    25   19   25 1
    26   20   26 1
    27   21   24 2
    28   22   25 2
    29   24   26 1
    30    1   27 1
    31    2   28 1
    32    3   29 1
    33    4   30 1
    34    5   31 1
    35    6   32 1
    36    7   33 1
    37    8   34 1
    38    9   35 1
    39   10   36 1
    40   11   37 1
    41   12   38 1
    42   13   39 1
    43   14   40 1
    44   15   41 1
    45   22   42 1
    46   23   43 1
    47   23   44 1
    48   23   45 1
@<TRIPOS>Similarity
1.4985
@<TRIPOS>ShapeSim
0.8394
@<TRIPOS>PharmSim
0.6591
# END
# Name:		AG-690/40749963
# Created and modified by SHAFTS on Thu Dec 15 20:34:29 2011

# 

@<TRIPOS>MOLECULE
AG-690/40749963
   48    50     0
SMALL
USER_CHARGE


@<TRIPOS>ATOM
      1 C1          6.2891    1.2436   -2.4405 C.1       1 <1>         0.0757
      2 C2          0.5833    3.1408   -0.0964 C.ar      1 <1>        -0.0736
      3 C3          0.6163    0.7868    0.4465 C.ar      1 <1>        -0.0780
      4 C4          5.1625    4.4766   -3.2559 C.ar      1 <1>        -0.0756
      5 C5          4.2478    2.8643   -4.8054 C.ar      1 <1>        -0.0743
      6 C6         -0.6642    3.2644    0.5152 C.ar      1 <1>        -0.0951
      7 C7         -0.6312    0.9104    1.0581 C.ar      1 <1>        -0.0975
      8 C8          5.5335    5.2930   -4.3243 C.ar      1 <1>        -0.0662
      9 C9          4.6187    3.6807   -5.8738 C.ar      1 <1>        -0.0660
     10 C10         2.8737    2.5898   -1.8246 C.ar      1 <1>        -0.0189
     11 C11         4.9848    1.4384   -1.8734 C.ar      1 <1>         0.1147
     12 C12         4.5197    3.2623   -3.4964 C.ar      1 <1>        -0.0529
     13 C13         1.2236    1.9020   -0.1307 C.ar      1 <1>        -0.0314
     14 C14         4.1341    2.4124   -2.3844 C.ar      1 <1>        -0.0072
     15 C15        -1.2714    2.1492    1.0925 C.ar      1 <1>        -0.1147
     16 C16         5.2616    4.8951   -5.6333 C.ar      1 <1>        -0.0111
     17 C17         2.5145    1.7741   -0.7638 C.ar      1 <1>        -0.0032
     18 C18         4.5311    0.6744   -0.8102 C.ar      1 <1>         0.0565
     19 C19        -2.6054    2.2813    1.7461 C.3       1 <1>        -0.0414
     20 C20         5.7748   -3.4424    1.5451 C.3       1 <1>        -0.0672
     21 C21         4.6951   -1.6858    2.9863 C.3       1 <1>        -0.0682
     22 C22         4.2137   -1.7246    0.4771 C.3       1 <1>         0.0011
     23 C23         4.5461   -2.5498    1.7322 C.3       1 <1>        -0.0632
     24 N1          7.3435    1.0861   -2.8989 N.1       1 <1>        -0.3592
     25 N2          3.3136    0.8176   -0.2403 N.ar      1 <1>        -0.3600
     26 S1          5.5233   -0.5893   -0.0781 S.3       1 <1>        -0.1231
     27 Cl1         5.7210    5.9023   -6.9511 Cl        1 <1>        -0.1374
     28 H1          1.0434    4.0193   -0.5424 H         1 <1>         0.1396
     29 H2          1.1029   -0.1855    0.4284 H         1 <1>         0.1309
     30 H3          5.3815    4.8006   -2.2412 H         1 <1>         0.1352
     31 H4          3.7482    1.9201   -5.0092 H         1 <1>         0.1416
     32 H5         -1.1563    4.2332    0.5364 H         1 <1>         0.1198
     33 H6         -1.0969    0.0364    1.5059 H         1 <1>         0.1207
     34 H7          6.0356    6.2360   -4.1227 H         1 <1>         0.1380
     35 H8          4.4016    3.3575   -6.8888 H         1 <1>         0.1386
     36 H9          2.1903    3.3440   -2.2051 H         1 <1>         0.1501
     37 H10        -3.4067    2.1022    1.0188 H         1 <1>         0.0589
     38 H11        -2.7178    1.5654    2.5708 H         1 <1>         0.0551
     39 H12        -2.7418    3.2829    2.1745 H         1 <1>         0.0550
     40 H13         6.6838   -2.8588    1.3684 H         1 <1>         0.0367
     41 H14         5.9439   -4.0524    2.4391 H         1 <1>         0.0394
     42 H15         5.6354   -4.1242    0.6996 H         1 <1>         0.0364
     43 H16         5.5321   -0.9851    2.9058 H         1 <1>         0.0356
     44 H17         4.8760   -2.3150    3.8647 H         1 <1>         0.0359
     45 H18         3.7826   -1.1098    3.1727 H         1 <1>         0.0348
     46 H19         3.9864   -2.3987   -0.3560 H         1 <1>         0.0887
     47 H20         3.3139   -1.1266    0.6586 H         1 <1>         0.0888
     48 H21         3.6894   -3.2159    1.9022 H         1 <1>         0.0576
@<TRIPOS>BOND
     1    1   11 1
     2    1   24 3
     3    2    6 ar
     4    2   13 ar
     5    3    7 ar
     6    3   13 ar
     7    4    8 ar
     8    4   12 ar
     9    5    9 ar
    10    5   12 ar
    11    6   15 ar
    12    7   15 ar
    13    8   16 ar
    14    9   16 ar
    15   10   14 ar
    16   10   17 ar
    17   11   14 ar
    18   11   18 ar
    19   12   14 1
    20   13   17 1
    21   15   19 1
    22   16   27 1
    23   17   25 ar
    24   18   25 ar
    25   18   26 1
    26   20   23 1
    27   21   23 1
    28   22   23 1
    29   22   26 1
    30    2   28 1
    31    3   29 1
    32    4   30 1
    33    5   31 1
    34    6   32 1
    35    7   33 1
    36    8   34 1
    37    9   35 1
    38   10   36 1
    39   19   37 1
    40   19   38 1
    41   19   39 1
    42   20   40 1
    43   20   41 1
    44   20   42 1
    45   21   43 1
    46   21   44 1
    47   21   45 1
    48   22   46 1
    49   22   47 1
    50   23   48 1
@<TRIPOS>Similarity
1.4973
@<TRIPOS>ShapeSim
0.9044
@<TRIPOS>PharmSim
0.5929
# END
# Name:		AK-968/11986551
# Created and modified by SHAFTS on Thu Dec 15 20:34:29 2011

# 

@<TRIPOS>MOLECULE
AK-968/11986551
   54    57     0
SMALL
USER_CHARGE


@<TRIPOS>ATOM
      1 C1          4.4943   -1.6143    3.1622 C.ar      1 <1>        -0.0902
      2 C2          4.4951   -3.0031    3.0327 C.ar      1 <1>        -0.0865
      3 C3          4.8963   -0.8139    2.0928 C.ar      1 <1>        -0.0761
      4 C4         -0.8729    1.2158   -0.0670 C.ar      1 <1>        -0.0886
      5 C5          0.1156    2.6824    1.5790 C.ar      1 <1>        -0.0957
      6 C6          4.2603    3.6627   -5.6381 C.ar      1 <1>        -0.0862
      7 C7          5.1924    5.2580   -4.0813 C.ar      1 <1>        -0.0867
      8 C8          0.1389    1.5457   -0.9686 C.ar      1 <1>        -0.0614
      9 C9          1.1275    3.0123    0.6773 C.ar      1 <1>        -0.0714
     10 C10         4.1139    2.7387   -4.6037 C.ar      1 <1>        -0.0576
     11 C11         5.0459    4.3339   -3.0468 C.ar      1 <1>        -0.0583
     12 C12         4.8980   -3.5916    1.8340 C.ar      1 <1>        -0.0402
     13 C13         5.2993   -1.4024    0.8941 C.ar      1 <1>        -0.0125
     14 C14        -0.8846    1.7842    1.2068 C.ar      1 <1>        -0.1109
     15 C15         4.7996    4.9224   -5.3770 C.ar      1 <1>        -0.1078
     16 C16         1.1392    2.4439   -0.5965 C.ar      1 <1>        -0.0299
     17 C17         4.5067    3.0742   -3.3080 C.ar      1 <1>        -0.0105
     18 C18         5.3000   -2.7912    0.7647 C.ar      1 <1>         0.0815
     19 C19         4.9423    0.3691   -0.7747 C.2       1 <1>         0.0973
     20 C20         5.3738    1.2133   -1.9196 C.2       1 <1>         0.1674
     21 C21         3.2086    2.0272   -1.4678 C.2       1 <1>         0.1121
     22 C22         5.7175   -0.5632   -0.2178 C.2       1 <1>        -0.0225
     23 C23        -3.1692    2.3666    2.0601 C.3       1 <1>        -0.0634
     24 C24         6.3112    5.7955   -7.1769 C.3       1 <1>        -0.0628
     25 C25        -1.9669    1.4326    2.1707 C.3       1 <1>        -0.0487
     26 C26         4.9562    5.9103   -6.4833 C.3       1 <1>        -0.0469
     27 N1          2.1599    2.7750   -1.5051 N.2       1 <1>        -0.3329
     28 N2          4.3556    2.1222   -2.2414 N.am      1 <1>        -0.2251
     29 O1          6.4493    1.0380   -2.4786 O.2       1 <1>        -0.4343
     30 F1          5.6846   -3.3721   -0.3814 F         1 <1>        -0.2554
     31 S1          3.3419    0.7436   -0.2929 S.3       1 <1>        -0.0309
     32 H1          4.1809   -1.1561    4.0961 H         1 <1>         0.1291
     33 H2          4.1821   -3.6265    3.8652 H         1 <1>         0.1405
     34 H3          4.8906    0.2670    2.2099 H         1 <1>         0.1451
     35 H4         -1.6485    0.5155   -0.3653 H         1 <1>         0.1270
     36 H5          0.1137    3.1310    2.5688 H         1 <1>         0.1245
     37 H6          3.9538    3.3920   -6.6451 H         1 <1>         0.1273
     38 H7          5.6142    6.2369   -3.8690 H         1 <1>         0.1271
     39 H8          0.1395    1.0984   -1.9594 H         1 <1>         0.1376
     40 H9          1.9027    3.7130    0.9761 H         1 <1>         0.1237
     41 H10         3.6921    1.7601   -4.8185 H         1 <1>         0.1349
     42 H11         5.3562    4.6055   -2.0409 H         1 <1>         0.1335
     43 H12         4.8987   -4.6729    1.7327 H         1 <1>         0.1370
     44 H13         6.7229   -0.6979   -0.5813 H         1 <1>         0.1921
     45 H14        -2.8719    3.4095    2.2141 H         1 <1>         0.0338
     46 H15        -3.9255    2.1153    2.8102 H         1 <1>         0.0364
     47 H16        -3.6344    2.2924    1.0712 H         1 <1>         0.0341
     48 H17         7.1308    5.9207   -6.4610 H         1 <1>         0.0343
     49 H18         6.4167    6.5625   -7.9504 H         1 <1>         0.0345
     50 H19         6.4272    4.8157   -7.6525 H         1 <1>         0.0370
     51 H20        -2.3014    0.3949    2.0108 H         1 <1>         0.0610
     52 H21        -1.5845    1.4591    3.2040 H         1 <1>         0.0612
     53 H22         4.1572    5.7798   -7.2307 H         1 <1>         0.0624
     54 H23         4.8330    6.9367   -6.1018 H         1 <1>         0.0623
@<TRIPOS>BOND
     1    1    2 ar
     2    1    3 ar
     3    2   12 ar
     4    3   13 ar
     5    4    8 ar
     6    4   14 ar
     7    5    9 ar
     8    5   14 ar
     9    6   10 ar
    10    6   15 ar
    11    7   11 ar
    12    7   15 ar
    13    8   16 ar
    14    9   16 ar
    15   10   17 ar
    16   11   17 ar
    17   12   18 ar
    18   13   18 ar
    19   13   22 1
    20   14   25 1
    21   15   26 1
    22   16   27 1
    23   17   28 1
    24   18   30 1
    25   19   20 1
    26   19   22 2
    27   19   31 1
    28   20   28 am
    29   20   29 2
    30   21   27 2
    31   21   28 1
    32   21   31 1
    33   23   25 1
    34   24   26 1
    35    1   32 1
    36    2   33 1
    37    3   34 1
    38    4   35 1
    39    5   36 1
    40    6   37 1
    41    7   38 1
    42    8   39 1
    43    9   40 1
    44   10   41 1
    45   11   42 1
    46   12   43 1
    47   22   44 1
    48   23   45 1
    49   23   46 1
    50   23   47 1
    51   24   48 1
    52   24   49 1
    53   24   50 1
    54   25   51 1
    55   25   52 1
    56   26   53 1
    57   26   54 1
@<TRIPOS>Similarity
1.4955
@<TRIPOS>ShapeSim
0.8876
@<TRIPOS>PharmSim
0.6079
# END
# Name:		AO-476/43421055
# Created and modified by SHAFTS on Thu Dec 15 20:34:29 2011

# 

@<TRIPOS>MOLECULE
AO-476/43421055
   44    47     0
SMALL
USER_CHARGE


@<TRIPOS>ATOM
      1 C1          5.4463   -3.6204    1.4829 C.ar      1 <1>        -0.0860
      2 C2          5.1493   -2.0963    3.3339 C.ar      1 <1>        -0.0890
      3 C3          5.1486   -2.5923    0.5886 C.ar      1 <1>        -0.0501
      4 C4          4.8517   -1.0681    2.4395 C.ar      1 <1>        -0.0544
      5 C5          4.6518    1.1775   -1.4066 C.ar      1 <1>         0.0151
      6 C6          5.4466   -3.3724    2.8556 C.ar      1 <1>        -0.1094
      7 C7          3.3808    1.2474   -0.7286 C.ar      1 <1>         0.0890
      8 C8          4.8513   -1.3161    1.0668 C.ar      1 <1>        -0.0018
      9 C9          5.0610    1.9684   -2.4695 C.ar      1 <1>        -0.0051
     10 C10         5.3765    0.1883   -0.8074 C.2       1 <1>        -0.0140
     11 C11         2.4189    2.1841   -1.1333 C.ar      1 <1>         0.0980
     12 C12        -0.9870    1.7817    0.3330 C.3       1 <1>        -0.0387
     13 C13        -0.7229    3.2552    0.5679 C.3       1 <1>        -0.0383
     14 C14         0.4130    1.2194    0.1148 C.3       1 <1>        -0.0256
     15 C15         0.3892    3.5607   -0.4290 C.3       1 <1>        -0.0231
     16 C16         5.7648   -4.4717    3.8119 C.3       1 <1>        -0.0402
     17 C17         6.3509    1.9439   -3.2031 C.3       1 <1>        -0.0011
     18 C18         6.7313   -0.3483   -1.0505 C.3       1 <1>         0.0033
     19 N1          3.3531    0.3234    0.2473 N.2       1 <1>        -0.2911
     20 N2          4.1081    2.8656   -2.8383 N.ar      1 <1>        -0.2970
     21 N3          2.8071    2.9693   -2.1777 N.ar      1 <1>        -0.2570
     22 N4          4.5532   -0.2869    0.1723 N.pl3     1 <1>        -0.2782
     23 N5          1.1568    2.3130   -0.5227 N.pl3     1 <1>        -0.3664
     24 H1          5.6768   -4.6118    1.1022 H         1 <1>         0.1318
     25 H2          5.1470   -1.8940    4.4017 H         1 <1>         0.1324
     26 H3          5.1511   -2.7992   -0.4790 H         1 <1>         0.1423
     27 H4          4.6216   -0.0784    2.8265 H         1 <1>         0.1378
     28 H5         -1.5055    1.3018    1.1675 H         1 <1>         0.0649
     29 H6         -1.5926    1.6481   -0.5714 H         1 <1>         0.0604
     30 H7         -1.6077    3.8784    0.4118 H         1 <1>         0.0589
     31 H8         -0.3659    3.4146    1.5926 H         1 <1>         0.0666
     32 H9          0.8845    0.9624    1.0700 H         1 <1>         0.0974
     33 H10         0.3834    0.3260   -0.5180 H         1 <1>         0.0967
     34 H11        -0.0255    3.8113   -1.4120 H         1 <1>         0.0988
     35 H12         1.0094    4.3944   -0.0832 H         1 <1>         0.1095
     36 H13         6.8429   -4.5041    4.0117 H         1 <1>         0.0605
     37 H14         5.2383   -4.3352    4.7655 H         1 <1>         0.0565
     38 H15         5.4551   -5.4473    3.4149 H         1 <1>         0.0567
     39 H16         6.3009    1.2514   -4.0554 H         1 <1>         0.0773
     40 H17         6.6184    2.9398   -3.5869 H         1 <1>         0.0792
     41 H18         7.1811    1.6273   -2.5535 H         1 <1>         0.0735
     42 H19         7.4842    0.1932   -0.4557 H         1 <1>         0.0882
     43 H20         6.8039   -1.4179   -0.7914 H         1 <1>         0.0916
     44 H21         7.0214   -0.2704   -2.1118 H         1 <1>         0.0801
@<TRIPOS>BOND
     1    1    3 ar
     2    1    6 ar
     3    2    4 ar
     4    2    6 ar
     5    3    8 ar
     6    4    8 ar
     7    5    7 ar
     8    5    9 ar
     9    5   10 2
    10    6   16 1
    11    7   11 ar
    12    7   19 2
    13    8   22 1
    14    9   17 1
    15    9   20 ar
    16   10   18 1
    17   10   22 1
    18   11   21 ar
    19   11   23 1
    20   12   13 1
    21   12   14 1
    22   13   15 1
    23   14   23 1
    24   15   23 1
    25   19   22 1
    26   20   21 ar
    27    1   24 1
    28    2   25 1
    29    3   26 1
    30    4   27 1
    31   12   28 1
    32   12   29 1
    33   13   30 1
    34   13   31 1
    35   14   32 1
    36   14   33 1
    37   15   34 1
    38   15   35 1
    39   16   36 1
    40   16   37 1
    41   16   38 1
    42   17   39 1
    43   17   40 1
    44   17   41 1
    45   18   42 1
    46   18   43 1
    47   18   44 1
@<TRIPOS>Similarity
1.4953
@<TRIPOS>ShapeSim
0.7645
@<TRIPOS>PharmSim
0.7309
# END
# Name:		AG-690/13705949
# Created and modified by SHAFTS on Thu Dec 15 20:34:29 2011

# 

@<TRIPOS>MOLECULE
AG-690/13705949
   62    66     0
SMALL
USER_CHARGE


@<TRIPOS>ATOM
      1 C1         -1.2246    2.0338    1.1833 C.ar      1 <1>        -0.1013
      2 C2         -0.4758    0.8699    1.0097 C.ar      1 <1>        -0.0910
      3 C3         -0.7900    3.2333    0.6192 C.ar      1 <1>        -0.0920
      4 C4          5.0600   -2.6113    0.6599 C.ar      1 <1>        -0.0673
      5 C5          4.7432   -0.9542    2.3892 C.ar      1 <1>        -0.0723
      6 C6          0.7076    0.9054    0.2722 C.ar      1 <1>        -0.0509
      7 C7          0.3933    3.2689   -0.1185 C.ar      1 <1>        -0.0521
      8 C8          5.1636   -3.6062    1.6321 C.ar      1 <1>        -0.0616
      9 C9          4.8467   -1.9491    3.3614 C.ar      1 <1>        -0.0654
     10 C10         6.5960    1.3613   -2.7508 C.ar      1 <1>        -0.0330
     11 C11         6.9985   -0.6759   -0.8682 C.ar      1 <1>        -0.0310
     12 C12         5.5833    1.0478   -1.8237 C.ar      1 <1>        -0.0465
     13 C13         5.7804    0.0223   -0.8727 C.ar      1 <1>        -0.0115
     14 C14         4.3434    1.7289   -1.7979 C.ar      1 <1>         0.0149
     15 C15         4.8499   -1.2854    1.0384 C.ar      1 <1>        -0.0183
     16 C16         1.1422    2.1048   -0.2919 C.ar      1 <1>         0.0037
     17 C17         5.0569   -3.2750    2.9828 C.ar      1 <1>        -0.0701
     18 C18         7.7980    0.6548   -2.7282 C.ar      1 <1>         0.0462
     19 C19         7.9984   -0.3593   -1.7912 C.ar      1 <1>         0.0446
     20 C20         4.7422   -0.2500    0.0266 C.ar      1 <1>         0.0166
     21 C21         3.6941    2.7699   -2.4971 C.2       1 <1>        -0.0004
     22 C22         3.4152    1.3412   -0.8437 C.ar      1 <1>         0.0526
     23 C23         5.1949    4.6513   -3.2000 C.3       1 <1>        -0.0494
     24 C24         5.3801   -5.6616    3.5832 C.3       1 <1>        -0.0354
     25 C25         5.0661   -3.9448    5.3728 C.3       1 <1>        -0.0354
     26 C26         8.4901    2.0130   -4.5535 C.3       1 <1>         0.0290
     27 C27         9.3016   -2.0723   -0.7797 C.3       1 <1>         0.0255
     28 C28         4.1955    3.5707   -3.6287 C.3       1 <1>        -0.0056
     29 N1          3.5424    0.3780    0.0842 N.ar      1 <1>        -0.3367
     30 N2          2.4664    3.0226   -2.0331 N.2       1 <1>        -0.3044
     31 N3          2.3252    2.1395   -1.0293 N.pl3     1 <1>        -0.2542
     32 N4          5.1616   -4.2808    3.9660 N.pl3     1 <1>        -0.4228
     33 O1          8.7723    0.9645   -3.6292 O.3       1 <1>        -0.4000
     34 O2          9.1726   -1.0511   -1.7665 O.3       1 <1>        -0.4066
     35 H1         -2.1469    2.0065    1.7560 H         1 <1>         0.1196
     36 H2         -0.8147   -0.0644    1.4477 H         1 <1>         0.1269
     37 H3         -1.3745    4.1390    0.7536 H         1 <1>         0.1260
     38 H4          5.1452   -2.8853   -0.3890 H         1 <1>         0.1421
     39 H5          4.5795    0.0749    2.7000 H         1 <1>         0.1363
     40 H6          1.2814   -0.0093    0.1438 H         1 <1>         0.1378
     41 H7          0.7200    4.2103   -0.5534 H         1 <1>         0.1358
     42 H8          5.3273   -4.6365    1.3263 H         1 <1>         0.1168
     43 H9          4.7622   -1.6797    4.4112 H         1 <1>         0.1163
     44 H10         6.4620    2.1468   -3.4884 H         1 <1>         0.1364
     45 H11         7.1920   -1.4712   -0.1519 H         1 <1>         0.1457
     46 H12         4.7528    5.3107   -2.4453 H         1 <1>         0.0453
     47 H13         5.5036    5.2679   -4.0500 H         1 <1>         0.0382
     48 H14         6.0927    4.1983   -2.7658 H         1 <1>         0.0402
     49 H15         5.4343   -6.2941    4.4731 H         1 <1>         0.0799
     50 H16         6.3167   -5.7559    3.0269 H         1 <1>         0.0925
     51 H17         4.5600   -6.0128    2.9511 H         1 <1>         0.0938
     52 H18         5.1694   -4.8463    5.9822 H         1 <1>         0.0801
     53 H19         4.0976   -3.4847    5.5865 H         1 <1>         0.0924
     54 H20         5.8566   -3.2414    5.6480 H         1 <1>         0.0940
     55 H21         9.3483    2.1582   -5.2142 H         1 <1>         0.1249
     56 H22         8.2780    2.9350   -4.0064 H         1 <1>         0.0914
     57 H23         7.6171    1.7363   -5.1494 H         1 <1>         0.0908
     58 H24        10.2829   -2.5447   -0.8692 H         1 <1>         0.0889
     59 H25         8.5131   -2.8163   -0.9187 H         1 <1>         0.0896
     60 H26         9.2051   -1.6230    0.2115 H         1 <1>         0.1232
     61 H27         4.6827    2.9293   -4.3896 H         1 <1>         0.0895
     62 H28         3.3642    4.0624   -4.1719 H         1 <1>         0.0877
@<TRIPOS>BOND
     1    1    2 ar
     2    1    3 ar
     3    2    6 ar
     4    3    7 ar
     5    4    8 ar
     6    4   15 ar
     7    5    9 ar
     8    5   15 ar
     9    6   16 ar
    10    7   16 ar
    11    8   17 ar
    12    9   17 ar
    13   10   12 ar
    14   10   18 ar
    15   11   13 ar
    16   11   19 ar
    17   12   13 ar
    18   12   14 ar
    19   13   20 ar
    20   14   21 1
    21   14   22 ar
    22   15   20 1
    23   16   31 1
    24   17   32 1
    25   18   19 ar
    26   18   33 1
    27   19   34 1
    28   20   29 ar
    29   21   28 1
    30   21   30 2
    31   22   29 ar
    32   22   31 1
    33   23   28 1
    34   24   32 1
    35   25   32 1
    36   26   33 1
    37   27   34 1
    38   30   31 1
    39    1   35 1
    40    2   36 1
    41    3   37 1
    42    4   38 1
    43    5   39 1
    44    6   40 1
    45    7   41 1
    46    8   42 1
    47    9   43 1
    48   10   44 1
    49   11   45 1
    50   23   46 1
    51   23   47 1
    52   23   48 1
    53   24   49 1
    54   24   50 1
    55   24   51 1
    56   25   52 1
    57   25   53 1
    58   25   54 1
    59   26   55 1
    60   26   56 1
    61   26   57 1
    62   27   58 1
    63   27   59 1
    64   27   60 1
    65   28   61 1
    66   28   62 1
@<TRIPOS>Similarity
1.4950
@<TRIPOS>ShapeSim
0.7796
@<TRIPOS>PharmSim
0.7154
# END
# Name:		AO-476/43250043
# Created and modified by SHAFTS on Thu Dec 15 20:34:29 2011

# 

@<TRIPOS>MOLECULE
AO-476/43250043
   41    44     0
SMALL
USER_CHARGE


@<TRIPOS>ATOM
      1 C1          5.1478   -2.5917    0.5885 C.ar      1 <1>        -0.0431
      2 C2          4.8522   -1.0683    2.4403 C.ar      1 <1>        -0.0381
      3 C3          5.4459   -3.6202    1.4823 C.ar      1 <1>        -0.0572
      4 C4          5.1502   -2.0969    3.3341 C.ar      1 <1>        -0.0537
      5 C5          4.6516    1.1774   -1.4065 C.ar      1 <1>         0.0189
      6 C6          3.3808    1.2477   -0.7283 C.ar      1 <1>         0.0826
      7 C7          4.8510   -1.3156    1.0675 C.ar      1 <1>         0.0062
      8 C8          5.4471   -3.3728    2.8550 C.ar      1 <1>        -0.0046
      9 C9          5.0608    1.9679   -2.4697 C.ar      1 <1>        -0.0008
     10 C10         5.3761    0.1882   -0.8072 C.2       1 <1>        -0.0112
     11 C11         2.4190    2.1845   -1.1331 C.ar      1 <1>         0.1003
     12 C12        -0.9868    1.7833    0.3338 C.3       1 <1>        -0.0441
     13 C13        -0.7224    3.2567    0.5683 C.3       1 <1>        -0.0458
     14 C14         0.4130    1.2206    0.1155 C.3       1 <1>        -0.0197
     15 C15         0.3896    3.5618   -0.4289 C.3       1 <1>        -0.0183
     16 C16         6.3506    1.9429   -3.2034 C.3       1 <1>         0.0051
     17 C17         6.7309   -0.3487   -1.0503 C.3       1 <1>         0.0056
     18 N1          3.3530    0.3240    0.2478 N.2       1 <1>        -0.2872
     19 N2          4.1081    2.8652   -2.8386 N.ar      1 <1>        -0.2949
     20 N3          2.8072    2.9694   -2.1778 N.ar      1 <1>        -0.2571
     21 N4          4.5529   -0.2865    0.1728 N.pl3     1 <1>        -0.2729
     22 N5          1.1570    2.3138   -0.5224 N.pl3     1 <1>        -0.3572
     23 Cl1         5.8123   -4.6427    3.9576 Cl        1 <1>        -0.1319
     24 H1          5.1503   -2.7986   -0.4789 H         1 <1>         0.1483
     25 H2          4.6222   -0.0784    2.8271 H         1 <1>         0.1549
     26 H3          5.6758   -4.6097    1.0952 H         1 <1>         0.1488
     27 H4          5.1477   -1.8895    4.4012 H         1 <1>         0.1486
     28 H5         -1.5053    1.3037    1.1685 H         1 <1>         0.0605
     29 H6         -1.5926    1.6495   -0.5705 H         1 <1>         0.0606
     30 H7         -1.6070    3.8802    0.4121 H         1 <1>         0.0531
     31 H8         -0.3652    3.4164    1.5928 H         1 <1>         0.0568
     32 H9          0.8846    0.9638    1.0708 H         1 <1>         0.1050
     33 H10         0.3832    0.3270   -0.5170 H         1 <1>         0.0769
     34 H11        -0.0251    3.8122   -1.4119 H         1 <1>         0.0963
     35 H12         1.0101    4.3954   -0.0835 H         1 <1>         0.0988
     36 H13         6.3003    1.2502   -4.0556 H         1 <1>         0.0831
     37 H14         6.6182    2.9387   -3.5876 H         1 <1>         0.0832
     38 H15         7.1808    1.6264   -2.5539 H         1 <1>         0.0778
     39 H16         7.4840    0.1928   -0.4558 H         1 <1>         0.0911
     40 H17         6.8033   -1.4182   -0.7910 H         1 <1>         0.0933
     41 H18         7.0208   -0.2712   -2.1117 H         1 <1>         0.0819
@<TRIPOS>BOND
     1    1    3 ar
     2    1    7 ar
     3    2    4 ar
     4    2    7 ar
     5    3    8 ar
     6    4    8 ar
     7    5    6 ar
     8    5    9 ar
     9    5   10 2
    10    6   11 ar
    11    6   18 2
    12    7   21 1
    13    8   23 1
    14    9   16 1
    15    9   19 ar
    16   10   17 1
    17   10   21 1
    18   11   20 ar
    19   11   22 1
    20   12   13 1
    21   12   14 1
    22   13   15 1
    23   14   22 1
    24   15   22 1
    25   18   21 1
    26   19   20 ar
    27    1   24 1
    28    2   25 1
    29    3   26 1
    30    4   27 1
    31   12   28 1
    32   12   29 1
    33   13   30 1
    34   13   31 1
    35   14   32 1
    36   14   33 1
    37   15   34 1
    38   15   35 1
    39   16   36 1
    40   16   37 1
    41   16   38 1
    42   17   39 1
    43   17   40 1
    44   17   41 1
@<TRIPOS>Similarity
1.4943
@<TRIPOS>ShapeSim
0.7635
@<TRIPOS>PharmSim
0.7308
# END
# Name:		AK-968/11841141
# Created and modified by SHAFTS on Thu Dec 15 20:34:29 2011

# 

@<TRIPOS>MOLECULE
AK-968/11841141
   62    65     0
SMALL
USER_CHARGE


@<TRIPOS>ATOM
      1 C1          5.3939   -2.7109    0.6439 C.ar      1 <1>        -0.0850
      2 C2          4.9684   -0.7187    1.9429 C.ar      1 <1>        -0.0842
      3 C3         -0.7309    1.3106   -0.4215 C.ar      1 <1>        -0.0896
      4 C4          0.2128    2.7872    1.2417 C.ar      1 <1>        -0.0963
      5 C5          4.5856    3.6848   -5.8505 C.ar      1 <1>        -0.0871
      6 C6          5.4762    5.2895   -4.2792 C.ar      1 <1>        -0.0868
      7 C7          0.3102    1.6279   -1.2939 C.ar      1 <1>        -0.0619
      8 C8          1.2539    3.1044    0.3693 C.ar      1 <1>        -0.0712
      9 C9          4.4025    2.7706   -4.8131 C.ar      1 <1>        -0.0581
     10 C10         5.2931    4.3753   -3.2418 C.ar      1 <1>        -0.0577
     11 C11         4.9588   -3.4986    1.7096 C.ar      1 <1>        -0.0645
     12 C12         4.5333   -1.5065    3.0086 C.ar      1 <1>        -0.0640
     13 C13         5.3987   -1.3210    0.7606 C.ar      1 <1>        -0.0672
     14 C14        -0.7796    1.8903    0.8463 C.ar      1 <1>        -0.1118
     15 C15         5.1225    4.9443   -5.5836 C.ar      1 <1>        -0.1084
     16 C16         1.3027    2.5247   -0.8985 C.ar      1 <1>        -0.0309
     17 C17         4.7562    3.1158   -3.5088 C.ar      1 <1>        -0.0102
     18 C18         4.5285   -2.8966    2.8920 C.ar      1 <1>        -0.0682
     19 C19         5.0995    0.4313   -0.9396 C.2       1 <1>         0.0911
     20 C20         5.5706    1.2633   -2.0778 C.2       1 <1>         0.1613
     21 C21         3.3962    2.0910   -1.7010 C.2       1 <1>         0.1099
     22 C22         5.8524   -0.4996   -0.3507 C.2       1 <1>        -0.0361
     23 C23        -3.0869    2.4906    1.6227 C.3       1 <1>        -0.0636
     24 C24         6.6938    5.7946   -7.3428 C.3       1 <1>        -0.0629
     25 C25         4.0796   -5.1380    3.8586 C.3       1 <1>        -0.0342
     26 C26         3.6526   -3.0771    5.2073 C.3       1 <1>        -0.0342
     27 C27        -1.8931    1.5521    1.7790 C.3       1 <1>        -0.0492
     28 C28         5.3183    5.9216   -6.6930 C.3       1 <1>        -0.0473
     29 N1          2.3529    2.8432   -1.7776 N.2       1 <1>        -0.3352
     30 N2          4.5673    2.1739   -2.4392 N.am      1 <1>        -0.2260
     31 N3          4.0885   -3.6929    3.9696 N.pl3     1 <1>        -0.4210
     32 O1          6.6622    1.0782   -2.6014 O.2       1 <1>        -0.4406
     33 S1          3.4866    0.8172   -0.5115 S.3       1 <1>        -0.0369
     34 H1          5.7268   -3.1949   -0.2711 H         1 <1>         0.1408
     35 H2          4.9661    0.3636    2.0483 H         1 <1>         0.1410
     36 H3         -1.5002    0.6111   -0.7378 H         1 <1>         0.1258
     37 H4          0.1822    3.2445    2.2271 H         1 <1>         0.1234
     38 H5          4.3093    3.4065   -6.8641 H         1 <1>         0.1264
     39 H6          5.8959    6.2684   -4.0624 H         1 <1>         0.1264
     40 H7          0.3396    1.1719   -2.2802 H         1 <1>         0.1364
     41 H8          2.0228    3.8042    0.6861 H         1 <1>         0.1237
     42 H9          3.9829    1.7921   -5.0325 H         1 <1>         0.1333
     43 H10         5.5731    4.6543   -2.2291 H         1 <1>         0.1338
     44 H11         4.9594   -4.5811    1.6084 H         1 <1>         0.1174
     45 H12         4.1997   -1.0264    3.9250 H         1 <1>         0.1170
     46 H13         6.8659   -0.6468   -0.6861 H         1 <1>         0.1898
     47 H14        -2.7895    3.5334    1.7768 H         1 <1>         0.0340
     48 H15        -3.8674    2.2493    2.3510 H         1 <1>         0.0337
     49 H16        -3.5214    2.4097    0.6204 H         1 <1>         0.0360
     50 H17         7.4912    5.9223   -6.6029 H         1 <1>         0.0366
     51 H18         6.8271    6.5542   -8.1193 H         1 <1>         0.0345
     52 H19         6.8198    4.8101   -7.8060 H         1 <1>         0.0343
     53 H20         3.7096   -5.5837    4.7857 H         1 <1>         0.0813
     54 H21         5.0906   -5.5087    3.6689 H         1 <1>         0.0934
     55 H22         3.4317   -5.4499    3.0351 H         1 <1>         0.0947
     56 H23         3.3496   -3.8457    5.9229 H         1 <1>         0.0813
     57 H24         2.8027   -2.4149    5.0211 H         1 <1>         0.0934
     58 H25         4.4651   -2.4903    5.6440 H         1 <1>         0.0946
     59 H26        -2.2275    0.5146    1.6177 H         1 <1>         0.0603
     60 H27        -1.5431    1.5859    2.8234 H         1 <1>         0.0606
     61 H28         4.5424    5.7882   -7.4639 H         1 <1>         0.0620
     62 H29         5.1882    6.9519   -6.3244 H         1 <1>         0.0619
@<TRIPOS>BOND
     1    1   11 ar
     2    1   13 ar
     3    2   12 ar
     4    2   13 ar
     5    3    7 ar
     6    3   14 ar
     7    4    8 ar
     8    4   14 ar
     9    5    9 ar
    10    5   15 ar
    11    6   10 ar
    12    6   15 ar
    13    7   16 ar
    14    8   16 ar
    15    9   17 ar
    16   10   17 ar
    17   11   18 ar
    18   12   18 ar
    19   13   22 1
    20   14   27 1
    21   15   28 1
    22   16   29 1
    23   17   30 1
    24   18   31 1
    25   19   20 1
    26   19   22 2
    27   19   33 1
    28   20   30 am
    29   20   32 2
    30   21   29 2
    31   21   30 1
    32   21   33 1
    33   23   27 1
    34   24   28 1
    35   25   31 1
    36   26   31 1
    37    1   34 1
    38    2   35 1
    39    3   36 1
    40    4   37 1
    41    5   38 1
    42    6   39 1
    43    7   40 1
    44    8   41 1
    45    9   42 1
    46   10   43 1
    47   11   44 1
    48   12   45 1
    49   22   46 1
    50   23   47 1
    51   23   48 1
    52   23   49 1
    53   24   50 1
    54   24   51 1
    55   24   52 1
    56   25   53 1
    57   25   54 1
    58   25   55 1
    59   26   56 1
    60   26   57 1
    61   26   58 1
    62   27   59 1
    63   27   60 1
    64   28   61 1
    65   28   62 1
@<TRIPOS>Similarity
1.4934
@<TRIPOS>ShapeSim
0.8749
@<TRIPOS>PharmSim
0.6184
# END
# Name:		AO-729/15184001
# Created and modified by SHAFTS on Thu Dec 15 20:34:29 2011

# 

@<TRIPOS>MOLECULE
AO-729/15184001
   48    52     0
SMALL
USER_CHARGE


@<TRIPOS>ATOM
      1 C1          5.1247   -3.3131    2.9829 C.ar      1 <1>        -0.1023
      2 C2         -1.2569    1.9174    1.3051 C.ar      1 <1>        -0.1005
      3 C3          5.2183   -3.6322    1.6282 C.ar      1 <1>        -0.0951
      4 C4          4.9005   -1.9933    3.3747 C.ar      1 <1>        -0.0990
      5 C5         -0.8321    0.8001    0.5861 C.ar      1 <1>        -0.0906
      6 C6         -0.5081    3.0938    1.2726 C.ar      1 <1>        -0.0914
      7 C7          5.0875   -2.6315    0.6654 C.ar      1 <1>        -0.0709
      8 C8          4.7698   -0.9926    2.4119 C.ar      1 <1>        -0.0761
      9 C9          0.3417    0.8593   -0.1652 C.ar      1 <1>        -0.0513
     10 C10         0.6656    3.1529    0.5213 C.ar      1 <1>        -0.0521
     11 C11         6.5214    1.3887   -2.7336 C.ar      1 <1>        -0.0315
     12 C12         6.9769   -0.6580   -0.8735 C.ar      1 <1>        -0.0312
     13 C13         3.6041    2.7552   -2.4297 C.2       1 <1>         0.0193
     14 C14         5.5256    1.0538   -1.7957 C.ar      1 <1>        -0.0467
     15 C15         5.7493    0.0234   -0.8559 C.ar      1 <1>        -0.0115
     16 C16         4.2770    1.7176   -1.7477 C.ar      1 <1>         0.0145
     17 C17         4.8633   -1.3116    1.0572 C.ar      1 <1>        -0.0179
     18 C18         1.0906    2.0357   -0.1976 C.ar      1 <1>         0.0032
     19 C19         7.7331    0.6986   -2.7328 C.ar      1 <1>         0.0481
     20 C20         7.9598   -0.3201   -1.8069 C.ar      1 <1>         0.0457
     21 C21         4.7272   -0.2704    0.0548 C.ar      1 <1>         0.0216
     22 C22         3.3670    1.3093   -0.7846 C.ar      1 <1>         0.0519
     23 C23         8.3813    2.0814   -4.5559 C.3       1 <1>         0.0294
     24 C24         9.2989   -2.0237   -0.8268 C.3       1 <1>         0.0261
     25 N1          2.3794    2.9871   -1.9472 N.2       1 <1>        -0.3038
     26 N2          3.5197    0.3405    0.1335 N.ar      1 <1>        -0.3346
     27 N3          2.2638    2.0940   -0.9490 N.pl3     1 <1>        -0.2549
     28 O1          8.6906    1.0294   -3.6442 O.3       1 <1>        -0.3992
     29 O2          9.1432   -0.9965   -1.8034 O.3       1 <1>        -0.4057
     30 H1          5.2248   -4.0928    3.7323 H         1 <1>         0.1221
     31 H2         -2.1716    1.8724    1.8888 H         1 <1>         0.1207
     32 H3          5.3912   -4.6599    1.3229 H         1 <1>         0.1215
     33 H4          4.8261   -1.7444    4.4293 H         1 <1>         0.1209
     34 H5         -1.4155   -0.1155    0.6102 H         1 <1>         0.1276
     35 H6         -0.8405    3.9638    1.8316 H         1 <1>         0.1268
     36 H7          5.1626   -2.8962   -0.3867 H         1 <1>         0.1342
     37 H8          4.5945    0.0317    2.7323 H         1 <1>         0.1285
     38 H9          0.6613   -0.0185   -0.7216 H         1 <1>         0.1375
     39 H10         1.2393    4.0764    0.5041 H         1 <1>         0.1365
     40 H11         6.3557    2.1814   -3.4594 H         1 <1>         0.1366
     41 H12         7.1903   -1.4576   -0.1678 H         1 <1>         0.1452
     42 H13         3.9545    3.3528   -3.2595 H         1 <1>         0.2364
     43 H14         9.2282    2.2439   -5.2268 H         1 <1>         0.0918
     44 H15         8.1638    2.9958   -3.9981 H         1 <1>         0.0918
     45 H16         7.5041    1.7974   -5.1421 H         1 <1>         0.1251
     46 H17        10.2851   -2.4823   -0.9332 H         1 <1>         0.0899
     47 H18         8.5185   -2.7769   -0.9614 H         1 <1>         0.1241
     48 H19         9.2099   -1.5836    0.1692 H         1 <1>         0.0893
@<TRIPOS>BOND
     1    1    3 ar
     2    1    4 ar
     3    2    5 ar
     4    2    6 ar
     5    3    7 ar
     6    4    8 ar
     7    5    9 ar
     8    6   10 ar
     9    7   17 ar
    10    8   17 ar
    11    9   18 ar
    12   10   18 ar
    13   11   14 ar
    14   11   19 ar
    15   12   15 ar
    16   12   20 ar
    17   13   16 1
    18   13   25 2
    19   14   15 ar
    20   14   16 ar
    21   15   21 ar
    22   16   22 ar
    23   17   21 1
    24   18   27 1
    25   19   20 ar
    26   19   28 1
    27   20   29 1
    28   21   26 ar
    29   22   26 ar
    30   22   27 1
    31   23   28 1
    32   24   29 1
    33   25   27 1
    34    1   30 1
    35    2   31 1
    36    3   32 1
    37    4   33 1
    38    5   34 1
    39    6   35 1
    40    7   36 1
    41    8   37 1
    42    9   38 1
    43   10   39 1
    44   11   40 1
    45   12   41 1
    46   13   42 1
    47   23   43 1
    48   23   44 1
    49   23   45 1
    50   24   46 1
    51   24   47 1
    52   24   48 1
@<TRIPOS>Similarity
1.4928
@<TRIPOS>ShapeSim
0.7659
@<TRIPOS>PharmSim
0.7269
# END
# Name:		AH-487/40652387
# Created and modified by SHAFTS on Thu Dec 15 20:34:29 2011

# 

@<TRIPOS>MOLECULE
AH-487/40652387
   43    46     0
SMALL
USER_CHARGE


@<TRIPOS>ATOM
      1 C1          5.3223    4.9333   -5.7086 C.ar      1 <1>        -0.1026
      2 C2         -0.8186   -1.7213   -0.4094 C.ar      1 <1>        -0.1066
      3 C3          4.5987    3.7654   -5.9498 C.ar      1 <1>        -0.0964
      4 C4          5.5163    5.3758   -4.4000 C.ar      1 <1>        -0.0984
      5 C5         -0.8660   -0.8833   -1.5235 C.ar      1 <1>        -0.1041
      6 C6         -0.1565   -1.3080    0.7466 C.ar      1 <1>        -0.1044
      7 C7          4.0692    3.0400   -4.8824 C.ar      1 <1>        -0.0751
      8 C8          4.9869    4.6504   -3.3327 C.ar      1 <1>        -0.0760
      9 C9         -0.2511    0.3680   -1.4815 C.ar      1 <1>        -0.0963
     10 C10         0.4583   -0.0567    0.7887 C.ar      1 <1>        -0.0962
     11 C11         5.7302   -0.0047   -0.8176 C.ar      1 <1>        -0.0272
     12 C12         4.3367    1.6908   -1.7547 C.ar      1 <1>         0.0449
     13 C13         4.2633    3.4825   -3.5739 C.ar      1 <1>        -0.0283
     14 C14         0.4111    0.7813   -0.3254 C.ar      1 <1>        -0.0742
     15 C15         5.5574    1.0048   -1.7647 C.ar      1 <1>         0.0638
     16 C16         3.7162    2.7335   -2.4711 C.2       1 <1>         0.0426
     17 C17         4.6977   -0.2743    0.0745 C.ar      1 <1>        -0.0278
     18 C18         3.3916    1.3211   -0.8103 C.ar      1 <1>         0.0528
     19 C19         4.8981   -1.3594    1.0837 C.3       1 <1>         0.0053
     20 C20         1.0749    2.1311   -0.2795 C.3       1 <1>         0.0427
     21 C21         6.6633    1.2974   -2.7243 C.3       1 <1>         0.3648
     22 N1          2.4854    3.0072   -2.0261 N.2       1 <1>        -0.2869
     23 N2          3.5014    0.3603    0.1237 N.ar      1 <1>        -0.3486
     24 N3          2.3160    2.1333   -1.0174 N.pl3     1 <1>        -0.2711
     25 F1          7.7611    0.5046   -2.5503 F         1 <1>        -0.1826
     26 F2          6.3078    1.1337   -4.0322 F         1 <1>        -0.1779
     27 F3          7.1170    2.5802   -2.6245 F         1 <1>        -0.1771
     28 H1          5.7354    5.4976   -6.5395 H         1 <1>         0.1211
     29 H2         -1.2986   -2.6950   -0.4419 H         1 <1>         0.1179
     30 H3          4.4486    3.4200   -6.9684 H         1 <1>         0.1203
     31 H4          6.0808    6.2844   -4.2125 H         1 <1>         0.1201
     32 H5         -1.3824   -1.2045   -2.4233 H         1 <1>         0.1162
     33 H6         -0.1205   -1.9598    1.6145 H         1 <1>         0.1156
     34 H7          3.5074    2.1315   -5.0868 H         1 <1>         0.1301
     35 H8          5.1470    5.0087   -2.3185 H         1 <1>         0.1371
     36 H9         -0.2928    1.0142   -2.3543 H         1 <1>         0.1231
     37 H10         0.9720    0.2569    1.6936 H         1 <1>         0.1245
     38 H11         6.6570   -0.5704   -0.7786 H         1 <1>         0.1498
     39 H12         5.3395   -0.9480    1.9982 H         1 <1>         0.0858
     40 H13         3.9471   -1.8414    1.3388 H         1 <1>         0.0834
     41 H14         5.5605   -2.1419    0.6952 H         1 <1>         0.0830
     42 H15         0.4240    2.9070   -0.7005 H         1 <1>         0.1571
     43 H16         1.2897    2.4320    0.7532 H         1 <1>         0.1560
@<TRIPOS>BOND
     1    1    3 ar
     2    1    4 ar
     3    2    5 ar
     4    2    6 ar
     5    3    7 ar
     6    4    8 ar
     7    5    9 ar
     8    6   10 ar
     9    7   13 ar
    10    8   13 ar
    11    9   14 ar
    12   10   14 ar
    13   11   15 ar
    14   11   17 ar
    15   12   15 ar
    16   12   16 1
    17   12   18 ar
    18   13   16 1
    19   14   20 1
    20   15   21 1
    21   16   22 2
    22   17   19 1
    23   17   23 ar
    24   18   23 ar
    25   18   24 1
    26   20   24 1
    27   21   25 1
    28   21   26 1
    29   21   27 1
    30   22   24 1
    31    1   28 1
    32    2   29 1
    33    3   30 1
    34    4   31 1
    35    5   32 1
    36    6   33 1
    37    7   34 1
    38    8   35 1
    39    9   36 1
    40   10   37 1
    41   11   38 1
    42   19   39 1
    43   19   40 1
    44   19   41 1
    45   20   42 1
    46   20   43 1
@<TRIPOS>Similarity
1.4904
@<TRIPOS>ShapeSim
0.7649
@<TRIPOS>PharmSim
0.7255
# END
# Name:		AG-690/40749469
# Created and modified by SHAFTS on Thu Dec 15 20:34:29 2011

# 

@<TRIPOS>MOLECULE
AG-690/40749469
   49    51     0
SMALL
USER_CHARGE


@<TRIPOS>ATOM
      1 C1          6.1632    1.2162   -2.3375 C.1       1 <1>         0.0750
      2 C2          0.7195    3.1466    0.5061 C.ar      1 <1>        -0.0767
      3 C3          0.1926    0.8596   -0.0673 C.ar      1 <1>        -0.0630
      4 C4          5.0744    4.4550   -3.1812 C.ar      1 <1>        -0.0755
      5 C5          4.1596    2.8427   -4.7307 C.ar      1 <1>        -0.0743
      6 C6         -0.5325    3.2850    1.1052 C.ar      1 <1>        -0.0646
      7 C7         -1.0594    0.9978    0.5319 C.ar      1 <1>        -0.0496
      8 C8          5.4631    5.2620   -4.2504 C.ar      1 <1>        -0.0663
      9 C9          4.5483    3.6497   -5.7999 C.ar      1 <1>        -0.0662
     10 C10         2.7547    2.5972   -1.7618 C.ar      1 <1>        -0.0198
     11 C11         4.8553    1.4261   -1.7840 C.ar      1 <1>         0.1143
     12 C12         4.4227    3.2454   -3.4213 C.ar      1 <1>        -0.0529
     13 C13         1.0821    1.9340   -0.0801 C.ar      1 <1>        -0.0290
     14 C14         4.0186    2.4051   -2.3085 C.ar      1 <1>        -0.0078
     15 C15        -1.4220    2.2105    1.1181 C.ar      1 <1>        -0.0115
     16 C16         5.2001    4.8594   -5.5598 C.ar      1 <1>        -0.0113
     17 C17         2.3778    1.7907   -0.7000 C.ar      1 <1>        -0.0054
     18 C18         4.3844    0.6722   -0.7211 C.ar      1 <1>         0.0562
     19 C19         5.0450   -3.5705    1.4041 C.3       1 <1>        -0.0672
     20 C20         5.8784   -1.8915    3.0819 C.3       1 <1>        -0.0682
     21 C21        -3.5034    1.2073    1.6808 C.3       1 <1>         0.0250
     22 C22         4.1925   -1.1639    1.3050 C.3       1 <1>         0.0012
     23 C23         4.7009   -2.3086    2.1981 C.3       1 <1>        -0.0633
     24 N1          7.2204    1.0465   -2.7849 N.1       1 <1>        -0.3600
     25 N2          3.1629    0.8298   -0.1637 N.ar      1 <1>        -0.3609
     26 O1         -2.6433    2.3454    1.7032 O.3       1 <1>        -0.4155
     27 S1          5.3578   -0.5965    0.0273 S.3       1 <1>        -0.1231
     28 Cl1         5.6814    5.8550   -6.8786 Cl        1 <1>        -0.1376
     29 H1          1.4019    3.9933    0.5042 H         1 <1>         0.1390
     30 H2          0.4606   -0.0921   -0.5199 H         1 <1>         0.1529
     31 H3          5.2867    4.7825   -2.1662 H         1 <1>         0.1353
     32 H4          3.6533    1.9020   -4.9341 H         1 <1>         0.1415
     33 H5         -0.8093    4.2319    1.5605 H         1 <1>         0.1154
     34 H6         -1.7481    0.1574    0.5391 H         1 <1>         0.1313
     35 H7          5.9720    6.2015   -4.0491 H         1 <1>         0.1379
     36 H8          4.3379    3.3229   -6.8152 H         1 <1>         0.1383
     37 H9          2.0819    3.3556   -2.1529 H         1 <1>         0.1486
     38 H10         5.8677   -3.4028    0.7019 H         1 <1>         0.0369
     39 H11         5.3490   -4.3768    2.0805 H         1 <1>         0.0392
     40 H12         4.1768   -3.9225    0.8372 H         1 <1>         0.0365
     41 H13         6.7566   -1.6118    2.4916 H         1 <1>         0.0356
     42 H14         6.1731   -2.7162    3.7401 H         1 <1>         0.0357
     43 H15         5.6067   -1.0413    3.7164 H         1 <1>         0.0349
     44 H16        -4.4442    1.4507    2.1806 H         1 <1>         0.0904
     45 H17        -3.0155    0.3706    2.1870 H         1 <1>         0.0904
     46 H18        -3.7054    0.9347    0.6422 H         1 <1>         0.1228
     47 H19         3.2725   -1.4746    0.7978 H         1 <1>         0.0889
     48 H20         3.9376   -0.2985    1.9265 H         1 <1>         0.0891
     49 H21         3.8724   -2.5695    2.8706 H         1 <1>         0.0575
@<TRIPOS>BOND
     1    1   11 1
     2    1   24 3
     3    2    6 ar
     4    2   13 ar
     5    3    7 ar
     6    3   13 ar
     7    4    8 ar
     8    4   12 ar
     9    5    9 ar
    10    5   12 ar
    11    6   15 ar
    12    7   15 ar
    13    8   16 ar
    14    9   16 ar
    15   10   14 ar
    16   10   17 ar
    17   11   14 ar
    18   11   18 ar
    19   12   14 1
    20   13   17 1
    21   15   26 1
    22   16   28 1
    23   17   25 ar
    24   18   25 ar
    25   18   27 1
    26   19   23 1
    27   20   23 1
    28   21   26 1
    29   22   23 1
    30   22   27 1
    31    2   29 1
    32    3   30 1
    33    4   31 1
    34    5   32 1
    35    6   33 1
    36    7   34 1
    37    8   35 1
    38    9   36 1
    39   10   37 1
    40   19   38 1
    41   19   39 1
    42   19   40 1
    43   20   41 1
    44   20   42 1
    45   20   43 1
    46   21   44 1
    47   21   45 1
    48   21   46 1
    49   22   47 1
    50   22   48 1
    51   23   49 1
@<TRIPOS>Similarity
1.4870
@<TRIPOS>ShapeSim
0.8993
@<TRIPOS>PharmSim
0.5877
# END
# Name:		AE-848/09038034
# Created and modified by SHAFTS on Thu Dec 15 20:34:29 2011

# 

@<TRIPOS>MOLECULE
AE-848/09038034
   46    49     0
SMALL
USER_CHARGE


@<TRIPOS>ATOM
      1 C1          3.9809    3.0116   -4.8018 C.ar      1 <1>        -0.0774
      2 C2          4.8795    4.6289   -3.2481 C.ar      1 <1>        -0.0742
      3 C3          0.5405    3.3291   -0.2672 C.ar      1 <1>        -0.0646
      4 C4          0.4794    0.9860    0.3188 C.ar      1 <1>        -0.0648
      5 C5          4.2708    3.8697   -5.8625 C.ar      1 <1>        -0.0980
      6 C6          5.1694    5.4869   -4.3089 C.ar      1 <1>        -0.0955
      7 C7         -0.7211    3.5042    0.3014 C.ar      1 <1>        -0.0952
      8 C8         -0.7822    1.1612    0.8874 C.ar      1 <1>        -0.0953
      9 C9          4.2851    3.3913   -3.4945 C.ar      1 <1>        -0.0313
     10 C10         1.1408    2.0700   -0.2585 C.ar      1 <1>         0.0023
     11 C11         4.8831    1.5542   -1.9283 C.ar      1 <1>        -0.0307
     12 C12         4.8652    5.1072   -5.6161 C.ar      1 <1>        -0.1151
     13 C13        -1.3825    2.4203    0.8787 C.ar      1 <1>        -0.1158
     14 C14         3.9840    2.5011   -2.3938 C.ar      1 <1>        -0.0017
     15 C15         4.4357    0.7677   -0.8707 C.ar      1 <1>        -0.0338
     16 C16         2.4426    1.8893   -0.8454 C.ar      1 <1>         0.0445
     17 C17         6.2182    1.3582   -2.5817 C.3       1 <1>        -0.0333
     18 C18         5.3254   -0.2773   -0.2516 C.3       1 <1>        -0.0048
     19 C19         7.1824    0.5341   -1.7281 C.3       1 <1>        -0.0606
     20 C20         6.4811   -0.6954   -1.1598 C.3       1 <1>        -0.0506
     21 C21         5.1751    6.0247   -6.7503 C.3       1 <1>        -0.0420
     22 C22        -2.7315    2.6074    1.4864 C.3       1 <1>        -0.0420
     23 N1          2.7565    2.6978   -1.8722 N.ar      1 <1>        -0.3452
     24 N2          3.2158    0.9278   -0.3063 N.ar      1 <1>        -0.3604
     25 H1          3.5168    2.0505   -5.0100 H         1 <1>         0.1302
     26 H2          5.1232    4.9389   -2.2346 H         1 <1>         0.1331
     27 H3          1.0429    4.1838   -0.7140 H         1 <1>         0.1419
     28 H4          0.9344   -0.0016    0.3340 H         1 <1>         0.1414
     29 H5          4.0294    3.5661   -6.8778 H         1 <1>         0.1205
     30 H6          5.6332    6.4491   -4.1078 H         1 <1>         0.1205
     31 H7         -1.1817    4.4885    0.2890 H         1 <1>         0.1189
     32 H8         -1.2901    0.3112    1.3356 H         1 <1>         0.1187
     33 H9          6.1072    0.8538   -3.5487 H         1 <1>         0.0705
     34 H10         6.6603    2.3452   -2.7673 H         1 <1>         0.0700
     35 H11         5.7273    0.0956    0.6975 H         1 <1>         0.0906
     36 H12         4.7064   -1.1539   -0.0239 H         1 <1>         0.0907
     37 H13         8.0397    0.2165   -2.3355 H         1 <1>         0.0463
     38 H14         7.5779    1.1542   -0.9159 H         1 <1>         0.0521
     39 H15         7.2016   -1.2993   -0.5935 H         1 <1>         0.0557
     40 H16         6.1018   -1.3231   -1.9737 H         1 <1>         0.0488
     41 H17         4.3242    6.6880   -6.9485 H         1 <1>         0.0584
     42 H18         6.0554    6.6435   -6.5333 H         1 <1>         0.0547
     43 H19         5.3996    5.4636   -7.6669 H         1 <1>         0.0548
     44 H20        -3.5146    2.4402    0.7368 H         1 <1>         0.0584
     45 H21        -2.8932    1.9114    2.3198 H         1 <1>         0.0548
     46 H22        -2.8486    3.6209    1.8920 H         1 <1>         0.0547
@<TRIPOS>BOND
     1    1    5 ar
     2    1    9 ar
     3    2    6 ar
     4    2    9 ar
     5    3    7 ar
     6    3   10 ar
     7    4    8 ar
     8    4   10 ar
     9    5   12 ar
    10    6   12 ar
    11    7   13 ar
    12    8   13 ar
    13    9   14 1
    14   10   16 1
    15   11   14 ar
    16   11   15 ar
    17   11   17 1
    18   12   21 1
    19   13   22 1
    20   14   23 ar
    21   15   18 1
    22   15   24 ar
    23   16   23 ar
    24   16   24 ar
    25   17   19 1
    26   18   20 1
    27   19   20 1
    28    1   25 1
    29    2   26 1
    30    3   27 1
    31    4   28 1
    32    5   29 1
    33    6   30 1
    34    7   31 1
    35    8   32 1
    36   17   33 1
    37   17   34 1
    38   18   35 1
    39   18   36 1
    40   19   37 1
    41   19   38 1
    42   20   39 1
    43   20   40 1
    44   21   41 1
    45   21   42 1
    46   21   43 1
    47   22   44 1
    48   22   45 1
    49   22   46 1
@<TRIPOS>Similarity
1.4852
@<TRIPOS>ShapeSim
0.8016
@<TRIPOS>PharmSim
0.6836
# END
# Name:		AG-205/33681014
# Created and modified by SHAFTS on Thu Dec 15 20:34:29 2011

# 

@<TRIPOS>MOLECULE
AG-205/33681014
   54    59     0
SMALL
USER_CHARGE


@<TRIPOS>ATOM
      1 C1         -1.1454    2.0152    1.2191 C.ar      1 <1>        -0.1000
      2 C2          7.0652   -4.6312    0.0139 C.ar      1 <1>        -0.0983
      3 C3          3.0541   -1.0844    5.0015 C.ar      1 <1>        -0.1024
      4 C4          6.8767   -3.5840   -0.8823 C.ar      1 <1>        -0.0980
      5 C5          2.8659   -0.0371    4.1053 C.ar      1 <1>        -0.1018
      6 C6          0.1073    2.1595    1.8155 C.ar      1 <1>        -0.0906
      7 C7         -1.2492    1.9057   -0.1677 C.ar      1 <1>        -0.0909
      8 C8          6.4973   -4.5705    1.2867 C.ar      1 <1>        -0.0861
      9 C9          3.8108   -2.1949    4.6272 C.ar      1 <1>        -0.0894
     10 C10         6.1201   -2.4734   -0.5081 C.ar      1 <1>        -0.0824
     11 C11         3.4338   -0.0977    2.8326 C.ar      1 <1>        -0.0760
     12 C12         4.4393    3.0663   -4.9274 C.ar      1 <1>        -0.0638
     13 C13         4.3829    4.9888   -3.4652 C.ar      1 <1>        -0.0626
     14 C14         1.2561    2.1944    1.0252 C.ar      1 <1>        -0.0515
     15 C15        -0.1004    1.9406   -0.9580 C.ar      1 <1>        -0.0512
     16 C16         4.9489    3.8618   -5.9537 C.ar      1 <1>        -0.0740
     17 C17         4.8925    5.7843   -4.4915 C.ar      1 <1>        -0.0735
     18 C18         5.1542   -3.3833    2.9574 C.ar      1 <1>        -0.0627
     19 C19         4.2447    1.6808   -2.0493 C.2       1 <1>        -0.0157
     20 C20         5.7325   -3.4595    1.6794 C.ar      1 <1>        -0.0606
     21 C21         4.3895   -2.2719    3.3495 C.ar      1 <1>        -0.0622
     22 C22         5.5413   -2.3965    0.7697 C.ar      1 <1>        -0.0513
     23 C23         4.1983   -1.2088    2.4398 C.ar      1 <1>        -0.0510
     24 C24         4.1564    3.6299   -3.6831 C.ar      1 <1>        -0.0271
     25 C25         4.7768   -1.2850    1.1618 C.ar      1 <1>        -0.0037
     26 C26         1.1523    2.0850   -0.3616 C.ar      1 <1>         0.0035
     27 C27         5.1755    5.2208   -5.7357 C.ar      1 <1>        -0.0396
     28 C28         3.6299    2.8093   -2.6240 C.2       1 <1>         0.0142
     29 C29         3.3552    1.2547   -1.0934 C.2       1 <1>         0.0300
     30 C30         4.5758   -0.1814    0.2152 C.2       1 <1>         0.0070
     31 N1          2.4415    3.0827   -2.0790 N.2       1 <1>        -0.3011
     32 N2          3.3968    0.1816   -0.1871 N.2       1 <1>        -0.3516
     33 N3          2.3025    2.1199   -1.1518 N.pl3     1 <1>        -0.2599
     34 Br1         5.8645    6.2987   -7.1266 Br        1 <1>        -0.1105
     35 H1         -2.0400    1.9861    1.8340 H         1 <1>         0.1218
     36 H2          7.6540   -5.4963   -0.2764 H         1 <1>         0.1177
     37 H3          2.6115   -1.0384    5.9923 H         1 <1>         0.1157
     38 H4          7.3184   -3.6314   -1.8736 H         1 <1>         0.1255
     39 H5          2.2775    0.8282    4.3968 H         1 <1>         0.1172
     40 H6          0.1884    2.2434    2.8951 H         1 <1>         0.1272
     41 H7         -2.2250    1.7919   -0.6311 H         1 <1>         0.1274
     42 H8          6.6577   -5.4012    1.9710 H         1 <1>         0.1323
     43 H9          3.9460   -3.0017    5.3447 H         1 <1>         0.1268
     44 H10         5.9997   -1.6792   -1.2411 H         1 <1>         0.1234
     45 H11         3.2606    0.7441    2.1664 H         1 <1>         0.1664
     46 H12         4.2682    2.0087   -5.1131 H         1 <1>         0.1399
     47 H13         4.1660    5.4435   -2.5012 H         1 <1>         0.1431
     48 H14         2.2264    2.3066    1.5028 H         1 <1>         0.1374
     49 H15        -0.1955    1.8535   -2.0375 H         1 <1>         0.1409
     50 H16         5.1626    3.4071   -6.9173 H         1 <1>         0.1379
     51 H17         5.0616    6.8420   -4.3059 H         1 <1>         0.1373
     52 H18         5.3020   -4.2034    3.6602 H         1 <1>         0.1528
     53 H19         5.1997    1.2355   -2.2904 H         1 <1>         0.1315
     54 H20         5.4848    0.3380   -0.1500 H         1 <1>         0.2121
@<TRIPOS>BOND
     1    1    6 ar
     2    1    7 ar
     3    2    4 ar
     4    2    8 ar
     5    3    5 ar
     6    3    9 ar
     7    4   10 ar
     8    5   11 ar
     9    6   14 ar
    10    7   15 ar
    11    8   20 ar
    12    9   21 ar
    13   10   22 ar
    14   11   23 ar
    15   12   16 ar
    16   12   24 ar
    17   13   17 ar
    18   13   24 ar
    19   14   26 ar
    20   15   26 ar
    21   16   27 ar
    22   17   27 ar
    23   18   20 ar
    24   18   21 ar
    25   19   28 1
    26   19   29 2
    27   20   22 ar
    28   21   23 ar
    29   22   25 ar
    30   23   25 ar
    31   24   28 1
    32   25   30 1
    33   26   33 1
    34   27   34 1
    35   28   31 2
    36   29   32 1
    37   29   33 1
    38   30   32 2
    39   31   33 1
    40    1   35 1
    41    2   36 1
    42    3   37 1
    43    4   38 1
    44    5   39 1
    45    6   40 1
    46    7   41 1
    47    8   42 1
    48    9   43 1
    49   10   44 1
    50   11   45 1
    51   12   46 1
    52   13   47 1
    53   14   48 1
    54   15   49 1
    55   16   50 1
    56   17   51 1
    57   18   52 1
    58   19   53 1
    59   30   54 1
@<TRIPOS>Similarity
1.4848
@<TRIPOS>ShapeSim
0.7807
@<TRIPOS>PharmSim
0.7040
# END
# Name:		AO-476/41610195
# Created and modified by SHAFTS on Thu Dec 15 20:34:29 2011

# 

@<TRIPOS>MOLECULE
AO-476/41610195
   50    54     0
SMALL
USER_CHARGE


@<TRIPOS>ATOM
      1 C1          6.2966    1.2517   -2.5073 C.1       1 <1>         0.0819
      2 C2         -0.5635    1.0154    1.3450 C.ar      1 <1>        -0.0957
      3 C3         -1.3125    2.1664    1.1198 C.ar      1 <1>        -0.1010
      4 C4          0.6888    0.8629    0.7448 C.ar      1 <1>        -0.0717
      5 C5          4.2382    2.8854   -4.8180 C.ar      1 <1>        -0.0724
      6 C6          5.2089    4.4723   -3.2764 C.ar      1 <1>        -0.0727
      7 C7         -0.8133    3.1683    0.2914 C.ar      1 <1>        -0.0948
      8 C8          4.0274   -1.5195    2.2732 C.ar      1 <1>        -0.0816
      9 C9          6.1482   -2.5713    1.7904 C.ar      1 <1>        -0.0817
     10 C10         4.6209    3.6923   -5.8896 C.ar      1 <1>        -0.0418
     11 C11         5.5916    5.2791   -4.3480 C.ar      1 <1>        -0.0416
     12 C12         3.6077   -2.6712    2.9388 C.ar      1 <1>        -0.0462
     13 C13         5.7285   -3.7231    2.4559 C.ar      1 <1>        -0.0463
     14 C14         4.9996    1.4529   -1.9298 C.ar      1 <1>         0.1510
     15 C15         4.5321    3.2755   -3.5115 C.ar      1 <1>        -0.0502
     16 C16         1.2127    1.8581   -0.0972 C.ar      1 <1>        -0.0239
     17 C17         4.1327    2.4335   -2.3933 C.ar      1 <1>         0.0004
     18 C18         0.4358    3.0171   -0.3269 C.ar      1 <1>        -0.0837
     19 C19         2.8825    2.5946   -1.7937 C.ar      1 <1>        -0.0281
     20 C20         5.2977   -1.4695    1.6991 C.ar      1 <1>        -0.0653
     21 C21         5.2976    4.8891   -5.6545 C.ar      1 <1>         0.0664
     22 C22         4.4582   -3.7730    3.0301 C.ar      1 <1>         0.0626
     23 C23         2.5297    1.7337   -0.7463 C.ar      1 <1>         0.0040
     24 C24         4.5732    0.6556   -0.8831 C.ar      1 <1>         0.1249
     25 C25         0.9941    4.1337   -1.1790 C.3       1 <1>        -0.0280
     26 C26         1.8952    3.6098   -2.3012 C.3       1 <1>        -0.0207
     27 C27         5.7501   -0.2306    0.9837 C.3       1 <1>         0.0614
     28 N1          7.3462    1.0888   -2.9747 N.1       1 <1>        -0.3645
     29 N2          3.3656    0.7702   -0.2855 N.ar      1 <1>        -0.3349
     30 O1          5.3897   -0.3290   -0.3884 O.3       1 <1>        -0.3477
     31 F1          5.6652    5.6639   -6.6836 F         1 <1>        -0.2650
     32 F2          4.0562   -4.8783    3.6715 F         1 <1>        -0.2673
     33 H1         -0.9520    0.2337    1.9916 H         1 <1>         0.1188
     34 H2         -2.2828    2.2851    1.5925 H         1 <1>         0.1233
     35 H3          1.2452   -0.0500    0.9447 H         1 <1>         0.1395
     36 H4          3.7112    1.9554   -5.0176 H         1 <1>         0.1438
     37 H5          5.4455    4.7901   -2.2638 H         1 <1>         0.1403
     38 H6         -1.4009    4.0688    0.1326 H         1 <1>         0.1222
     39 H7          3.3574   -0.6664    2.2066 H         1 <1>         0.1385
     40 H8          7.1398   -2.5414    1.3464 H         1 <1>         0.1384
     41 H9          4.3921    3.3889   -6.9069 H         1 <1>         0.1368
     42 H10         6.1186    6.2111   -4.1658 H         1 <1>         0.1363
     43 H11         2.6192   -2.7101    3.3863 H         1 <1>         0.1322
     44 H12         6.3902   -4.5812    2.5269 H         1 <1>         0.1321
     45 H13         0.1816    4.7212   -1.6229 H         1 <1>         0.0746
     46 H14         1.5653    4.8036   -0.5234 H         1 <1>         0.0779
     47 H15         2.3901    4.4743   -2.7566 H         1 <1>         0.0786
     48 H16         1.2830    3.1311   -3.0765 H         1 <1>         0.0756
     49 H17         5.2826    0.6623    1.4126 H         1 <1>         0.1324
     50 H18         6.8363   -0.1123    1.0622 H         1 <1>         0.1328
@<TRIPOS>BOND
     1    1   14 1
     2    1   28 3
     3    2    3 ar
     4    2    4 ar
     5    3    7 ar
     6    4   16 ar
     7    5   10 ar
     8    5   15 ar
     9    6   11 ar
    10    6   15 ar
    11    7   18 ar
    12    8   12 ar
    13    8   20 ar
    14    9   13 ar
    15    9   20 ar
    16   10   21 ar
    17   11   21 ar
    18   12   22 ar
    19   13   22 ar
    20   14   17 ar
    21   14   24 ar
    22   15   17 1
    23   16   18 ar
    24   16   23 1
    25   17   19 ar
    26   18   25 1
    27   19   23 ar
    28   19   26 1
    29   20   27 1
    30   21   31 1
    31   22   32 1
    32   23   29 ar
    33   24   29 ar
    34   24   30 1
    35   25   26 1
    36   27   30 1
    37    2   33 1
    38    3   34 1
    39    4   35 1
    40    5   36 1
    41    6   37 1
    42    7   38 1
    43    8   39 1
    44    9   40 1
    45   10   41 1
    46   11   42 1
    47   12   43 1
    48   13   44 1
    49   25   45 1
    50   25   46 1
    51   26   47 1
    52   26   48 1
    53   27   49 1
    54   27   50 1
@<TRIPOS>Similarity
1.4823
@<TRIPOS>ShapeSim
0.8770
@<TRIPOS>PharmSim
0.6052
# END
# Name:		AO-476/43421038
# Created and modified by SHAFTS on Thu Dec 15 20:34:29 2011

# 

@<TRIPOS>MOLECULE
AO-476/43421038
   41    44     0
SMALL
USER_CHARGE


@<TRIPOS>ATOM
      1 C1          5.1259   -2.0754    3.3268 C.ar      1 <1>        -0.0811
      2 C2          5.4418   -3.3564    2.8742 C.ar      1 <1>        -0.0848
      3 C3          4.8313   -1.0651    2.4112 C.ar      1 <1>        -0.0433
      4 C4          5.4633   -3.6270    1.5060 C.ar      1 <1>        -0.0556
      5 C5          4.6561    1.1808   -1.4071 C.ar      1 <1>         0.0167
      6 C6          3.3794    1.2356   -0.7387 C.ar      1 <1>         0.0932
      7 C7          4.8527   -1.3357    1.0431 C.ar      1 <1>         0.0283
      8 C8          5.1687   -2.6167    0.5905 C.ar      1 <1>         0.0409
      9 C9          5.0684    1.9849   -2.4589 C.ar      1 <1>        -0.0047
     10 C10         5.3826    0.1907   -0.8119 C.2       1 <1>        -0.0125
     11 C11         2.4144    2.1698   -1.1419 C.ar      1 <1>         0.0992
     12 C12        -0.8312    1.7455    0.6464 C.3       1 <1>        -0.0387
     13 C13        -0.9171    3.1881    0.1909 C.3       1 <1>        -0.0383
     14 C14         0.6640    1.4578    0.5730 C.3       1 <1>        -0.0253
     15 C15         0.1110    3.2478   -0.9330 C.3       1 <1>        -0.0229
     16 C16         6.3643    1.9763   -3.1823 C.3       1 <1>        -0.0012
     17 C17         6.7430   -0.3345   -1.0494 C.3       1 <1>         0.0034
     18 N1          3.3501    0.3018    0.2277 N.2       1 <1>        -0.2849
     19 N2          4.1125    2.8794   -2.8265 N.ar      1 <1>        -0.2970
     20 N3          2.8056    2.9679   -2.1754 N.ar      1 <1>        -0.2571
     21 N4          4.5548   -0.2997    0.1564 N.pl3     1 <1>        -0.2705
     22 N5          1.1467    2.2843   -0.5403 N.pl3     1 <1>        -0.3658
     23 Cl1         5.2108   -3.0014   -1.0947 Cl        1 <1>        -0.1107
     24 H1          5.1101   -1.8651    4.3923 H         1 <1>         0.1392
     25 H2          5.6717   -4.1428    3.5871 H         1 <1>         0.1393
     26 H3          4.5868   -0.0719    2.7807 H         1 <1>         0.1468
     27 H4          5.7133   -4.6305    1.1712 H         1 <1>         0.1451
     28 H5         -1.2390    1.5884    1.6488 H         1 <1>         0.0646
     29 H6         -1.3749    1.0979   -0.0520 H         1 <1>         0.0605
     30 H7         -1.9188    3.4721   -0.1429 H         1 <1>         0.0587
     31 H8         -0.6233    3.8585    1.0076 H         1 <1>         0.0666
     32 H9          1.1662    1.7594    1.4991 H         1 <1>         0.0974
     33 H10         0.8512    0.3929    0.3987 H         1 <1>         0.0971
     34 H11        -0.3339    2.9403   -1.8861 H         1 <1>         0.0991
     35 H12         0.5171    4.2590   -1.0415 H         1 <1>         0.1096
     36 H13         6.3257    1.2919   -4.0418 H         1 <1>         0.0770
     37 H14         6.6281    2.9777   -3.5541 H         1 <1>         0.0733
     38 H15         7.1914    1.6589   -2.5292 H         1 <1>         0.0790
     39 H16         7.4875    0.2061   -0.4433 H         1 <1>         0.0885
     40 H17         6.8207   -1.4061   -0.8003 H         1 <1>         0.0779
     41 H18         7.0409   -0.2441   -2.1075 H         1 <1>         0.0927
@<TRIPOS>BOND
     1    1    2 ar
     2    1    3 ar
     3    2    4 ar
     4    3    7 ar
     5    4    8 ar
     6    5    6 ar
     7    5    9 ar
     8    5   10 2
     9    6   11 ar
    10    6   18 2
    11    7    8 ar
    12    7   21 1
    13    8   23 1
    14    9   16 1
    15    9   19 ar
    16   10   17 1
    17   10   21 1
    18   11   20 ar
    19   11   22 1
    20   12   13 1
    21   12   14 1
    22   13   15 1
    23   14   22 1
    24   15   22 1
    25   18   21 1
    26   19   20 ar
    27    1   24 1
    28    2   25 1
    29    3   26 1
    30    4   27 1
    31   12   28 1
    32   12   29 1
    33   13   30 1
    34   13   31 1
    35   14   32 1
    36   14   33 1
    37   15   34 1
    38   15   35 1
    39   16   36 1
    40   16   37 1
    41   16   38 1
    42   17   39 1
    43   17   40 1
    44   17   41 1
@<TRIPOS>Similarity
1.4817
@<TRIPOS>ShapeSim
0.7501
@<TRIPOS>PharmSim
0.7316
# END
# Name:		AE-842/31985041
# Created and modified by SHAFTS on Thu Dec 15 20:34:29 2011

# 

@<TRIPOS>MOLECULE
AE-842/31985041
   42    46     0
SMALL
USER_CHARGE


@<TRIPOS>ATOM
      1 C1          5.2900    4.9447   -5.9150 C.ar      1 <1>        -0.1032
      2 C2         -1.1510    1.8694    0.9357 C.ar      1 <1>        -0.1083
      3 C3          4.5056    3.7963   -6.0227 C.ar      1 <1>        -0.0971
      4 C4          5.5969    5.4642   -4.6573 C.ar      1 <1>        -0.0976
      5 C5         -0.4401    0.7670    0.4615 C.ar      1 <1>        -0.0991
      6 C6         -0.5944    3.1459    0.8535 C.ar      1 <1>        -0.0988
      7 C7          4.0281    3.1674   -4.8728 C.ar      1 <1>        -0.0745
      8 C8          5.1194    4.8353   -3.5076 C.ar      1 <1>        -0.0757
      9 C9          0.8271    0.9409   -0.0948 C.ar      1 <1>        -0.0596
     10 C10         0.6728    3.3198    0.2972 C.ar      1 <1>        -0.0592
     11 C11         4.3350    3.6869   -3.6152 C.ar      1 <1>        -0.0311
     12 C12         1.3836    2.2173   -0.1770 C.ar      1 <1>        -0.0336
     13 C13         3.8399    3.0348   -2.4231 C.2       1 <1>         0.0082
     14 C14         4.9824   -0.4334   -2.6090 C.3       1 <1>        -0.0653
     15 C15         4.0283   -1.0638   -1.5560 C.3       1 <1>        -0.0629
     16 C16         5.4861    0.3213   -0.4077 C.3       1 <1>        -0.0574
     17 C17         4.6059    1.9552   -1.7165 C.3       1 <1>         0.0104
     18 C18         5.5694    0.7978   -1.8827 C.3       1 <1>        -0.0523
     19 C19         3.9707    0.0434   -0.4690 C.3       1 <1>        -0.0461
     20 C20         3.3504    1.2319   -1.2102 C.3       1 <1>        -0.0105
     21 N1          2.7694    3.3654   -1.7365 N.2       1 <1>        -0.3298
     22 N2          2.6383    2.3899   -0.7278 N.pl3     1 <1>        -0.3443
     23 H1          5.6616    5.4343   -6.8103 H         1 <1>         0.1208
     24 H2         -2.1377    1.7339    1.3690 H         1 <1>         0.1088
     25 H3          4.2665    3.3920   -7.0020 H         1 <1>         0.1195
     26 H4          6.2078    6.3582   -4.5735 H         1 <1>         0.1200
     27 H5         -0.8734   -0.2266    0.5256 H         1 <1>         0.1215
     28 H6         -1.1482    4.0044    1.2228 H         1 <1>         0.1207
     29 H7          3.4178    2.2730   -4.9684 H         1 <1>         0.1340
     30 H8          5.3648    5.2490   -2.5328 H         1 <1>         0.1310
     31 H9          1.3728    0.0752   -0.4614 H         1 <1>         0.1198
     32 H10         1.0962    4.3193    0.2382 H         1 <1>         0.1192
     33 H11         5.7682   -1.1510   -2.8684 H         1 <1>         0.0531
     34 H12         4.4561   -0.1510   -3.5265 H         1 <1>         0.0471
     35 H13         3.0507   -1.3119   -1.9822 H         1 <1>         0.0501
     36 H14         4.4601   -1.9878   -1.1526 H         1 <1>         0.0462
     37 H15         6.0909   -0.5721   -0.2125 H         1 <1>         0.0528
     38 H16         5.7506    1.0832    0.3337 H         1 <1>         0.0573
     39 H17         5.0719    2.5796   -0.9272 H         1 <1>         0.0825
     40 H18         6.5646    1.0878   -2.2240 H         1 <1>         0.0785
     41 H19         3.4873   -0.2629    0.4588 H         1 <1>         0.0866
     42 H20         2.7376    0.8467   -2.0440 H         1 <1>         0.1186
@<TRIPOS>BOND
     1    1    3 ar
     2    1    4 ar
     3    2    5 ar
     4    2    6 ar
     5    3    7 ar
     6    4    8 ar
     7    5    9 ar
     8    6   10 ar
     9    7   11 ar
    10    8   11 ar
    11    9   12 ar
    12   10   12 ar
    13   11   13 1
    14   12   22 1
    15   13   17 1
    16   13   21 2
    17   14   15 1
    18   14   18 1
    19   15   19 1
    20   16   18 1
    21   16   19 1
    22   17   18 1
    23   17   20 1
    24   19   20 1
    25   20   22 1
    26   21   22 1
    27    1   23 1
    28    2   24 1
    29    3   25 1
    30    4   26 1
    31    5   27 1
    32    6   28 1
    33    7   29 1
    34    8   30 1
    35    9   31 1
    36   10   32 1
    37   14   33 1
    38   14   34 1
    39   15   35 1
    40   15   36 1
    41   16   37 1
    42   16   38 1
    43   17   39 1
    44   18   40 1
    45   19   41 1
    46   20   42 1
@<TRIPOS>Similarity
1.4782
@<TRIPOS>ShapeSim
0.7638
@<TRIPOS>PharmSim
0.7145
# END
# Name:		AO-476/43380568
# Created and modified by SHAFTS on Thu Dec 15 20:34:29 2011

# 

@<TRIPOS>MOLECULE
AO-476/43380568
   35    38     0
SMALL
USER_CHARGE


@<TRIPOS>ATOM
      1 C1          1.7325    3.6097   -2.2126 C.1       1 <1>         0.0708
      2 C2          4.9994   -3.0322    2.7655 C.ar      1 <1>        -0.1086
      3 C3          4.2902   -1.8368    2.8819 C.ar      1 <1>        -0.0947
      4 C4          5.7680   -3.2792    1.6279 C.ar      1 <1>        -0.0990
      5 C5          5.4106    4.8403   -4.6401 C.2       1 <1>        -0.1118
      6 C6          4.3494   -0.8885    1.8608 C.ar      1 <1>        -0.0484
      7 C7          5.8270   -2.3310    0.6067 C.ar      1 <1>        -0.0541
      8 C8          5.0918    4.3828   -3.3289 C.2       1 <1>        -0.0934
      9 C9          4.9321    3.9924   -5.6145 C.2       1 <1>        -0.0534
     10 C10         2.6109    2.6003   -1.6814 C.ar      1 <1>         0.1482
     11 C11         4.6930    1.4344   -1.6971 C.ar      1 <1>         0.0273
     12 C12         3.8742    2.4283   -2.2474 C.ar      1 <1>         0.0086
     13 C13         5.1178   -1.1356    0.7231 C.ar      1 <1>         0.0032
     14 C14         4.3815    3.2026   -3.3512 C.2       1 <1>        -0.0079
     15 C15         5.9820    0.9054   -1.9072 C.2       1 <1>        -0.0102
     16 C16         4.1940    0.6959   -0.6354 C.ar      1 <1>         0.0503
     17 C17         2.2346    1.7889   -0.6162 C.ar      1 <1>         0.0611
     18 C18         6.9821    1.3064   -2.9136 C.3       1 <1>        -0.0001
     19 N1          1.0244    4.4234   -2.6408 N.1       1 <1>        -0.4024
     20 N2          6.2816   -0.0825   -1.0573 N.2       1 <1>        -0.3195
     21 N3          2.9895    0.8161   -0.0504 N.ar      1 <1>        -0.3272
     22 N4          5.1766   -0.1870   -0.2971 N.pl3     1 <1>        -0.2576
     23 O1          1.0862    1.9017   -0.0565 O.3       1 <1>        -0.5023
     24 S1          4.1021    2.6510   -4.9480 S.3       1 <1>        -0.1270
     25 H1          4.9551   -3.7701    3.5611 H         1 <1>         0.1084
     26 H2          3.6929   -1.6436    3.7682 H         1 <1>         0.1221
     27 H3          6.3210   -4.2099    1.5387 H         1 <1>         0.1172
     28 H4          5.9623    5.7454   -4.8580 H         1 <1>         0.1122
     29 H5          3.7924    0.0396    1.9644 H         1 <1>         0.1422
     30 H6          6.4306   -2.5360   -0.2742 H         1 <1>         0.1299
     31 H7          5.3721    4.9005   -2.4197 H         1 <1>         0.1199
     32 H8          5.0298    4.0967   -6.6860 H         1 <1>         0.1574
     33 H9          7.6418    2.1007   -2.5261 H         1 <1>         0.0781
     34 H10         7.6225    0.4618   -3.2225 H         1 <1>         0.0850
     35 H11         6.5122    1.6845   -3.8385 H         1 <1>         0.0755
@<TRIPOS>BOND
     1    1   10 1
     2    1   19 3
     3    2    3 ar
     4    2    4 ar
     5    3    6 ar
     6    4    7 ar
     7    5    8 1
     8    5    9 2
     9    6   13 ar
    10    7   13 ar
    11    8   14 2
    12    9   24 1
    13   10   12 ar
    14   10   17 ar
    15   11   12 ar
    16   11   15 1
    17   11   16 ar
    18   12   14 1
    19   13   22 1
    20   14   24 1
    21   15   18 1
    22   15   20 2
    23   16   21 ar
    24   16   22 1
    25   17   21 ar
    26   17   23 1
    27   20   22 1
    28    2   25 1
    29    3   26 1
    30    4   27 1
    31    5   28 1
    32    6   29 1
    33    7   30 1
    34    8   31 1
    35    9   32 1
    36   18   33 1
    37   18   34 1
    38   18   35 1
@<TRIPOS>Similarity
1.4755
@<TRIPOS>ShapeSim
0.8171
@<TRIPOS>PharmSim
0.6585
# END
# Name:		AG-219/34246016
# Created and modified by SHAFTS on Thu Dec 15 20:34:29 2011

# 

@<TRIPOS>MOLECULE
AG-219/34246016
   40    42     0
SMALL
USER_CHARGE


@<TRIPOS>ATOM
      1 C1          4.9200    5.0864   -5.6317 C.ar      1 <1>        -0.1024
      2 C2          4.3000    3.8604   -5.8727 C.ar      1 <1>        -0.0983
      3 C3          5.2240    5.4694   -4.3252 C.ar      1 <1>        -0.0955
      4 C4          3.9839    3.0174   -4.8073 C.ar      1 <1>        -0.0776
      5 C5          4.9080    4.6263   -3.2599 C.ar      1 <1>        -0.0726
      6 C6          0.0446    1.3405   -0.7296 C.ar      1 <1>        -0.0499
      7 C7          0.9593    2.9521    0.8205 C.ar      1 <1>        -0.0510
      8 C8         -1.2161    1.5039   -0.1556 C.ar      1 <1>        -0.0700
      9 C9         -0.3014    3.1155    1.3945 C.ar      1 <1>        -0.0707
     10 C10         4.8565    1.5777   -1.9463 C.ar      1 <1>         0.0256
     11 C11         4.2879    3.4003   -3.5009 C.ar      1 <1>        -0.0288
     12 C12         1.1323    2.0645   -0.2416 C.ar      1 <1>         0.0167
     13 C13        -1.3892    2.3913    0.9064 C.ar      1 <1>        -0.0376
     14 C14         3.9600    2.5255   -2.3962 C.ar      1 <1>         0.0046
     15 C15         4.4265    0.8043   -0.8874 C.ar      1 <1>         0.0763
     16 C16         2.4333    1.8959   -0.8341 C.ar      1 <1>         0.0529
     17 C17         5.3692   -2.7835    2.2961 C.3       1 <1>        -0.0632
     18 C18         5.8346   -1.9162    1.1403 C.3       1 <1>        -0.0388
     19 C19         4.7644   -0.9247    0.7101 C.3       1 <1>         0.0301
     20 N1          2.7355    2.7125   -1.8615 N.ar      1 <1>        -0.3442
     21 N2          3.2169    0.9369   -0.3049 N.ar      1 <1>        -0.3274
     22 O1          5.2599   -0.1577   -0.3810 O.3       1 <1>        -0.3704
     23 Br1        -3.0972    2.6140    1.6841 Br        1 <1>        -0.1066
     24 H1          5.1676    5.7419   -6.4614 H         1 <1>         0.1228
     25 H2          4.0648    3.5614   -6.8899 H         1 <1>         0.1204
     26 H3          5.7081    6.4232   -4.1369 H         1 <1>         0.1203
     27 H4          3.5009    2.0647   -5.0117 H         1 <1>         0.1305
     28 H5          5.1515    4.9379   -2.2469 H         1 <1>         0.1413
     29 H6          0.1635    0.6447   -1.5570 H         1 <1>         0.1543
     30 H7          1.7972    3.5243    1.2116 H         1 <1>         0.1513
     31 H8         -2.0535    0.9326   -0.5481 H         1 <1>         0.1379
     32 H9         -0.4193    3.8110    2.2213 H         1 <1>         0.1370
     33 H10         5.8354    1.4430   -2.3908 H         1 <1>         0.1497
     34 H11         5.0855   -2.1701    3.1571 H         1 <1>         0.0348
     35 H12         4.4979   -3.3758    1.9994 H         1 <1>         0.0400
     36 H13         6.1580   -3.4740    2.6108 H         1 <1>         0.0348
     37 H14         6.1138   -2.5487    0.2891 H         1 <1>         0.0557
     38 H15         6.7450   -1.3747    1.4242 H         1 <1>         0.0557
     39 H16         3.8570   -1.4448    0.3867 H         1 <1>         0.1062
     40 H17         4.5113   -0.2432    1.5286 H         1 <1>         0.1061
@<TRIPOS>BOND
     1    1    2 ar
     2    1    3 ar
     3    2    4 ar
     4    3    5 ar
     5    4   11 ar
     6    5   11 ar
     7    6    8 ar
     8    6   12 ar
     9    7    9 ar
    10    7   12 ar
    11    8   13 ar
    12    9   13 ar
    13   10   14 ar
    14   10   15 ar
    15   11   14 1
    16   12   16 1
    17   13   23 1
    18   14   20 ar
    19   15   21 ar
    20   15   22 1
    21   16   20 ar
    22   16   21 ar
    23   17   18 1
    24   18   19 1
    25   19   22 1
    26    1   24 1
    27    2   25 1
    28    3   26 1
    29    4   27 1
    30    5   28 1
    31    6   29 1
    32    7   30 1
    33    8   31 1
    34    9   32 1
    35   10   33 1
    36   17   34 1
    37   17   35 1
    38   17   36 1
    39   18   37 1
    40   18   38 1
    41   19   39 1
    42   19   40 1
@<TRIPOS>Similarity
1.4745
@<TRIPOS>ShapeSim
0.8118
@<TRIPOS>PharmSim
0.6627
# END
# Name:		AO-476/40672205
# Created and modified by SHAFTS on Thu Dec 15 20:34:29 2011

# 

@<TRIPOS>MOLECULE
AO-476/40672205
   46    49     0
SMALL
USER_CHARGE


@<TRIPOS>ATOM
      1 C1          1.9034    3.5509   -2.2520 C.1       1 <1>         0.0850
      2 C2          5.0531   -3.0815    2.7828 C.ar      1 <1>        -0.0997
      3 C3          3.9782   -2.2298    2.5286 C.ar      1 <1>        -0.0905
      4 C4          6.2116   -2.9918    2.0113 C.ar      1 <1>        -0.0903
      5 C5          5.2775    4.3070   -3.1477 C.ar      1 <1>        -0.0704
      6 C6          4.3647    2.6936   -4.6972 C.ar      1 <1>        -0.0710
      7 C7          4.0618   -1.2883    1.5028 C.ar      1 <1>        -0.0518
      8 C8          6.2953   -2.0503    0.9854 C.ar      1 <1>        -0.0513
      9 C9          5.7772    5.0508   -4.2166 C.ar      1 <1>        -0.0642
     10 C10         4.8644    3.4376   -5.7662 C.ar      1 <1>        -0.0643
     11 C11         2.7857    2.5476   -1.7310 C.ar      1 <1>         0.1667
     12 C12         4.8548    1.3585   -1.7122 C.ar      1 <1>         0.0477
     13 C13         4.5713    3.1283   -3.3880 C.ar      1 <1>        -0.0394
     14 C14         4.0539    2.3571   -2.2802 C.ar      1 <1>         0.0215
     15 C15         5.2203   -1.1986    0.7312 C.ar      1 <1>         0.0048
     16 C16         5.5706    4.6161   -5.5258 C.ar      1 <1>        -0.0096
     17 C17         6.1402    0.8137   -1.9025 C.2       1 <1>         0.0115
     18 C18         4.3347    0.6341   -0.6511 C.ar      1 <1>         0.0681
     19 C19         2.3876    1.7487   -0.6643 C.ar      1 <1>         0.1397
     20 C20        -1.2488    2.3162    1.0968 C.2       1 <1>        -0.1232
     21 C21        -1.1754    1.4649    0.0676 C.2       1 <1>        -0.0996
     22 C22         7.1558    1.1955   -2.9007 C.3       1 <1>         0.0079
     23 C23         0.0804    1.1723   -0.6843 C.3       1 <1>         0.0507
     24 N1          1.1893    4.3627   -2.6736 N.1       1 <1>        -0.3632
     25 N2          6.4185   -0.1707   -1.0414 N.2       1 <1>        -0.2953
     26 N3          3.1246    0.7721   -0.0817 N.ar      1 <1>        -0.3076
     27 N4          5.3031   -0.2570   -0.2939 N.pl3     1 <1>        -0.2451
     28 O1          1.1382    1.9346   -0.1208 O.3       1 <1>        -0.3434
     29 Cl1         6.1888    5.5338   -6.8442 Cl        1 <1>        -0.1358
     30 H1          4.9892   -3.8135    3.5825 H         1 <1>         0.1217
     31 H2          3.0765   -2.2986    3.1301 H         1 <1>         0.1281
     32 H3          7.0488   -3.6545    2.2107 H         1 <1>         0.1280
     33 H4          5.4469    4.6587   -2.1328 H         1 <1>         0.1430
     34 H5          3.8169    1.7765   -4.9008 H         1 <1>         0.1401
     35 H6          3.2170   -0.6299    1.3158 H         1 <1>         0.1368
     36 H7          7.2046   -1.9905    0.3922 H         1 <1>         0.1380
     37 H8          6.3276    5.9665   -4.0150 H         1 <1>         0.1401
     38 H9          4.6969    3.0862   -6.7812 H         1 <1>         0.1396
     39 H10        -2.1830    2.4998    1.6157 H         1 <1>         0.0929
     40 H11        -0.3650    2.8453    1.4361 H         1 <1>         0.0864
     41 H12        -2.0809    0.9570   -0.2540 H         1 <1>         0.1051
     42 H13         7.8195    1.9862   -2.5123 H         1 <1>         0.0895
     43 H14         7.7908    0.3416   -3.1951 H         1 <1>         0.0862
     44 H15         6.7005    1.5706   -3.8340 H         1 <1>         0.0870
     45 H16        -0.0050    1.4251   -1.7458 H         1 <1>         0.1235
     46 H17         0.3281    0.1101   -0.5929 H         1 <1>         0.1260
@<TRIPOS>BOND
     1    1   11 1
     2    1   24 3
     3    2    3 ar
     4    2    4 ar
     5    3    7 ar
     6    4    8 ar
     7    5    9 ar
     8    5   13 ar
     9    6   10 ar
    10    6   13 ar
    11    7   15 ar
    12    8   15 ar
    13    9   16 ar
    14   10   16 ar
    15   11   14 ar
    16   11   19 ar
    17   12   14 ar
    18   12   17 1
    19   12   18 ar
    20   13   14 1
    21   15   27 1
    22   16   29 1
    23   17   22 1
    24   17   25 2
    25   18   26 ar
    26   18   27 1
    27   19   26 ar
    28   19   28 1
    29   20   21 2
    30   21   23 1
    31   23   28 1
    32   25   27 1
    33    2   30 1
    34    3   31 1
    35    4   32 1
    36    5   33 1
    37    6   34 1
    38    7   35 1
    39    8   36 1
    40    9   37 1
    41   10   38 1
    42   20   39 1
    43   20   40 1
    44   21   41 1
    45   22   42 1
    46   22   43 1
    47   22   44 1
    48   23   45 1
    49   23   46 1
@<TRIPOS>Similarity
1.4739
@<TRIPOS>ShapeSim
0.8875
@<TRIPOS>PharmSim
0.5864
# END
# Name:		AG-690/40749964
# Created and modified by SHAFTS on Thu Dec 15 20:34:29 2011

# 

@<TRIPOS>MOLECULE
AG-690/40749964
   45    47     0
SMALL
USER_CHARGE


@<TRIPOS>ATOM
      1 C1          6.2897    1.2451   -2.4421 C.1       1 <1>         0.0757
      2 C2          0.8564    3.1086    0.4646 C.ar      1 <1>        -0.0737
      3 C3          0.3449    0.8200   -0.1164 C.ar      1 <1>        -0.0780
      4 C4          5.1613    4.4751   -3.2536 C.ar      1 <1>        -0.0756
      5 C5          4.2466    2.8628   -4.8031 C.ar      1 <1>        -0.0742
      6 C6         -0.3912    3.2321    1.0763 C.ar      1 <1>        -0.0953
      7 C7         -0.9026    0.9435    0.4953 C.ar      1 <1>        -0.0976
      8 C8          5.5320    5.2916   -4.3220 C.ar      1 <1>        -0.0662
      9 C9          4.6173    3.6792   -5.8715 C.ar      1 <1>        -0.0660
     10 C10         2.8742    2.5907   -1.8259 C.ar      1 <1>        -0.0188
     11 C11         4.9854    1.4396   -1.8749 C.ar      1 <1>         0.1154
     12 C12         4.5185    3.2607   -3.4941 C.ar      1 <1>        -0.0529
     13 C13         1.2243    1.9026   -0.1318 C.ar      1 <1>        -0.0315
     14 C14         4.1345    2.4134   -2.3858 C.ar      1 <1>        -0.0070
     15 C15        -1.2706    2.1495    1.0917 C.ar      1 <1>        -0.1148
     16 C16         5.2600    4.8937   -5.6309 C.ar      1 <1>        -0.0112
     17 C17         2.5152    1.7749   -0.7651 C.ar      1 <1>        -0.0026
     18 C18         4.5319    0.6755   -0.8118 C.ar      1 <1>         0.0577
     19 C19        -2.6045    2.2815    1.7456 C.3       1 <1>        -0.0414
     20 C20         3.3448   -2.0911    0.5761 C.3       1 <1>        -0.0520
     21 C21         5.1635   -1.8925    2.3063 C.3       1 <1>        -0.0503
     22 C22         4.3928   -1.1789    1.2021 C.3       1 <1>        -0.0099
     23 N1          7.3442    1.0879   -2.9006 N.1       1 <1>        -0.3592
     24 N2          3.3145    0.8185   -0.2417 N.ar      1 <1>        -0.3581
     25 S1          5.5394   -0.6072   -0.0688 S.3       1 <1>        -0.1257
     26 Cl1         5.7192    5.9009   -6.9488 Cl        1 <1>        -0.1374
     27 H1          1.5305    3.9618    0.4604 H         1 <1>         0.1400
     28 H2          0.6175   -0.1268   -0.5765 H         1 <1>         0.1309
     29 H3          5.3803    4.7989   -2.2388 H         1 <1>         0.1352
     30 H4          3.7471    1.9185   -5.0069 H         1 <1>         0.1416
     31 H5         -0.6699    4.1758    1.5376 H         1 <1>         0.1196
     32 H6         -1.5814    0.0946    0.5031 H         1 <1>         0.1206
     33 H7          6.0339    6.2347   -4.1204 H         1 <1>         0.1379
     34 H8          4.4001    3.3560   -6.8865 H         1 <1>         0.1385
     35 H9          2.1905    3.3448   -2.2062 H         1 <1>         0.1501
     36 H10        -3.3512    2.6318    1.0226 H         1 <1>         0.0589
     37 H11        -2.9428    1.3222    2.1580 H         1 <1>         0.0551
     38 H12        -2.5696    2.9921    2.5818 H         1 <1>         0.0549
     39 H13         3.8207   -2.9813    0.1499 H         1 <1>         0.0423
     40 H14         2.6192   -2.4352    1.3217 H         1 <1>         0.0518
     41 H15         2.7980   -1.5917   -0.2318 H         1 <1>         0.0384
     42 H16         5.6674   -2.7797    1.9066 H         1 <1>         0.0445
     43 H17         4.4943   -2.2302    3.1054 H         1 <1>         0.0536
     44 H18         5.9322   -1.2493    2.7497 H         1 <1>         0.0444
     45 H19         3.8975   -0.2967    1.6216 H         1 <1>         0.0923
@<TRIPOS>BOND
     1    1   11 1
     2    1   23 3
     3    2    6 ar
     4    2   13 ar
     5    3    7 ar
     6    3   13 ar
     7    4    8 ar
     8    4   12 ar
     9    5    9 ar
    10    5   12 ar
    11    6   15 ar
    12    7   15 ar
    13    8   16 ar
    14    9   16 ar
    15   10   14 ar
    16   10   17 ar
    17   11   14 ar
    18   11   18 ar
    19   12   14 1
    20   13   17 1
    21   15   19 1
    22   16   26 1
    23   17   24 ar
    24   18   24 ar
    25   18   25 1
    26   20   22 1
    27   21   22 1
    28   22   25 1
    29    2   27 1
    30    3   28 1
    31    4   29 1
    32    5   30 1
    33    6   31 1
    34    7   32 1
    35    8   33 1
    36    9   34 1
    37   10   35 1
    38   19   36 1
    39   19   37 1
    40   19   38 1
    41   20   39 1
    42   20   40 1
    43   20   41 1
    44   21   42 1
    45   21   43 1
    46   21   44 1
    47   22   45 1
@<TRIPOS>Similarity
1.4739
@<TRIPOS>ShapeSim
0.8877
@<TRIPOS>PharmSim
0.5863
# END
# Name:		AO-476/43380569
# Created and modified by SHAFTS on Thu Dec 15 20:34:29 2011

# 

@<TRIPOS>MOLECULE
AO-476/43380569
   37    40     0
SMALL
USER_CHARGE


@<TRIPOS>ATOM
      1 C1          1.7321    3.6096   -2.2120 C.1       1 <1>         0.0651
      2 C2          4.9992   -3.0323    2.7656 C.ar      1 <1>        -0.1086
      3 C3          4.2901   -1.8367    2.8820 C.ar      1 <1>        -0.0948
      4 C4          5.7678   -3.2794    1.6281 C.ar      1 <1>        -0.0990
      5 C5          4.6615    3.5796   -5.7149 C.ar      1 <1>        -0.0695
      6 C6          4.1702    2.8052   -4.6697 C.ar      1 <1>        -0.0705
      7 C7          4.3493   -0.8885    1.8608 C.ar      1 <1>        -0.0486
      8 C8          5.8271   -2.3311    0.6069 C.ar      1 <1>        -0.0541
      9 C9          5.3439    4.7424   -5.3954 C.ar      1 <1>        -0.0461
     10 C10         5.0691    4.3907   -3.1417 C.ar      1 <1>        -0.0200
     11 C11         2.6113    2.6003   -1.6815 C.ar      1 <1>         0.1396
     12 C12         4.6933    1.4342   -1.6971 C.ar      1 <1>         0.0213
     13 C13         4.3735    3.2115   -3.3557 C.ar      1 <1>        -0.0193
     14 C14         3.8746    2.4282   -2.2474 C.ar      1 <1>        -0.0010
     15 C15         5.1178   -1.1357    0.7232 C.ar      1 <1>         0.0030
     16 C16         5.9823    0.9051   -1.9072 C.2       1 <1>        -0.0108
     17 C17         4.1941    0.6958   -0.6354 C.ar      1 <1>         0.0479
     18 C18         2.2349    1.7889   -0.6164 C.ar      1 <1>         0.0564
     19 C19         6.9819    1.3066   -2.9137 C.3       1 <1>        -0.0002
     20 N1          1.0234    4.4230   -2.6398 N.1       1 <1>        -0.4056
     21 N2          5.5611    5.1694   -4.1312 N.ar      1 <1>        -0.4008
     22 N3          6.2818   -0.0827   -1.0572 N.2       1 <1>        -0.3196
     23 N4          2.9896    0.8161   -0.0505 N.ar      1 <1>        -0.3290
     24 N5          5.1767   -0.1872   -0.2971 N.pl3     1 <1>        -0.2580
     25 O1          1.0864    1.9017   -0.0565 O.3       1 <1>        -0.5039
     26 H1          4.9548   -3.7702    3.5613 H         1 <1>         0.1085
     27 H2          3.6927   -1.6435    3.7681 H         1 <1>         0.1219
     28 H3          6.3208   -4.2100    1.5390 H         1 <1>         0.1173
     29 H4          4.5159    3.2828   -6.7471 H         1 <1>         0.1233
     30 H5          3.6309    1.8883   -4.8942 H         1 <1>         0.1410
     31 H6          3.7924    0.0396    1.9644 H         1 <1>         0.1419
     32 H7          6.4306   -2.5363   -0.2740 H         1 <1>         0.1301
     33 H8          5.7465    5.3817   -6.1744 H         1 <1>         0.1936
     34 H9          5.2621    4.7623   -2.1394 H         1 <1>         0.2086
     35 H10         7.6416    2.1011   -2.5262 H         1 <1>         0.0832
     36 H11         7.6225    0.4623   -3.2229 H         1 <1>         0.0782
     37 H12         6.5117    1.6848   -3.8385 H         1 <1>         0.0783
@<TRIPOS>BOND
     1    1   11 1
     2    1   20 3
     3    2    3 ar
     4    2    4 ar
     5    3    7 ar
     6    4    8 ar
     7    5    6 ar
     8    5    9 ar
     9    6   13 ar
    10    7   15 ar
    11    8   15 ar
    12    9   21 ar
    13   10   13 ar
    14   10   21 ar
    15   11   14 ar
    16   11   18 ar
    17   12   14 ar
    18   12   16 1
    19   12   17 ar
    20   13   14 1
    21   15   24 1
    22   16   19 1
    23   16   22 2
    24   17   23 ar
    25   17   24 1
    26   18   23 ar
    27   18   25 1
    28   22   24 1
    29    2   26 1
    30    3   27 1
    31    4   28 1
    32    5   29 1
    33    6   30 1
    34    7   31 1
    35    8   32 1
    36    9   33 1
    37   10   34 1
    38   19   35 1
    39   19   36 1
    40   19   37 1
@<TRIPOS>Similarity
1.4735
@<TRIPOS>ShapeSim
0.8280
@<TRIPOS>PharmSim
0.6455
# END
# Name:		AG-205/36286009
# Created and modified by SHAFTS on Thu Dec 15 20:34:29 2011

# 

@<TRIPOS>MOLECULE
AG-205/36286009
   48    50     0
SMALL
USER_CHARGE


@<TRIPOS>ATOM
      1 C1         -1.2533    2.0720    1.1498 C.ar      1 <1>        -0.0961
      2 C2         -0.8393    0.9338    0.4578 C.ar      1 <1>        -0.0922
      3 C3         -0.4740    3.2285    1.1197 C.ar      1 <1>        -0.0865
      4 C4          5.4336    4.2192   -3.4020 C.ar      1 <1>        -0.0739
      5 C5          3.6215    3.4735   -4.8153 C.ar      1 <1>        -0.0742
      6 C6          5.9686    4.9412   -4.4688 C.ar      1 <1>        -0.0964
      7 C7          4.1565    4.1956   -5.8821 C.ar      1 <1>        -0.0962
      8 C8          0.3540    0.9521   -0.2642 C.ar      1 <1>        -0.0610
      9 C9          0.7193    3.2468    0.3978 C.ar      1 <1>        -0.0509
     10 C10         4.3358    1.7000   -1.7635 C.2       1 <1>        -0.0078
     11 C11         4.2602    3.4852   -3.5753 C.ar      1 <1>        -0.0316
     12 C12         5.3300    4.9295   -5.7088 C.ar      1 <1>        -0.1152
     13 C13         1.1334    2.1087   -0.2942 C.ar      1 <1>        -0.0055
     14 C14         3.7082    2.7408   -2.4739 C.2       1 <1>         0.0170
     15 C15         3.4111    1.3211   -0.8214 C.2       1 <1>         0.0182
     16 C16         4.4526   -0.5284    0.4777 C.2       1 <1>        -0.0102
     17 C17         4.5209   -1.4776    1.4257 C.2       1 <1>         0.0666
     18 C18         5.7746   -2.2923    1.5239 C.2       1 <1>         0.0618
     19 C19         3.3688   -1.7132    2.3568 C.2       1 <1>         0.0565
     20 C20         5.9020    5.7030   -6.8484 C.3       1 <1>        -0.0423
     21 C21         5.8367   -3.3532    2.5921 C.3       1 <1>         0.0283
     22 C22         2.2947   -2.7043    1.9828 C.3       1 <1>         0.0281
     23 N1          2.4796    3.0059   -2.0218 N.2       1 <1>        -0.3021
     24 N2          2.3278    2.1262   -1.0173 N.pl3     1 <1>        -0.2666
     25 N3          3.4466    0.3379    0.1775 N.pl3     1 <1>        -0.3196
     26 O1          6.7253   -2.0986    0.7681 O.2       1 <1>        -0.4751
     27 O2          3.2953   -1.0861    3.4144 O.2       1 <1>        -0.4899
     28 H1         -2.1833    2.0588    1.7106 H         1 <1>         0.1263
     29 H2         -1.4466    0.0337    0.4799 H         1 <1>         0.1337
     30 H3         -0.7978    4.1148    1.6577 H         1 <1>         0.1335
     31 H4          5.9441    4.2382   -2.4419 H         1 <1>         0.1337
     32 H5          2.7060    2.9064   -4.9663 H         1 <1>         0.1327
     33 H6          6.8827    5.5110   -4.3251 H         1 <1>         0.1199
     34 H7          3.6528    4.1815   -6.8450 H         1 <1>         0.1215
     35 H8          0.6648    0.0584   -0.7998 H         1 <1>         0.1223
     36 H9          1.3168    4.1552    0.3821 H         1 <1>         0.1423
     37 H10         5.3211    1.2809   -1.9112 H         1 <1>         0.1409
     38 H11         5.2819   -0.3525   -0.1981 H         1 <1>         0.2537
     39 H12         6.6033    5.0813   -7.4183 H         1 <1>         0.0581
     40 H13         5.1142    6.0517   -7.5287 H         1 <1>         0.0543
     41 H14         6.4354    6.5956   -6.4963 H         1 <1>         0.0548
     42 H15         5.4575   -4.2971    2.1931 H         1 <1>         0.0779
     43 H16         5.2245   -3.0396    3.4427 H         1 <1>         0.0753
     44 H17         6.8599   -3.4880    2.9532 H         1 <1>         0.0740
     45 H18         2.5569   -3.6977    2.3545 H         1 <1>         0.0652
     46 H19         1.3246   -2.3860    2.3737 H         1 <1>         0.0789
     47 H20         2.2112   -2.7481    0.8923 H         1 <1>         0.0813
     48 H21         2.6225    0.2511    0.7567 H         1 <1>         0.3367
@<TRIPOS>BOND
     1    1    2 ar
     2    1    3 ar
     3    2    8 ar
     4    3    9 ar
     5    4    6 ar
     6    4   11 ar
     7    5    7 ar
     8    5   11 ar
     9    6   12 ar
    10    7   12 ar
    11    8   13 ar
    12    9   13 ar
    13   10   14 1
    14   10   15 2
    15   11   14 1
    16   12   20 1
    17   13   24 1
    18   14   23 2
    19   15   24 1
    20   15   25 1
    21   16   17 2
    22   16   25 1
    23   17   18 1
    24   17   19 1
    25   18   21 1
    26   18   26 2
    27   19   22 1
    28   19   27 2
    29   23   24 1
    30    1   28 1
    31    2   29 1
    32    3   30 1
    33    4   31 1
    34    5   32 1
    35    6   33 1
    36    7   34 1
    37    8   35 1
    38    9   36 1
    39   10   37 1
    40   16   38 1
    41   20   39 1
    42   20   40 1
    43   20   41 1
    44   21   42 1
    45   21   43 1
    46   21   44 1
    47   22   45 1
    48   22   46 1
    49   22   47 1
    50   25   48 1
@<TRIPOS>Similarity
1.4734
@<TRIPOS>ShapeSim
0.8447
@<TRIPOS>PharmSim
0.6286
# END
# Name:		AO-476/43201381
# Created and modified by SHAFTS on Thu Dec 15 20:34:29 2011

# 

@<TRIPOS>MOLECULE
AO-476/43201381
   42    45     0
SMALL
USER_CHARGE


@<TRIPOS>ATOM
      1 C1          5.4471   -3.3730    2.8548 C.ar      1 <1>        -0.0957
      2 C2          5.4457   -3.6202    1.4820 C.ar      1 <1>        -0.0889
      3 C3          5.1504   -2.0972    3.3341 C.ar      1 <1>        -0.0866
      4 C4          5.1477   -2.5913    0.5885 C.ar      1 <1>        -0.0548
      5 C5          4.8524   -1.0683    2.4406 C.ar      1 <1>        -0.0513
      6 C6          4.6515    1.1773   -1.4064 C.ar      1 <1>         0.0157
      7 C7          3.3808    1.2479   -0.7282 C.ar      1 <1>         0.0849
      8 C8          4.8511   -1.3154    1.0677 C.ar      1 <1>        -0.0020
      9 C9          5.0607    1.9677   -2.4698 C.ar      1 <1>        -0.0044
     10 C10         5.3760    0.1883   -0.8071 C.2       1 <1>        -0.0128
     11 C11         2.4190    2.1847   -1.1330 C.ar      1 <1>         0.0941
     12 C12         0.8200    3.6040    0.0852 C.3       1 <1>         0.0046
     13 C13         0.5231    1.1426    0.0812 C.3       1 <1>         0.0053
     14 C14        -0.6939    3.7203    0.2217 C.3       1 <1>         0.0213
     15 C15        -0.9750    1.3904    0.2185 C.3       1 <1>         0.0224
     16 C16         6.3504    1.9426   -3.2037 C.3       1 <1>        -0.0003
     17 C17         6.7307   -0.3488   -1.0503 C.3       1 <1>         0.0043
     18 N1          3.3531    0.3243    0.2480 N.2       1 <1>        -0.2945
     19 N2          4.1079    2.8651   -2.8388 N.ar      1 <1>        -0.2969
     20 N3          2.8072    2.9694   -2.1779 N.ar      1 <1>        -0.2596
     21 N4          4.5528   -0.2863    0.1730 N.pl3     1 <1>        -0.2787
     22 N5          1.1654    2.3133   -0.5262 N.pl3     1 <1>        -0.3589
     23 O1         -1.2182    2.6004    0.9350 O.3       1 <1>        -0.4567
     24 H1          5.6773   -4.1741    3.5510 H         1 <1>         0.1279
     25 H2          5.6753   -4.6138    1.1086 H         1 <1>         0.1322
     26 H3          5.1503   -1.9059    4.4033 H         1 <1>         0.1317
     27 H4          5.1492   -2.7976   -0.4790 H         1 <1>         0.1361
     28 H5          4.6222   -0.0787    2.8278 H         1 <1>         0.1407
     29 H6          1.1971    4.4350   -0.5223 H         1 <1>         0.1054
     30 H7          1.2834    3.6651    1.0783 H         1 <1>         0.1293
     31 H8          0.9577    0.9688    1.0740 H         1 <1>         0.1310
     32 H9          0.6904    0.2471   -0.5288 H         1 <1>         0.1068
     33 H10        -0.9490    4.6257    0.7816 H         1 <1>         0.1326
     34 H11        -1.1806    3.7892   -0.7588 H         1 <1>         0.0939
     35 H12        -1.4615    1.4449   -0.7631 H         1 <1>         0.1340
     36 H13        -1.4405    0.5697    0.7736 H         1 <1>         0.0946
     37 H14         6.3000    1.2498   -4.0559 H         1 <1>         0.0780
     38 H15         6.6180    2.9384   -3.5881 H         1 <1>         0.0741
     39 H16         7.1806    1.6261   -2.5543 H         1 <1>         0.0797
     40 H17         7.4839    0.1927   -0.4560 H         1 <1>         0.0889
     41 H18         6.8030   -1.4183   -0.7909 H         1 <1>         0.0798
     42 H19         7.0206   -0.2714   -2.1118 H         1 <1>         0.0926
@<TRIPOS>BOND
     1    1    2 ar
     2    1    3 ar
     3    2    4 ar
     4    3    5 ar
     5    4    8 ar
     6    5    8 ar
     7    6    7 ar
     8    6    9 ar
     9    6   10 2
    10    7   11 ar
    11    7   18 2
    12    8   21 1
    13    9   16 1
    14    9   19 ar
    15   10   17 1
    16   10   21 1
    17   11   20 ar
    18   11   22 1
    19   12   14 1
    20   12   22 1
    21   13   15 1
    22   13   22 1
    23   14   23 1
    24   15   23 1
    25   18   21 1
    26   19   20 ar
    27    1   24 1
    28    2   25 1
    29    3   26 1
    30    4   27 1
    31    5   28 1
    32   12   29 1
    33   12   30 1
    34   13   31 1
    35   13   32 1
    36   14   33 1
    37   14   34 1
    38   15   35 1
    39   15   36 1
    40   16   37 1
    41   16   38 1
    42   16   39 1
    43   17   40 1
    44   17   41 1
    45   17   42 1
@<TRIPOS>Similarity
1.4717
@<TRIPOS>ShapeSim
0.7779
@<TRIPOS>PharmSim
0.6939
# END
# Name:		AM-807/13104264
# Created and modified by SHAFTS on Thu Dec 15 20:34:29 2011

# 

@<TRIPOS>MOLECULE
AM-807/13104264
   37    39     0
SMALL
USER_CHARGE


@<TRIPOS>ATOM
      1 C1          6.1932    1.4126   -2.4230 C.1       1 <1>         0.0781
      2 C2          5.2825   -3.2438    1.3350 C.1       1 <1>         0.0123
      3 C3         -0.9002    2.8847    0.6641 C.2       1 <1>        -0.1017
      4 C4          5.0377    4.6147   -3.3078 C.ar      1 <1>        -0.0753
      5 C5          4.1477    2.9607   -4.8275 C.ar      1 <1>        -0.0739
      6 C6          5.4060    5.4120   -4.3914 C.ar      1 <1>        -0.0657
      7 C7          4.5160    3.7580   -5.9111 C.ar      1 <1>        -0.0654
      8 C8          0.3084    3.1724   -0.0336 C.2       1 <1>        -0.0834
      9 C9          2.7619    2.7379   -1.8526 C.ar      1 <1>        -0.0105
     10 C10        -0.9717    1.5652    1.0530 C.2       1 <1>        -0.0418
     11 C11         4.8842    1.6066   -1.8664 C.ar      1 <1>         0.1186
     12 C12         4.4086    3.3889   -3.5258 C.ar      1 <1>        -0.0517
     13 C13         4.0271    2.5615   -2.4018 C.ar      1 <1>        -0.0026
     14 C14         5.1452    4.9838   -5.6930 C.ar      1 <1>        -0.0104
     15 C15         2.4048    1.9407   -0.7772 C.ar      1 <1>         0.0098
     16 C16         1.1148    2.0615   -0.1511 C.2       1 <1>         0.0150
     17 C17         4.4322    0.8600   -0.7903 C.ar      1 <1>         0.0648
     18 C18         4.8889   -2.0664    2.1230 C.3       1 <1>         0.0850
     19 C19         4.2994   -0.9545    1.2598 C.3       1 <1>         0.0427
     20 N1          7.2514    1.2559   -2.8729 N.1       1 <1>        -0.3556
     21 N2          5.5943   -4.1737    0.7150 N.1       1 <1>        -0.3957
     22 N3          3.2102    1.0029   -0.2299 N.ar      1 <1>        -0.3509
     23 S1          0.4144    0.6792    0.5774 S.3       1 <1>        -0.1147
     24 S2          5.4473   -0.3985   -0.0167 S.3       1 <1>        -0.1082
     25 Cl1         5.6013    5.9675   -7.0295 Cl        1 <1>        -0.1364
     26 H1         -1.6775    3.6086    0.8710 H         1 <1>         0.1165
     27 H2          5.2479    4.9621   -2.2991 H         1 <1>         0.1361
     28 H3          3.6589    2.0072   -5.0137 H         1 <1>         0.1423
     29 H4          5.8974    6.3642   -4.2072 H         1 <1>         0.1386
     30 H5          4.3076    3.4112   -6.9200 H         1 <1>         0.1393
     31 H6          0.5664    4.1487   -0.4252 H         1 <1>         0.1351
     32 H7          2.0727    3.4771   -2.2519 H         1 <1>         0.1534
     33 H8         -1.7713    1.0792    1.5941 H         1 <1>         0.1740
     34 H9          4.1867   -2.3567    2.9133 H         1 <1>         0.1397
     35 H10         5.7802   -1.6756    2.6291 H         1 <1>         0.1397
     36 H11         4.0152   -0.0908    1.8704 H         1 <1>         0.1015
     37 H12         3.3979   -1.3197    0.7571 H         1 <1>         0.1015
@<TRIPOS>BOND
     1    1   11 1
     2    1   20 3
     3    2   18 1
     4    2   21 3
     5    3    8 1
     6    3   10 2
     7    4    6 ar
     8    4   12 ar
     9    5    7 ar
    10    5   12 ar
    11    6   14 ar
    12    7   14 ar
    13    8   16 2
    14    9   13 ar
    15    9   15 ar
    16   10   23 1
    17   11   13 ar
    18   11   17 ar
    19   12   13 1
    20   14   25 1
    21   15   16 1
    22   15   22 ar
    23   16   23 1
    24   17   22 ar
    25   17   24 1
    26   18   19 1
    27   19   24 1
    28    3   26 1
    29    4   27 1
    30    5   28 1
    31    6   29 1
    32    7   30 1
    33    8   31 1
    34    9   32 1
    35   10   33 1
    36   18   34 1
    37   18   35 1
    38   19   36 1
    39   19   37 1
@<TRIPOS>Similarity
1.4708
@<TRIPOS>ShapeSim
0.9013
@<TRIPOS>PharmSim
0.5694
# END
# Name:		AK-249/12180001
# Created and modified by SHAFTS on Thu Dec 15 20:34:29 2011

# 

@<TRIPOS>MOLECULE
AK-249/12180001
   55    59     0
SMALL
USER_CHARGE


@<TRIPOS>ATOM
      1 C1         -1.2538    2.0780    1.1616 C.ar      1 <1>        -0.1013
      2 C2          5.2013   -3.4833    1.7354 C.ar      1 <1>        -0.0976
      3 C3         -0.8224    0.9338    0.4905 C.ar      1 <1>        -0.0908
      4 C4         -0.5016    3.2508    1.0951 C.ar      1 <1>        -0.0921
      5 C5          5.0928   -3.1361    3.0820 C.ar      1 <1>        -0.1011
      6 C6          5.0845   -2.5023    0.7506 C.ar      1 <1>        -0.0655
      7 C7          0.3613    0.9623   -0.2467 C.ar      1 <1>        -0.0503
      8 C8          0.6821    3.2793    0.3578 C.ar      1 <1>        -0.0519
      9 C9          4.8672   -1.8081    3.4439 C.ar      1 <1>        -0.0617
     10 C10         6.5776    1.3862   -2.7479 C.ar      1 <1>        -0.0326
     11 C11         7.0019   -0.5932   -0.8093 C.ar      1 <1>        -0.0307
     12 C12         5.5678    1.0870   -1.8128 C.ar      1 <1>        -0.0461
     13 C13         5.7758    0.0906   -0.8337 C.ar      1 <1>        -0.0090
     14 C14         4.3202    1.7543   -1.8065 C.ar      1 <1>         0.0144
     15 C15         4.8589   -1.1742    1.1125 C.ar      1 <1>         0.0277
     16 C16         1.1136    2.1350   -0.3132 C.ar      1 <1>         0.0044
     17 C17         4.7503   -0.8271    2.4592 C.ar      1 <1>         0.0216
     18 C18         7.7876    0.6945   -2.7050 C.ar      1 <1>         0.0467
     19 C19         7.9988   -0.2908   -1.7401 C.ar      1 <1>         0.0453
     20 C20         4.7401   -0.1686    0.0724 C.ar      1 <1>         0.0326
     21 C21         3.6595    2.7679   -2.5348 C.2       1 <1>        -0.0015
     22 C22         3.3956    1.3825   -0.8424 C.ar      1 <1>         0.0567
     23 C23         4.1525    3.5427   -3.6878 C.3       1 <1>         0.0025
     24 C24         5.6763    1.2759    3.0719 C.3       1 <1>         0.0289
     25 C25         9.6935    2.0060   -3.2554 C.3       1 <1>         0.0291
     26 C26         9.3208   -1.9600   -0.6809 C.3       1 <1>         0.0258
     27 N1          3.5331    0.4469    0.1118 N.ar      1 <1>        -0.3271
     28 N2          2.4286    3.0192   -2.0785 N.2       1 <1>        -0.3057
     29 N3          2.2967    2.1628   -1.0506 N.pl3     1 <1>        -0.2532
     30 O1          4.5282    0.4630    2.8415 O.3       1 <1>        -0.4030
     31 O2          8.7590    0.9902   -3.6138 O.3       1 <1>        -0.3999
     32 O3          9.1809   -0.9682   -1.6957 O.3       1 <1>        -0.4061
     33 H1         -2.1763    2.0568    1.7342 H         1 <1>         0.1194
     34 H2          5.3773   -4.5173    1.4539 H         1 <1>         0.1157
     35 H3         -1.4086    0.0209    0.5411 H         1 <1>         0.1264
     36 H4         -0.8391    4.1418    1.6167 H         1 <1>         0.1258
     37 H5          5.1838   -3.9001    3.8486 H         1 <1>         0.1301
     38 H6          5.1714   -2.7897   -0.2946 H         1 <1>         0.1409
     39 H7          0.6858    0.0636   -0.7657 H         1 <1>         0.1382
     40 H8          1.2584    4.2003    0.3137 H         1 <1>         0.1358
     41 H9          4.7838   -1.5452    4.4950 H         1 <1>         0.1152
     42 H10         6.4351    2.1494   -3.5070 H         1 <1>         0.1367
     43 H11         7.2039   -1.3660   -0.0711 H         1 <1>         0.1436
     44 H12         3.9039    3.0439   -4.6397 H         1 <1>         0.0857
     45 H13         3.7215    4.5586   -3.7211 H         1 <1>         0.0835
     46 H14         5.2479    3.6793   -3.6591 H         1 <1>         0.0820
     47 H15         5.3600    2.2784    3.3701 H         1 <1>         0.1216
     48 H16         6.2762    1.3278    2.1598 H         1 <1>         0.0912
     49 H17         6.2720    0.8310    3.8725 H         1 <1>         0.0901
     50 H18        10.4128    2.1430   -4.0666 H         1 <1>         0.1249
     51 H19        10.2131    1.7173   -2.3382 H         1 <1>         0.0915
     52 H20         9.1546    2.9416   -3.0875 H         1 <1>         0.0910
     53 H21        10.3075   -2.4234   -0.7568 H         1 <1>         0.1236
     54 H22         8.5410   -2.7166   -0.7996 H         1 <1>         0.0893
     55 H23         9.2183   -1.4846    0.2975 H         1 <1>         0.0895
@<TRIPOS>BOND
     1    1    3 ar
     2    1    4 ar
     3    2    5 ar
     4    2    6 ar
     5    3    7 ar
     6    4    8 ar
     7    5    9 ar
     8    6   15 ar
     9    7   16 ar
    10    8   16 ar
    11    9   17 ar
    12   10   12 ar
    13   10   18 ar
    14   11   13 ar
    15   11   19 ar
    16   12   13 ar
    17   12   14 ar
    18   13   20 ar
    19   14   21 1
    20   14   22 ar
    21   15   17 ar
    22   15   20 1
    23   16   29 1
    24   17   30 1
    25   18   19 ar
    26   18   31 1
    27   19   32 1
    28   20   27 ar
    29   21   23 1
    30   21   28 2
    31   22   27 ar
    32   22   29 1
    33   24   30 1
    34   25   31 1
    35   26   32 1
    36   28   29 1
    37    1   33 1
    38    2   34 1
    39    3   35 1
    40    4   36 1
    41    5   37 1
    42    6   38 1
    43    7   39 1
    44    8   40 1
    45    9   41 1
    46   10   42 1
    47   11   43 1
    48   23   44 1
    49   23   45 1
    50   23   46 1
    51   24   47 1
    52   24   48 1
    53   24   49 1
    54   25   50 1
    55   25   51 1
    56   25   52 1
    57   26   53 1
    58   26   54 1
    59   26   55 1
@<TRIPOS>Similarity
1.4692
@<TRIPOS>ShapeSim
0.7772
@<TRIPOS>PharmSim
0.6920
# END
# Name:		AG-690/40749470
# Created and modified by SHAFTS on Thu Dec 15 20:34:29 2011

# 

@<TRIPOS>MOLECULE
AG-690/40749470
   46    48     0
SMALL
USER_CHARGE


@<TRIPOS>ATOM
      1 C1          6.2896    1.2450   -2.4421 C.1       1 <1>         0.0751
      2 C2          0.8560    3.1087    0.4646 C.ar      1 <1>        -0.0767
      3 C3          0.3450    0.8200   -0.1164 C.ar      1 <1>        -0.0631
      4 C4          5.1613    4.4751   -3.2536 C.ar      1 <1>        -0.0756
      5 C5          4.2466    2.8628   -4.8031 C.ar      1 <1>        -0.0743
      6 C6         -0.3913    3.2320    1.0765 C.ar      1 <1>        -0.0646
      7 C7         -0.9024    0.9432    0.4955 C.ar      1 <1>        -0.0498
      8 C8          5.5322    5.2916   -4.3221 C.ar      1 <1>        -0.0663
      9 C9          4.6174    3.6792   -5.8715 C.ar      1 <1>        -0.0662
     10 C10         2.8742    2.5908   -1.8260 C.ar      1 <1>        -0.0198
     11 C11         4.9853    1.4397   -1.8749 C.ar      1 <1>         0.1150
     12 C12         4.5186    3.2607   -3.4941 C.ar      1 <1>        -0.0529
     13 C13         1.2242    1.9028   -0.1319 C.ar      1 <1>        -0.0292
     14 C14         4.1345    2.4135   -2.3858 C.ar      1 <1>        -0.0075
     15 C15        -1.2705    2.1493    1.0919 C.ar      1 <1>        -0.0116
     16 C16         5.2602    4.8937   -5.6310 C.ar      1 <1>        -0.0113
     17 C17         2.5151    1.7751   -0.7652 C.ar      1 <1>        -0.0048
     18 C18         4.5318    0.6755   -0.8118 C.ar      1 <1>         0.0574
     19 C19         4.7686   -2.5903    1.6364 C.3       1 <1>        -0.0520
     20 C20         4.4071   -0.2118    2.3799 C.3       1 <1>        -0.0503
     21 C21        -2.7989    3.5304    2.2804 C.3       1 <1>         0.0250
     22 C22         4.3926   -1.1788    1.2021 C.3       1 <1>        -0.0099
     23 N1          7.3441    1.0878   -2.9006 N.1       1 <1>        -0.3600
     24 N2          3.3144    0.8186   -0.2417 N.ar      1 <1>        -0.3590
     25 O1         -2.4873    2.2696    1.6895 O.3       1 <1>        -0.4155
     26 S1          5.5392   -0.6072   -0.0687 S.3       1 <1>        -0.1257
     27 Cl1         5.7194    5.9009   -6.9488 Cl        1 <1>        -0.1376
     28 H1          1.5305    3.9617    0.4607 H         1 <1>         0.1389
     29 H2          0.6174   -0.1266   -0.5769 H         1 <1>         0.1532
     30 H3          5.3804    4.7989   -2.2389 H         1 <1>         0.1352
     31 H4          3.7471    1.9185   -5.0069 H         1 <1>         0.1415
     32 H5         -0.6724    4.1739    1.5396 H         1 <1>         0.1153
     33 H6         -1.5831    0.0964    0.5047 H         1 <1>         0.1312
     34 H7          6.0341    6.2347   -4.1204 H         1 <1>         0.1379
     35 H8          4.4002    3.3560   -6.8865 H         1 <1>         0.1383
     36 H9          2.1905    3.3450   -2.2063 H         1 <1>         0.1486
     37 H10         5.7699   -2.5976    2.0813 H         1 <1>         0.0383
     38 H11         4.0737   -2.9734    2.3921 H         1 <1>         0.0426
     39 H12         4.7786   -3.2890    0.7921 H         1 <1>         0.0518
     40 H13         5.4029   -0.1825    2.8362 H         1 <1>         0.0444
     41 H14         3.7008   -0.5211    3.1585 H         1 <1>         0.0537
     42 H15         4.1555    0.8099    2.0733 H         1 <1>         0.0443
     43 H16        -3.7979    3.4900    2.7214 H         1 <1>         0.0904
     44 H17        -2.7572    4.3117    1.5173 H         1 <1>         0.0904
     45 H18        -2.0667    3.7475    3.0617 H         1 <1>         0.1228
     46 H19         3.3902   -1.1932    0.7609 H         1 <1>         0.0925
@<TRIPOS>BOND
     1    1   11 1
     2    1   23 3
     3    2    6 ar
     4    2   13 ar
     5    3    7 ar
     6    3   13 ar
     7    4    8 ar
     8    4   12 ar
     9    5    9 ar
    10    5   12 ar
    11    6   15 ar
    12    7   15 ar
    13    8   16 ar
    14    9   16 ar
    15   10   14 ar
    16   10   17 ar
    17   11   14 ar
    18   11   18 ar
    19   12   14 1
    20   13   17 1
    21   15   25 1
    22   16   27 1
    23   17   24 ar
    24   18   24 ar
    25   18   26 1
    26   19   22 1
    27   20   22 1
    28   21   25 1
    29   22   26 1
    30    2   28 1
    31    3   29 1
    32    4   30 1
    33    5   31 1
    34    6   32 1
    35    7   33 1
    36    8   34 1
    37    9   35 1
    38   10   36 1
    39   19   37 1
    40   19   38 1
    41   19   39 1
    42   20   40 1
    43   20   41 1
    44   20   42 1
    45   21   43 1
    46   21   44 1
    47   21   45 1
    48   22   46 1
@<TRIPOS>Similarity
1.4675
@<TRIPOS>ShapeSim
0.8860
@<TRIPOS>PharmSim
0.5816
# END
# Name:		AK-968/11841125
# Created and modified by SHAFTS on Thu Dec 15 20:34:29 2011

# 

@<TRIPOS>MOLECULE
AK-968/11841125
   58    61     0
SMALL
USER_CHARGE


@<TRIPOS>ATOM
      1 C1          5.3242   -2.7483    0.7222 C.ar      1 <1>        -0.0868
      2 C2          4.9040   -0.7475    2.0096 C.ar      1 <1>        -0.0760
      3 C3          0.1779    2.7940    1.2574 C.ar      1 <1>        -0.0891
      4 C4         -0.7652    1.3171   -0.4060 C.ar      1 <1>        -0.0961
      5 C5          4.1160    3.9552   -5.6110 C.ar      1 <1>        -0.0868
      6 C6          5.9972    4.9015   -4.4266 C.ar      1 <1>        -0.0865
      7 C7          1.2290    3.0973    0.3922 C.ar      1 <1>        -0.0616
      8 C8          0.2860    1.6205   -1.2713 C.ar      1 <1>        -0.0713
      9 C9          3.9183    3.0467   -4.5713 C.ar      1 <1>        -0.0581
     10 C10         5.7995    3.9930   -3.3868 C.ar      1 <1>        -0.0577
     11 C11         4.8756   -3.5283    1.7879 C.ar      1 <1>        -0.0642
     12 C12         4.4553   -1.5276    3.0754 C.ar      1 <1>        -0.0507
     13 C13         5.3385   -1.3579    0.8330 C.ar      1 <1>        -0.0642
     14 C14        -0.8192    1.9038    0.8584 C.ar      1 <1>        -0.1114
     15 C15         5.1555    4.8826   -5.5387 C.ar      1 <1>        -0.1080
     16 C16         1.2831    2.5106   -0.8721 C.ar      1 <1>        -0.0303
     17 C17         4.7600    3.0656   -3.4592 C.ar      1 <1>        -0.0103
     18 C18         4.4411   -2.9180    2.9645 C.ar      1 <1>        -0.0095
     19 C19         5.0647    0.3893   -0.8766 C.2       1 <1>         0.0935
     20 C20         5.5502    1.2132   -2.0147 C.2       1 <1>         0.1640
     21 C21         3.3793    2.0583   -1.6573 C.2       1 <1>         0.1109
     22 C22         5.8064   -0.5446   -0.2783 C.2       1 <1>        -0.0322
     23 C23        -2.4832    0.1674    1.5672 C.3       1 <1>        -0.0635
     24 C24         6.3120    5.3146   -7.7210 C.3       1 <1>        -0.0629
     25 C25         3.5735   -2.9902    5.1776 C.3       1 <1>         0.0258
     26 C26        -1.9427    1.5785    1.7835 C.3       1 <1>        -0.0490
     27 C27         5.3668    5.8540   -6.6505 C.3       1 <1>        -0.0471
     28 N1          2.3421    2.8178   -1.7447 N.2       1 <1>        -0.3337
     29 N2          4.5563    2.1295   -2.3872 N.am      1 <1>        -0.2254
     30 O1          6.6443    1.0179   -2.5294 O.2       1 <1>        -0.4377
     31 O2          4.0034   -3.6792    4.0044 O.3       1 <1>        -0.4141
     32 S1          3.4516    0.7888   -0.4619 S.3       1 <1>        -0.0351
     33 H1          5.6598   -3.2387   -0.1886 H         1 <1>         0.1411
     34 H2          4.9092    0.3351    2.1110 H         1 <1>         0.1479
     35 H3          0.1437    3.2554    2.2408 H         1 <1>         0.1264
     36 H4         -1.5370    0.6216   -0.7247 H         1 <1>         0.1238
     37 H5          3.4567    3.9320   -6.4748 H         1 <1>         0.1269
     38 H6          6.8100    5.6201   -4.3623 H         1 <1>         0.1269
     39 H7          2.0021    3.7914    0.7120 H         1 <1>         0.1371
     40 H8          0.3198    1.1586   -2.2544 H         1 <1>         0.1236
     41 H9          3.1048    2.3286   -4.6380 H         1 <1>         0.1335
     42 H10         6.4621    4.0158   -2.5252 H         1 <1>         0.1340
     43 H11         4.8669   -4.6110    1.6957 H         1 <1>         0.1171
     44 H12         4.1181   -1.0464    3.9894 H         1 <1>         0.1338
     45 H13         6.8212   -0.7006   -0.6055 H         1 <1>         0.1920
     46 H14        -2.8143    0.0280    0.5325 H         1 <1>         0.0362
     47 H15        -3.3362   -0.0260    2.2251 H         1 <1>         0.0342
     48 H16        -1.7148   -0.5841    1.7782 H         1 <1>         0.0338
     49 H17         7.2809    5.0428   -7.2887 H         1 <1>         0.0345
     50 H18         6.4860    6.0654   -8.4982 H         1 <1>         0.0343
     51 H19         5.8952    4.4217   -8.1992 H         1 <1>         0.0368
     52 H20         3.2500   -3.7149    5.9288 H         1 <1>         0.0909
     53 H21         2.7492   -2.3185    4.9253 H         1 <1>         0.0910
     54 H22         4.4083   -2.4068    5.5731 H         1 <1>         0.1236
     55 H23        -1.6197    1.6832    2.8319 H         1 <1>         0.0605
     56 H24        -2.7647    2.3018    1.6588 H         1 <1>         0.0609
     57 H25         4.4047    6.1165   -7.1192 H         1 <1>         0.0622
     58 H26         5.7688    6.8028   -6.2603 H         1 <1>         0.0621
@<TRIPOS>BOND
     1    1   11 ar
     2    1   13 ar
     3    2   12 ar
     4    2   13 ar
     5    3    7 ar
     6    3   14 ar
     7    4    8 ar
     8    4   14 ar
     9    5    9 ar
    10    5   15 ar
    11    6   10 ar
    12    6   15 ar
    13    7   16 ar
    14    8   16 ar
    15    9   17 ar
    16   10   17 ar
    17   11   18 ar
    18   12   18 ar
    19   13   22 1
    20   14   26 1
    21   15   27 1
    22   16   28 1
    23   17   29 1
    24   18   31 1
    25   19   20 1
    26   19   22 2
    27   19   32 1
    28   20   29 am
    29   20   30 2
    30   21   28 2
    31   21   29 1
    32   21   32 1
    33   23   26 1
    34   24   27 1
    35   25   31 1
    36    1   33 1
    37    2   34 1
    38    3   35 1
    39    4   36 1
    40    5   37 1
    41    6   38 1
    42    7   39 1
    43    8   40 1
    44    9   41 1
    45   10   42 1
    46   11   43 1
    47   12   44 1
    48   22   45 1
    49   23   46 1
    50   23   47 1
    51   23   48 1
    52   24   49 1
    53   24   50 1
    54   24   51 1
    55   25   52 1
    56   25   53 1
    57   25   54 1
    58   26   55 1
    59   26   56 1
    60   27   57 1
    61   27   58 1
@<TRIPOS>Similarity
1.4673
@<TRIPOS>ShapeSim
0.8749
@<TRIPOS>PharmSim
0.5925
# END
# Name:		AF-399/15128496
# Created and modified by SHAFTS on Thu Dec 15 20:34:29 2011

# 

@<TRIPOS>MOLECULE
AF-399/15128496
   43    46     0
SMALL
USER_CHARGE


@<TRIPOS>ATOM
      1 C1          6.4415    0.4765   -1.7400 C.ar      1 <1>        -0.0874
      2 C2          5.7762   -0.1522   -0.6892 C.ar      1 <1>        -0.0855
      3 C3          5.8191    1.5074   -2.4450 C.ar      1 <1>        -0.0706
      4 C4          4.4859    0.2476   -0.3392 C.ar      1 <1>        -0.0627
      5 C5          4.2189    3.2308   -5.1800 C.ar      1 <1>        -0.0623
      6 C6          5.1394    4.8436   -3.6344 C.ar      1 <1>        -0.0673
      7 C7         -0.8532    3.5110    1.0894 C.ar      1 <1>        -0.0662
      8 C8          0.4216    2.9988    0.8484 C.ar      1 <1>        -0.0318
      9 C9          4.7596    3.9461   -6.2484 C.ar      1 <1>        -0.0394
     10 C10         5.6801    5.5588   -4.7029 C.ar      1 <1>        -0.0430
     11 C11        -1.8092    1.3346    0.6576 C.ar      1 <1>        -0.0358
     12 C12         4.5202    1.9174   -2.1005 C.ar      1 <1>        -0.0114
     13 C13         3.8505    1.2845   -1.0427 C.ar      1 <1>         0.0227
     14 C14         4.4087    3.6795   -3.8729 C.ar      1 <1>        -0.0248
     15 C15        -1.9686    2.6789    0.9940 C.ar      1 <1>        -0.0064
     16 C16         0.5810    1.6546    0.5119 C.ar      1 <1>         0.0840
     17 C17        -0.5344    0.8225    0.4166 C.ar      1 <1>         0.0467
     18 C18         5.4902    5.1100   -6.0099 C.ar      1 <1>         0.0651
     19 C19         3.8477    2.9375   -2.7644 C.ar      1 <1>         0.0433
     20 C20         2.5672    1.7275   -0.7420 C.ar      1 <1>         0.1383
     21 C21        -3.2975    3.2126    1.2473 C.2       1 <1>         0.0906
     22 C22        -0.2110   -1.4107    1.1677 C.3       1 <1>         0.0274
     23 N1          2.5992    3.3367   -2.4388 N.ar      1 <1>        -0.2659
     24 N2          1.9503    2.7236   -1.4139 N.ar      1 <1>        -0.2445
     25 O1         -4.3227    2.5287    1.1787 O.2       1 <1>        -0.4586
     26 O2          1.8485    1.1597    0.2759 O.3       1 <1>        -0.3012
     27 O3         -0.3917   -0.4927    0.0912 O.3       1 <1>        -0.4041
     28 F1          6.0094    5.7969   -7.0360 F         1 <1>        -0.2663
     29 H1          7.4458    0.1636   -2.0105 H         1 <1>         0.1365
     30 H2          6.2626   -0.9542   -0.1417 H         1 <1>         0.1330
     31 H3          6.3682    1.9748   -3.2586 H         1 <1>         0.1420
     32 H4          3.9902   -0.2600    0.4847 H         1 <1>         0.1473
     33 H5          3.6517    2.3253   -5.3821 H         1 <1>         0.1484
     34 H6          5.2962    5.2063   -2.6214 H         1 <1>         0.1418
     35 H7         -0.9655    4.5601    1.3509 H         1 <1>         0.1430
     36 H8          1.2864    3.6522    0.9239 H         1 <1>         0.1510
     37 H9          4.6118    3.5969   -7.2661 H         1 <1>         0.1361
     38 H10         6.2492    6.4652   -4.5179 H         1 <1>         0.1352
     39 H11        -2.6767    0.6826    0.5847 H         1 <1>         0.1378
     40 H12        -3.3742    4.2893    1.5136 H         1 <1>         0.2569
     41 H13        -0.1102   -2.4238    0.7705 H         1 <1>         0.1237
     42 H14        -1.0692   -1.3561    1.8423 H         1 <1>         0.0921
     43 H15         0.6968   -1.1439    1.7138 H         1 <1>         0.0922
@<TRIPOS>BOND
     1    1    2 ar
     2    1    3 ar
     3    2    4 ar
     4    3   12 ar
     5    4   13 ar
     6    5    9 ar
     7    5   14 ar
     8    6   10 ar
     9    6   14 ar
    10    7    8 ar
    11    7   15 ar
    12    8   16 ar
    13    9   18 ar
    14   10   18 ar
    15   11   15 ar
    16   11   17 ar
    17   12   13 ar
    18   12   19 ar
    19   13   20 ar
    20   14   19 1
    21   15   21 1
    22   16   17 ar
    23   16   26 1
    24   17   27 1
    25   18   28 1
    26   19   23 ar
    27   20   24 ar
    28   20   26 1
    29   21   25 2
    30   22   27 1
    31   23   24 ar
    32    1   29 1
    33    2   30 1
    34    3   31 1
    35    4   32 1
    36    5   33 1
    37    6   34 1
    38    7   35 1
    39    8   36 1
    40    9   37 1
    41   10   38 1
    42   11   39 1
    43   21   40 1
    44   22   41 1
    45   22   42 1
    46   22   43 1
@<TRIPOS>Similarity
1.4660
@<TRIPOS>ShapeSim
0.7781
@<TRIPOS>PharmSim
0.6879
# END
# Name:		AH-034/32857054
# Created and modified by SHAFTS on Thu Dec 15 20:34:29 2011

# 

@<TRIPOS>MOLECULE
AH-034/32857054
   40    43     0
SMALL
USER_CHARGE


@<TRIPOS>ATOM
      1 C1          6.9022   -2.2036    0.7743 C.ar      1 <1>        -0.1024
      2 C2         -1.3882    2.3916    0.9080 C.ar      1 <1>        -0.1031
      3 C3          7.4742   -1.0697    0.1978 C.ar      1 <1>        -0.0957
      4 C4          5.5149   -2.3468    0.8036 C.ar      1 <1>        -0.0987
      5 C5         -1.0345    1.1676    0.3401 C.ar      1 <1>        -0.0957
      6 C6         -0.4819    3.4519    0.9002 C.ar      1 <1>        -0.0957
      7 C7          6.6592   -0.0787   -0.3492 C.ar      1 <1>        -0.0737
      8 C8          4.6998   -1.3558    0.2566 C.ar      1 <1>        -0.0792
      9 C9          0.2255    1.0039   -0.2356 C.ar      1 <1>        -0.0649
     10 C10         0.7781    3.2882    0.3246 C.ar      1 <1>        -0.0649
     11 C11         5.3843    4.2549   -3.4091 C.ar      1 <1>        -0.0607
     12 C12         3.5064    3.3859   -4.6564 C.ar      1 <1>        -0.0662
     13 C13         5.7009    5.0987   -4.4736 C.ar      1 <1>        -0.0710
     14 C14         3.8231    4.2298   -5.7210 C.ar      1 <1>        -0.0740
     15 C15         4.8570    1.5793   -1.9467 C.ar      1 <1>        -0.0074
     16 C16         5.2719   -0.2217   -0.3199 C.ar      1 <1>        -0.0320
     17 C17         4.2871    3.3983   -3.5006 C.ar      1 <1>        -0.0237
     18 C18         1.1318    2.0643   -0.2433 C.ar      1 <1>         0.0050
     19 C19         4.9203    5.0863   -5.6295 C.ar      1 <1>        -0.0372
     20 C20         4.4269    0.8062   -0.8876 C.ar      1 <1>        -0.0015
     21 C21         3.9596    2.5251   -2.3988 C.ar      1 <1>         0.0007
     22 C22         2.4320    1.8950   -0.8377 C.ar      1 <1>         0.0508
     23 N1          3.2162    0.9377   -0.3067 N.ar      1 <1>        -0.3438
     24 N2          2.7341    2.7108   -1.8658 N.ar      1 <1>        -0.3445
     25 Br1         5.3481    6.2302   -7.0719 Br        1 <1>        -0.1057
     26 H1          7.5370   -2.9759    1.1986 H         1 <1>         0.1228
     27 H2         -2.3699    2.5192    1.3546 H         1 <1>         0.1219
     28 H3          8.5543   -0.9588    0.1735 H         1 <1>         0.1205
     29 H4          5.0689   -3.2302    1.2510 H         1 <1>         0.1206
     30 H5         -1.7405    0.3425    0.3445 H         1 <1>         0.1191
     31 H6         -0.7570    4.4055    1.3410 H         1 <1>         0.1190
     32 H7          7.1204    0.7994   -0.7952 H         1 <1>         0.1403
     33 H8          3.6200   -1.4815    0.2861 H         1 <1>         0.1282
     34 H9          0.4862    0.0438   -0.6746 H         1 <1>         0.1409
     35 H10         1.4738    4.1239    0.3254 H         1 <1>         0.1410
     36 H11         6.0024    4.2761   -2.5146 H         1 <1>         0.1514
     37 H12         2.6476    2.7247   -4.7426 H         1 <1>         0.1395
     38 H13         6.5587    5.7606   -4.3861 H         1 <1>         0.1386
     39 H14         3.2046    4.2078   -6.6145 H         1 <1>         0.1386
     40 H15         5.8363    1.4518   -2.3945 H         1 <1>         0.1429
@<TRIPOS>BOND
     1    1    3 ar
     2    1    4 ar
     3    2    5 ar
     4    2    6 ar
     5    3    7 ar
     6    4    8 ar
     7    5    9 ar
     8    6   10 ar
     9    7   16 ar
    10    8   16 ar
    11    9   18 ar
    12   10   18 ar
    13   11   13 ar
    14   11   17 ar
    15   12   14 ar
    16   12   17 ar
    17   13   19 ar
    18   14   19 ar
    19   15   20 ar
    20   15   21 ar
    21   16   20 1
    22   17   21 1
    23   18   22 1
    24   19   25 1
    25   20   23 ar
    26   21   24 ar
    27   22   23 ar
    28   22   24 ar
    29    1   26 1
    30    2   27 1
    31    3   28 1
    32    4   29 1
    33    5   30 1
    34    6   31 1
    35    7   32 1
    36    8   33 1
    37    9   34 1
    38   10   35 1
    39   11   36 1
    40   12   37 1
    41   13   38 1
    42   14   39 1
    43   15   40 1
@<TRIPOS>Similarity
1.4654
@<TRIPOS>ShapeSim
0.8098
@<TRIPOS>PharmSim
0.6556
# END
# Name:		AH-262/14317002
# Created and modified by SHAFTS on Thu Dec 15 20:34:29 2011

# 

@<TRIPOS>MOLECULE
AH-262/14317002
   47    51     0
SMALL
USER_CHARGE


@<TRIPOS>ATOM
      1 C1         -1.0973    2.0088    1.1364 C.ar      1 <1>        -0.1023
      2 C2          5.1721    5.1785   -5.8723 C.ar      1 <1>        -0.1000
      3 C3         -0.6739    0.8924    0.4155 C.ar      1 <1>        -0.0958
      4 C4         -0.3523    3.1875    1.0982 C.ar      1 <1>        -0.0967
      5 C5          5.0732    3.7934   -6.0036 C.ar      1 <1>        -0.0917
      6 C6          4.8148    5.7928   -4.6720 C.ar      1 <1>        -0.0884
      7 C7          0.4948    0.9545   -0.3435 C.ar      1 <1>        -0.0732
      8 C8          0.8163    3.2496    0.3392 C.ar      1 <1>        -0.0738
      9 C9          4.6168    3.0225   -4.9345 C.ar      1 <1>        -0.0541
     10 C10         4.3584    5.0218   -3.6030 C.ar      1 <1>        -0.0495
     11 C11         6.0771    0.2184   -1.2527 C.ar      1 <1>        -0.0337
     12 C12         5.1584   -0.2103   -0.2616 C.ar      1 <1>        -0.0253
     13 C13         3.6165    1.4399   -1.0685 C.ar      1 <1>         0.0526
     14 C14         1.2399    2.1331   -0.3817 C.ar      1 <1>        -0.0239
     15 C15         5.0860   -1.1679    0.7797 C.2       1 <1>         0.0165
     16 C16         4.4913    1.8690   -2.0345 C.ar      1 <1>         0.0466
     17 C17         4.2593    3.6366   -3.7341 C.ar      1 <1>        -0.0027
     18 C18         3.9368    0.4316   -0.2074 C.ar      1 <1>         0.0558
     19 C19         5.7501    1.2731   -2.1589 C.ar      1 <1>         0.0232
     20 C20         2.4458    2.1973   -1.1646 C.2       1 <1>         0.0479
     21 C21         3.8386   -1.0142    1.3584 C.2       1 <1>         0.0216
     22 C22         6.0756   -2.1217    1.1888 C.2       1 <1>         0.0743
     23 C23         3.1522   -1.6892    2.4710 C.3       1 <1>         0.0077
     24 C24         6.1096   -2.5368    2.6410 C.3       1 <1>         0.0377
     25 N1          2.5614    3.0875   -2.1616 N.2       1 <1>        -0.2887
     26 N2          3.8033    2.8650   -2.6656 N.pl3     1 <1>        -0.2689
     27 O1          6.9283   -2.6467    0.4498 O.2       1 <1>        -0.4551
     28 O2          3.1347   -0.0203    0.7391 O.3       1 <1>        -0.3471
     29 O3          6.6598    1.6586   -3.1040 O.3       1 <1>        -0.4219
     30 H1         -2.0078    1.9611    1.7266 H         1 <1>         0.1213
     31 H2          5.5292    5.7791   -6.7037 H         1 <1>         0.1216
     32 H3         -1.2545   -0.0249    0.4441 H         1 <1>         0.1213
     33 H4         -0.6829    4.0570    1.6585 H         1 <1>         0.1205
     34 H5          5.3527    3.3149   -6.9375 H         1 <1>         0.1253
     35 H6          4.8934    6.8713   -4.5702 H         1 <1>         0.1276
     36 H7          0.8118    0.0755   -0.9001 H         1 <1>         0.1308
     37 H8          1.3860    4.1758    0.3198 H         1 <1>         0.1318
     38 H9          4.5452    1.9436   -5.0497 H         1 <1>         0.1348
     39 H10         4.0839    5.5133   -2.6728 H         1 <1>         0.1438
     40 H11         7.0502   -0.2621   -1.3276 H         1 <1>         0.1596
     41 H12         3.3544   -1.1860    3.4326 H         1 <1>         0.0914
     42 H13         2.0558   -1.7128    2.3337 H         1 <1>         0.0898
     43 H14         3.4646   -2.7441    2.5771 H         1 <1>         0.0871
     44 H15         5.4765   -3.4104    2.8631 H         1 <1>         0.0812
     45 H16         5.8087   -1.7285    3.3255 H         1 <1>         0.0826
     46 H17         7.1103   -2.8407    2.9962 H         1 <1>         0.0784
     47 H18         7.4638    1.1245   -3.0258 H         1 <1>         0.3597
@<TRIPOS>BOND
     1    1    3 ar
     2    1    4 ar
     3    2    5 ar
     4    2    6 ar
     5    3    7 ar
     6    4    8 ar
     7    5    9 ar
     8    6   10 ar
     9    7   14 ar
    10    8   14 ar
    11    9   17 ar
    12   10   17 ar
    13   11   12 ar
    14   11   19 ar
    15   12   15 1
    16   12   18 ar
    17   13   16 ar
    18   13   18 ar
    19   13   20 1
    20   14   20 1
    21   15   21 2
    22   15   22 1
    23   16   19 ar
    24   16   26 1
    25   17   26 1
    26   18   28 1
    27   19   29 1
    28   20   25 2
    29   21   23 1
    30   21   28 1
    31   22   24 1
    32   22   27 2
    33   25   26 1
    34    1   30 1
    35    2   31 1
    36    3   32 1
    37    4   33 1
    38    5   34 1
    39    6   35 1
    40    7   36 1
    41    8   37 1
    42    9   38 1
    43   10   39 1
    44   11   40 1
    45   23   41 1
    46   23   42 1
    47   23   43 1
    48   24   44 1
    49   24   45 1
    50   24   46 1
    51   29   47 1
@<TRIPOS>Similarity
1.4641
@<TRIPOS>ShapeSim
0.8789
@<TRIPOS>PharmSim
0.5851
# END
# Name:		AK-249/37190001
# Created and modified by SHAFTS on Thu Dec 15 20:34:29 2011

# 

@<TRIPOS>MOLECULE
AK-249/37190001
   51    55     0
SMALL
USER_CHARGE


@<TRIPOS>ATOM
      1 C1         -1.2188    2.0250    1.1877 C.ar      1 <1>        -0.1007
      2 C2          4.8359   -1.9107    3.3519 C.ar      1 <1>        -0.0910
      3 C3         -0.4725    0.8609    1.0052 C.ar      1 <1>        -0.0903
      4 C4         -0.7826    3.2276    0.6315 C.ar      1 <1>        -0.0918
      5 C5          5.0429   -3.2463    3.0068 C.ar      1 <1>        -0.0909
      6 C6          4.7390   -0.9398    2.3550 C.ar      1 <1>        -0.0651
      7 C7          0.7102    0.8993    0.2666 C.ar      1 <1>        -0.0504
      8 C8          0.4000    3.2660   -0.1072 C.ar      1 <1>        -0.0521
      9 C9          5.1531   -3.6109    1.6650 C.ar      1 <1>        -0.0639
     10 C10         6.5963    1.3652   -2.7595 C.ar      1 <1>        -0.0315
     11 C11         6.9969   -0.6858   -0.8916 C.ar      1 <1>        -0.0307
     12 C12         5.5840    1.0472   -1.8334 C.ar      1 <1>        -0.0450
     13 C13         5.7801    0.0147   -0.8898 C.ar      1 <1>        -0.0099
     14 C14         4.3454    1.7304   -1.8015 C.ar      1 <1>         0.0160
     15 C15         4.8492   -1.3046    1.0131 C.ar      1 <1>         0.0110
     16 C16         1.1465    2.1019   -0.2895 C.ar      1 <1>         0.0043
     17 C17         7.7969    0.6563   -2.7430 C.ar      1 <1>         0.0479
     18 C18         7.9964   -0.3646   -1.8133 C.ar      1 <1>         0.0463
     19 C19         5.0563   -2.6401    0.6681 C.ar      1 <1>         0.0198
     20 C20         4.7424   -0.2619    0.0087 C.ar      1 <1>         0.0300
     21 C21         3.6973    2.7775   -2.4928 C.2       1 <1>         0.0003
     22 C22         3.4174    1.3378   -0.8491 C.ar      1 <1>         0.0578
     23 C23         4.1990    3.5852   -3.6193 C.3       1 <1>         0.0029
     24 C24         8.4896    2.0260   -4.5596 C.3       1 <1>         0.0294
     25 C25         9.2975   -2.0871   -0.8152 C.3       1 <1>         0.0262
     26 N1          3.5438    0.3679    0.0719 N.ar      1 <1>        -0.3271
     27 N2          2.4705    3.0292   -2.0257 N.2       1 <1>        -0.3038
     28 N3          2.3288    2.1394   -1.0279 N.pl3     1 <1>        -0.2523
     29 O1          8.7709    0.9705   -3.6429 O.3       1 <1>        -0.3993
     30 O2          9.1694   -1.0588   -1.7947 O.3       1 <1>        -0.4053
     31 Cl1         5.2004   -3.1494   -0.9785 Cl        1 <1>        -0.1203
     32 H1         -2.1406    1.9954    1.7612 H         1 <1>         0.1203
     33 H2          4.7501   -1.6270    4.3967 H         1 <1>         0.1286
     34 H3         -0.8126   -0.0758    1.4371 H         1 <1>         0.1275
     35 H4         -1.3652    4.1334    0.7728 H         1 <1>         0.1262
     36 H5          5.1183   -4.0020    3.7832 H         1 <1>         0.1335
     37 H6          4.5775    0.0965    2.6424 H         1 <1>         0.1388
     38 H7          1.2821   -0.0155    0.1313 H         1 <1>         0.1384
     39 H8          0.7280    4.2099   -0.5359 H         1 <1>         0.1358
     40 H9          5.3144   -4.6564    1.4140 H         1 <1>         0.1364
     41 H10         6.4629    2.1561   -3.4914 H         1 <1>         0.1378
     42 H11         7.1897   -1.4864   -0.1810 H         1 <1>         0.1427
     43 H12         3.9422    3.1231   -4.5874 H         1 <1>         0.0860
     44 H13         3.7815    4.6073   -3.6164 H         1 <1>         0.0822
     45 H14         5.2961    3.7061   -3.5880 H         1 <1>         0.0840
     46 H15         9.3474    2.1741   -5.2202 H         1 <1>         0.0916
     47 H16         8.2799    2.9445   -4.0058 H         1 <1>         0.1254
     48 H17         7.6155    1.7550   -5.1565 H         1 <1>         0.0913
     49 H18        10.2778   -2.5607   -0.9092 H         1 <1>         0.1241
     50 H19         8.5074   -2.8286   -0.9586 H         1 <1>         0.0896
     51 H20         9.2029   -1.6446    0.1792 H         1 <1>         0.0895
@<TRIPOS>BOND
     1    1    3 ar
     2    1    4 ar
     3    2    5 ar
     4    2    6 ar
     5    3    7 ar
     6    4    8 ar
     7    5    9 ar
     8    6   15 ar
     9    7   16 ar
    10    8   16 ar
    11    9   19 ar
    12   10   12 ar
    13   10   17 ar
    14   11   13 ar
    15   11   18 ar
    16   12   13 ar
    17   12   14 ar
    18   13   20 ar
    19   14   21 1
    20   14   22 ar
    21   15   19 ar
    22   15   20 1
    23   16   28 1
    24   17   18 ar
    25   17   29 1
    26   18   30 1
    27   19   31 1
    28   20   26 ar
    29   21   23 1
    30   21   27 2
    31   22   26 ar
    32   22   28 1
    33   24   29 1
    34   25   30 1
    35   27   28 1
    36    1   32 1
    37    2   33 1
    38    3   34 1
    39    4   35 1
    40    5   36 1
    41    6   37 1
    42    7   38 1
    43    8   39 1
    44    9   40 1
    45   10   41 1
    46   11   42 1
    47   23   43 1
    48   23   44 1
    49   23   45 1
    50   24   46 1
    51   24   47 1
    52   24   48 1
    53   25   49 1
    54   25   50 1
    55   25   51 1
@<TRIPOS>Similarity
1.4610
@<TRIPOS>ShapeSim
0.7761
@<TRIPOS>PharmSim
0.6849
# END
# Name:		AO-476/43421106
# Created and modified by SHAFTS on Thu Dec 15 20:34:29 2011

# 

@<TRIPOS>MOLECULE
AO-476/43421106
   36    38     0
SMALL
USER_CHARGE


@<TRIPOS>ATOM
      1 C1          5.4806   -3.3582    2.8122 C.ar      1 <1>        -0.0949
      2 C2          5.7233   -3.5468    1.4517 C.ar      1 <1>        -0.0884
      3 C3          4.9727   -2.1417    3.2680 C.ar      1 <1>        -0.0856
      4 C4          5.4582   -2.5188    0.5469 C.ar      1 <1>        -0.0545
      5 C5          4.7075   -1.1137    2.3633 C.ar      1 <1>        -0.0503
      6 C6          4.8696    1.2553   -1.4113 C.ar      1 <1>         0.0210
      7 C7          3.5076    1.1631   -0.9463 C.ar      1 <1>         0.0971
      8 C8          4.9502   -1.3023    1.0027 C.ar      1 <1>         0.0004
      9 C9          5.3517    2.1274   -2.3756 C.ar      1 <1>         0.0010
     10 C10         5.5953    0.3247   -0.7258 C.2       1 <1>        -0.0089
     11 C11         2.5241    2.0087   -1.4795 C.ar      1 <1>         0.1541
     12 C12         6.7357    2.2680   -2.8925 C.3       1 <1>         0.0045
     13 C13         7.0225   -0.0556   -0.7587 C.3       1 <1>         0.0060
     14 C14        -0.5855    2.2612    0.4489 C.3       1 <1>        -0.0315
     15 C15         0.9148    2.2886    0.2490 C.3       1 <1>         0.0313
     16 N1          3.4282    0.2026   -0.0095 N.2       1 <1>        -0.2832
     17 N2          4.3759    2.9333   -2.8728 N.ar      1 <1>        -0.2917
     18 N3          2.9834    2.8722   -2.4290 N.ar      1 <1>        -0.2482
     19 N4          4.6850   -0.2741    0.0965 N.pl3     1 <1>        -0.2720
     20 O1          1.2058    2.0114   -1.1171 O.3       1 <1>        -0.3585
     21 H1          5.6852   -4.1588    3.5169 H         1 <1>         0.1291
     22 H2          6.1175   -4.4943    1.0964 H         1 <1>         0.1328
     23 H3          4.7826   -1.9961    4.3275 H         1 <1>         0.1326
     24 H4          5.6510   -2.6792   -0.5111 H         1 <1>         0.1371
     25 H5          4.3111   -0.1708    2.7320 H         1 <1>         0.1430
     26 H6          6.8967    1.6095   -3.7581 H         1 <1>         0.0832
     27 H7          6.9493    3.3014   -3.2047 H         1 <1>         0.0837
     28 H8          7.4830    2.0137   -2.1257 H         1 <1>         0.0774
     29 H9          7.6070    0.5378   -0.0375 H         1 <1>         0.0907
     30 H10         7.1711   -1.1211   -0.5162 H         1 <1>         0.0822
     31 H11         7.4667    0.0957   -1.7570 H         1 <1>         0.0935
     32 H12        -1.0758    3.0159   -0.1723 H         1 <1>         0.0477
     33 H13        -0.9909    1.2763    0.1949 H         1 <1>         0.0478
     34 H14        -0.8384    2.4487    1.4978 H         1 <1>         0.0602
     35 H15         1.3990    1.5315    0.8732 H         1 <1>         0.1057
     36 H16         1.3181    3.2736    0.5025 H         1 <1>         0.1057
@<TRIPOS>BOND
     1    1    2 ar
     2    1    3 ar
     3    2    4 ar
     4    3    5 ar
     5    4    8 ar
     6    5    8 ar
     7    6    7 ar
     8    6    9 ar
     9    6   10 2
    10    7   11 ar
    11    7   16 2
    12    8   19 1
    13    9   12 1
    14    9   17 ar
    15   10   13 1
    16   10   19 1
    17   11   18 ar
    18   11   20 1
    19   14   15 1
    20   15   20 1
    21   16   19 1
    22   17   18 ar
    23    1   21 1
    24    2   22 1
    25    3   23 1
    26    4   24 1
    27    5   25 1
    28   12   26 1
    29   12   27 1
    30   12   28 1
    31   13   29 1
    32   13   30 1
    33   13   31 1
    34   14   32 1
    35   14   33 1
    36   14   34 1
    37   15   35 1
    38   15   36 1
@<TRIPOS>Similarity
1.4610
@<TRIPOS>ShapeSim
0.7397
@<TRIPOS>PharmSim
0.7213
# END
# Name:		AK-087/42718235
# Created and modified by SHAFTS on Thu Dec 15 20:34:29 2011

# 

@<TRIPOS>MOLECULE
AK-087/42718235
   33    35     0
SMALL
USER_CHARGE


@<TRIPOS>ATOM
      1 C1          4.8649    0.0787    0.6860 C.1       1 <1>         0.0328
      2 C2         -1.2379    2.0646    1.1709 C.ar      1 <1>        -0.0974
      3 C3         -0.8249    0.9269    0.4776 C.ar      1 <1>        -0.0915
      4 C4         -0.4623    3.2235    1.1346 C.ar      1 <1>        -0.0876
      5 C5          4.0677    3.0401   -4.8816 C.ar      1 <1>        -0.0644
      6 C6          4.9852    4.6506   -3.3319 C.ar      1 <1>        -0.0639
      7 C7          0.3638    0.9480   -0.2518 C.ar      1 <1>        -0.0580
      8 C8          0.7263    3.2445    0.4051 C.ar      1 <1>        -0.0514
      9 C9          4.6023    3.7621   -5.9486 C.ar      1 <1>        -0.0661
     10 C10         5.5199    5.3727   -4.3989 C.ar      1 <1>        -0.0660
     11 C11         4.3362    1.7001   -1.7640 C.2       1 <1>        -0.0344
     12 C12         4.2591    3.4843   -3.5733 C.ar      1 <1>        -0.0288
     13 C13         1.1395    2.1068   -0.2881 C.ar      1 <1>        -0.0081
     14 C14         5.3285    4.9285   -5.7073 C.ar      1 <1>        -0.0143
     15 C15         3.7089    2.7409   -2.4748 C.2       1 <1>         0.0107
     16 C16         3.4112    1.3217   -0.8219 C.2       1 <1>        -0.0000
     17 C17         3.4777    0.2817    0.2238 C.3       1 <1>         0.1210
     18 N1          5.9587   -0.0743    1.0421 N.1       1 <1>        -0.3857
     19 N2          2.4804    3.0065   -2.0228 N.2       1 <1>        -0.3099
     20 N3          2.3283    2.1271   -1.0181 N.pl3     1 <1>        -0.2878
     21 Cl1         5.9875    5.8207   -7.0230 Cl        1 <1>        -0.1421
     22 H1         -2.1642    2.0493    1.7376 H         1 <1>         0.1252
     23 H2         -1.4293    0.0250    0.5047 H         1 <1>         0.1295
     24 H3         -0.7854    4.1094    1.6736 H         1 <1>         0.1307
     25 H4          3.5044    2.1327   -5.0874 H         1 <1>         0.1426
     26 H5          5.1428    5.0099   -2.3177 H         1 <1>         0.1434
     27 H6          0.6739    0.0546   -0.7884 H         1 <1>         0.1267
     28 H7          1.3210    4.1546    0.3847 H         1 <1>         0.1406
     29 H8          4.4454    3.4042   -6.9629 H         1 <1>         0.1364
     30 H9          6.0823    6.2804   -4.1957 H         1 <1>         0.1353
     31 H10         5.3212    1.2801   -1.9112 H         1 <1>         0.1381
     32 H11         3.0790   -0.6805   -0.1422 H         1 <1>         0.1659
     33 H12         2.8470    0.5439    1.0910 H         1 <1>         0.1790
@<TRIPOS>BOND
     1    1   17 1
     2    1   18 3
     3    2    3 ar
     4    2    4 ar
     5    3    7 ar
     6    4    8 ar
     7    5    9 ar
     8    5   12 ar
     9    6   10 ar
    10    6   12 ar
    11    7   13 ar
    12    8   13 ar
    13    9   14 ar
    14   10   14 ar
    15   11   15 1
    16   11   16 2
    17   12   15 1
    18   13   20 1
    19   14   21 1
    20   15   19 2
    21   16   17 1
    22   16   20 1
    23   19   20 1
    24    2   22 1
    25    3   23 1
    26    4   24 1
    27    5   25 1
    28    6   26 1
    29    7   27 1
    30    8   28 1
    31    9   29 1
    32   10   30 1
    33   11   31 1
    34   17   32 1
    35   17   33 1
@<TRIPOS>Similarity
1.4601
@<TRIPOS>ShapeSim
0.7864
@<TRIPOS>PharmSim
0.6737
# END
# Name:		AE-842/32998057
# Created and modified by SHAFTS on Thu Dec 15 20:34:29 2011

# 

@<TRIPOS>MOLECULE
AE-842/32998057
   41    44     0
SMALL
USER_CHARGE


@<TRIPOS>ATOM
      1 C1         -1.1232    1.9839    1.0443 C.ar      1 <1>        -0.1037
      2 C2         -0.5861    0.8778    0.3857 C.ar      1 <1>        -0.0988
      3 C3         -0.4628    3.2117    0.9980 C.ar      1 <1>        -0.0976
      4 C4          0.6116    0.9996   -0.3190 C.ar      1 <1>        -0.0774
      5 C5          0.7348    3.3333    0.2933 C.ar      1 <1>        -0.0757
      6 C6          4.7210    3.0436   -4.8423 C.ar      1 <1>        -0.0456
      7 C7          4.3648    5.1355   -3.6872 C.ar      1 <1>        -0.0467
      8 C8          5.0844    3.7415   -5.9940 C.ar      1 <1>        -0.0646
      9 C9          4.7282    5.8334   -4.8389 C.ar      1 <1>        -0.0653
     10 C10         1.2720    2.2273   -0.3652 C.ar      1 <1>        -0.0349
     11 C11         4.3612    3.7406   -3.6888 C.ar      1 <1>        -0.0234
     12 C12         5.0880    5.1363   -5.9924 C.ar      1 <1>        -0.0174
     13 C13         2.5352    2.3556   -1.1085 C.2       1 <1>         0.0078
     14 C14         5.2421   -0.3591   -0.2676 C.3       1 <1>        -0.0678
     15 C15         6.1638    0.0616   -1.4278 C.3       1 <1>        -0.0638
     16 C16         3.7769    0.0820   -0.4401 C.3       1 <1>        -0.0490
     17 C17         5.9629    1.5177   -1.8907 C.3       1 <1>        -0.0428
     18 C18         3.7698    1.5553   -0.7877 C.3       1 <1>         0.0102
     19 C19         4.4788    1.7295   -2.1380 C.3       1 <1>        -0.0092
     20 N1          2.7181    3.2343   -2.0522 N.2       1 <1>        -0.3272
     21 N2          3.9962    3.0425   -2.5390 N.pl3     1 <1>        -0.3379
     22 Cl1         5.5364    5.9969   -7.4136 Cl        1 <1>        -0.1512
     23 H1         -2.0556    1.8891    1.5929 H         1 <1>         0.1199
     24 H2         -1.1003   -0.0781    0.4220 H         1 <1>         0.1198
     25 H3         -0.8813    4.0730    1.5105 H         1 <1>         0.1195
     26 H4          1.0213    0.1312   -0.8286 H         1 <1>         0.1306
     27 H5          1.2407    4.2950    0.2641 H         1 <1>         0.1327
     28 H6          4.7205    1.9568   -4.8544 H         1 <1>         0.1345
     29 H7          4.0846    5.6885   -2.7941 H         1 <1>         0.1332
     30 H8          5.3607    3.1848   -6.8860 H         1 <1>         0.1383
     31 H9          4.7245    6.9204   -4.8230 H         1 <1>         0.1389
     32 H10         5.2868   -1.4463   -0.1373 H         1 <1>         0.0477
     33 H11         5.6319    0.0835    0.6583 H         1 <1>         0.0428
     34 H12         7.2102   -0.0920   -1.1405 H         1 <1>         0.0496
     35 H13         5.9726   -0.6042   -2.2793 H         1 <1>         0.0443
     36 H14         3.2890   -0.5113   -1.2225 H         1 <1>         0.0541
     37 H15         3.2215   -0.0992    0.4866 H         1 <1>         0.0594
     38 H16         6.3447    2.2140   -1.1342 H         1 <1>         0.0593
     39 H17         6.5376    1.6969   -2.8062 H         1 <1>         0.0606
     40 H18         4.2805    2.1220    0.0062 H         1 <1>         0.0917
     41 H19         4.1138    0.9901   -2.8677 H         1 <1>         0.1053
@<TRIPOS>BOND
     1    1    2 ar
     2    1    3 ar
     3    2    4 ar
     4    3    5 ar
     5    4   10 ar
     6    5   10 ar
     7    6    8 ar
     8    6   11 ar
     9    7    9 ar
    10    7   11 ar
    11    8   12 ar
    12    9   12 ar
    13   10   13 1
    14   11   21 1
    15   12   22 1
    16   13   18 1
    17   13   20 2
    18   14   15 1
    19   14   16 1
    20   15   17 1
    21   16   18 1
    22   17   19 1
    23   18   19 1
    24   19   21 1
    25   20   21 1
    26    1   23 1
    27    2   24 1
    28    3   25 1
    29    4   26 1
    30    5   27 1
    31    6   28 1
    32    7   29 1
    33    8   30 1
    34    9   31 1
    35   14   32 1
    36   14   33 1
    37   15   34 1
    38   15   35 1
    39   16   36 1
    40   16   37 1
    41   17   38 1
    42   17   39 1
    43   18   40 1
    44   19   41 1
@<TRIPOS>Similarity
1.4590
@<TRIPOS>ShapeSim
0.8103
@<TRIPOS>PharmSim
0.6487
# END
# Name:		AG-205/37386021
# Created and modified by SHAFTS on Thu Dec 15 20:34:29 2011

# 

@<TRIPOS>MOLECULE
AG-205/37386021
   36    38     0
SMALL
USER_CHARGE


@<TRIPOS>ATOM
      1 C1         -1.2666    2.0946    1.1437 C.ar      1 <1>        -0.1018
      2 C2         -0.5325    0.9187    0.9883 C.ar      1 <1>        -0.0918
      3 C3         -0.8061    3.2841    0.5790 C.ar      1 <1>        -0.0928
      4 C4          0.6621    0.9324    0.2683 C.ar      1 <1>        -0.0522
      5 C5          0.3884    3.2977   -0.1409 C.ar      1 <1>        -0.0533
      6 C6          4.3372    1.6918   -1.7537 C.ar      1 <1>         0.0073
      7 C7          5.5577    1.0052   -1.7642 C.ar      1 <1>        -0.0836
      8 C8          5.7300   -0.0050   -0.8178 C.ar      1 <1>        -0.0724
      9 C9          1.1226    2.1219   -0.2964 C.ar      1 <1>         0.0006
     10 C10         3.7173    2.7353   -2.4694 C.2       1 <1>         0.0003
     11 C11         4.6973   -0.2747    0.0741 C.ar      1 <1>        -0.0408
     12 C12         3.3920    1.3219   -0.8096 C.ar      1 <1>         0.0462
     13 C13         6.6469    1.3210   -2.7374 C.3       1 <1>        -0.0265
     14 C14         7.0044   -0.7826   -0.7661 C.3       1 <1>        -0.0381
     15 C15         4.2646    3.5100   -3.5977 C.3       1 <1>         0.0047
     16 C16         4.8726   -1.3570    1.0934 C.3       1 <1>         0.0016
     17 N1          3.5013    0.3604    0.1237 N.ar      1 <1>        -0.3612
     18 N2          2.4865    3.0092   -2.0243 N.2       1 <1>        -0.3042
     19 N3          2.3167    2.1347   -1.0161 N.pl3     1 <1>        -0.2565
     20 H1         -2.1976    2.0842    1.7028 H         1 <1>         0.1190
     21 H2         -0.8915   -0.0077    1.4268 H         1 <1>         0.1270
     22 H3         -1.3792    4.1990    0.6993 H         1 <1>         0.1258
     23 H4          1.2242    0.0087    0.1540 H         1 <1>         0.1362
     24 H5          0.7354    4.2316   -0.5766 H         1 <1>         0.1342
     25 H6          7.3141    2.0860   -2.3243 H         1 <1>         0.0691
     26 H7          7.2396    0.4283   -2.9710 H         1 <1>         0.0648
     27 H8          6.2358    1.6893   -3.6852 H         1 <1>         0.0671
     28 H9          7.7193   -0.2954   -0.0933 H         1 <1>         0.0572
     29 H10         6.8301   -1.8055   -0.4103 H         1 <1>         0.0562
     30 H11         7.4594   -0.8637   -1.7611 H         1 <1>         0.0577
     31 H12         4.0219    3.0350   -4.5632 H         1 <1>         0.0875
     32 H13         3.8698    4.5408   -3.6247 H         1 <1>         0.0844
     33 H14         5.3631    3.6077   -3.5409 H         1 <1>         0.0872
     34 H15         5.3075   -0.9441    2.0095 H         1 <1>         0.0815
     35 H16         3.9126   -1.8247    1.3387 H         1 <1>         0.0818
     36 H17         5.5298   -2.1487    0.7166 H         1 <1>         0.0780
@<TRIPOS>BOND
     1    1    2 ar
     2    1    3 ar
     3    2    4 ar
     4    3    5 ar
     5    4    9 ar
     6    5    9 ar
     7    6    7 ar
     8    6   10 1
     9    6   12 ar
    10    7    8 ar
    11    7   13 1
    12    8   11 ar
    13    8   14 1
    14    9   19 1
    15   10   15 1
    16   10   18 2
    17   11   16 1
    18   11   17 ar
    19   12   17 ar
    20   12   19 1
    21   18   19 1
    22    1   20 1
    23    2   21 1
    24    3   22 1
    25    4   23 1
    26    5   24 1
    27   13   25 1
    28   13   26 1
    29   13   27 1
    30   14   28 1
    31   14   29 1
    32   14   30 1
    33   15   31 1
    34   15   32 1
    35   15   33 1
    36   16   34 1
    37   16   35 1
    38   16   36 1
@<TRIPOS>Similarity
1.4579
@<TRIPOS>ShapeSim
0.7319
@<TRIPOS>PharmSim
0.7260
# END
# Name:		AO-476/43250047
# Created and modified by SHAFTS on Thu Dec 15 20:34:29 2011

# 

@<TRIPOS>MOLECULE
AO-476/43250047
   51    54     0
SMALL
USER_CHARGE


@<TRIPOS>ATOM
      1 C1          5.1622   -2.6409    0.6313 C.ar      1 <1>        -0.0436
      2 C2          4.8660   -1.1171    2.4826 C.ar      1 <1>        -0.0487
      3 C3          5.4600   -3.6692    1.5253 C.ar      1 <1>        -0.0416
      4 C4          5.1637   -2.1455    3.3767 C.ar      1 <1>        -0.0516
      5 C5          4.6659    1.1283   -1.3639 C.ar      1 <1>         0.0168
      6 C6          3.3950    1.1987   -0.6859 C.ar      1 <1>         0.0803
      7 C7          4.8652   -1.3648    1.1099 C.ar      1 <1>         0.0012
      8 C8          5.4608   -3.4216    2.8980 C.ar      1 <1>        -0.0033
      9 C9          5.0751    1.9189   -2.4270 C.ar      1 <1>        -0.0024
     10 C10         5.3903    0.1392   -0.7646 C.2       1 <1>        -0.0123
     11 C11         2.4332    2.1354   -1.0907 C.ar      1 <1>         0.0990
     12 C12        -1.4576    2.5909    0.6457 C.3       1 <1>        -0.0622
     13 C13        -0.7457    1.2439    0.6669 C.3       1 <1>        -0.0482
     14 C14        -0.4389    3.7243    0.6662 C.3       1 <1>        -0.0483
     15 C15         0.2592    1.1198   -0.4773 C.3       1 <1>        -0.0186
     16 C16         0.5602    3.5976   -0.4818 C.3       1 <1>        -0.0201
     17 C17         6.3650    1.8942   -3.1607 C.3       1 <1>         0.0039
     18 C18         6.7451   -0.3976   -1.0077 C.3       1 <1>         0.0049
     19 C19         3.6337   -4.3678    4.8895 C.3       1 <1>        -0.0339
     20 C20         5.1381   -4.3623    5.0583 C.3       1 <1>         0.0158
     21 N1          3.3672    0.2749    0.2901 N.2       1 <1>        -0.2904
     22 N2          4.1224    2.8163   -2.7960 N.ar      1 <1>        -0.2963
     23 N3          2.8215    2.9203   -2.1353 N.ar      1 <1>        -0.2585
     24 N4          4.5670   -0.3356    0.2153 N.pl3     1 <1>        -0.2771
     25 N5          1.1781    2.2639   -0.4835 N.pl3     1 <1>        -0.3557
     26 O1          5.7504   -4.4247    3.7711 O.3       1 <1>        -0.4135
     27 H1          5.1654   -2.8479   -0.4362 H         1 <1>         0.1504
     28 H2          4.6368   -0.1269    2.8690 H         1 <1>         0.1517
     29 H3          5.6905   -4.6614    1.1469 H         1 <1>         0.1438
     30 H4          5.1620   -1.9458    4.4448 H         1 <1>         0.1257
     31 H5         -2.0811    2.6671   -0.2533 H         1 <1>         0.0406
     32 H6         -2.1246    2.6737    1.5109 H         1 <1>         0.0454
     33 H7         -0.2219    1.1286    1.6242 H         1 <1>         0.0578
     34 H8         -1.4799    0.4331    0.6037 H         1 <1>         0.0552
     35 H9         -0.9540    4.6892    0.6030 H         1 <1>         0.0574
     36 H10         0.1000    3.7085    1.6219 H         1 <1>         0.0579
     37 H11         0.8179    0.1834   -0.3551 H         1 <1>         0.1067
     38 H12        -0.2741    1.0667   -1.4354 H         1 <1>         0.0807
     39 H13         0.0526    3.7742   -1.4389 H         1 <1>         0.0735
     40 H14         1.3290    4.3718   -0.3659 H         1 <1>         0.1042
     41 H15         6.3148    1.2015   -4.0129 H         1 <1>         0.0820
     42 H16         6.6325    2.8900   -3.5448 H         1 <1>         0.0822
     43 H17         7.1951    1.5776   -2.5111 H         1 <1>         0.0764
     44 H18         7.4982    0.1440   -0.4131 H         1 <1>         0.0895
     45 H19         6.8176   -1.4672   -0.7485 H         1 <1>         0.0812
     46 H20         7.0352   -0.3199   -2.0691 H         1 <1>         0.0922
     47 H21         3.3037   -3.5053    4.3039 H         1 <1>         0.0586
     48 H22         3.3050   -5.2832    4.3868 H         1 <1>         0.0489
     49 H23         3.1360   -4.3439    5.8646 H         1 <1>         0.0489
     50 H24         5.4616   -5.2274    5.6449 H         1 <1>         0.0970
     51 H25         5.4649   -3.4466    5.5600 H         1 <1>         0.0969
@<TRIPOS>BOND
     1    1    3 ar
     2    1    7 ar
     3    2    4 ar
     4    2    7 ar
     5    3    8 ar
     6    4    8 ar
     7    5    6 ar
     8    5    9 ar
     9    5   10 2
    10    6   11 ar
    11    6   21 2
    12    7   24 1
    13    8   26 1
    14    9   17 1
    15    9   22 ar
    16   10   18 1
    17   10   24 1
    18   11   23 ar
    19   11   25 1
    20   12   13 1
    21   12   14 1
    22   13   15 1
    23   14   16 1
    24   15   25 1
    25   16   25 1
    26   19   20 1
    27   20   26 1
    28   21   24 1
    29   22   23 ar
    30    1   27 1
    31    2   28 1
    32    3   29 1
    33    4   30 1
    34   12   31 1
    35   12   32 1
    36   13   33 1
    37   13   34 1
    38   14   35 1
    39   14   36 1
    40   15   37 1
    41   15   38 1
    42   16   39 1
    43   16   40 1
    44   17   41 1
    45   17   42 1
    46   17   43 1
    47   18   44 1
    48   18   45 1
    49   18   46 1
    50   19   47 1
    51   19   48 1
    52   19   49 1
    53   20   50 1
    54   20   51 1
@<TRIPOS>Similarity
1.4547
@<TRIPOS>ShapeSim
0.7534
@<TRIPOS>PharmSim
0.7012
# END
# Name:		AE-848/32730016
# Created and modified by SHAFTS on Thu Dec 15 20:34:29 2011

# 

@<TRIPOS>MOLECULE
AE-848/32730016
   48    52     0
SMALL
USER_CHARGE


@<TRIPOS>ATOM
      1 C1          4.6430   -2.0904    3.0951 C.ar      1 <1>        -0.1016
      2 C2          5.5403   -3.1477    2.9575 C.ar      1 <1>        -0.0985
      3 C3          4.3518   -1.2525    2.0124 C.ar      1 <1>        -0.0897
      4 C4          5.5190    3.7930   -3.2072 C.ar      1 <1>        -0.0690
      5 C5          3.5584    3.2580   -4.5137 C.ar      1 <1>        -0.0633
      6 C6         -0.1129    1.1202   -0.3259 C.ar      1 <1>        -0.0687
      7 C7          0.7753    3.2563    0.3707 C.ar      1 <1>        -0.0635
      8 C8          6.1738   -3.4013    1.7375 C.ar      1 <1>        -0.0734
      9 C9          5.9486    4.6638   -4.2085 C.ar      1 <1>        -0.0770
     10 C10         3.9881    4.1288   -5.5150 C.ar      1 <1>        -0.0737
     11 C11        -1.3534    1.4600    0.2136 C.ar      1 <1>        -0.0768
     12 C12        -0.4652    3.5961    0.9102 C.ar      1 <1>        -0.0739
     13 C13         4.6523    1.1043   -1.9405 C.ar      1 <1>        -0.0354
     14 C14         2.9311    0.5573   -0.3522 C.ar      1 <1>        -0.0342
     15 C15         5.7686   -1.5431   -1.3445 C.2       1 <1>        -0.0455
     16 C16         4.9784   -1.4887    0.7726 C.ar      1 <1>        -0.0591
     17 C17         4.3239    3.0901   -3.3598 C.ar      1 <1>        -0.0296
     18 C18         0.9516    2.0183   -0.2474 C.ar      1 <1>        -0.0295
     19 C19         4.1619    0.2779   -0.9355 C.ar      1 <1>        -0.0559
     20 C20         4.9224   -0.8592   -0.5024 C.2       1 <1>        -0.0482
     21 C21         5.8730   -2.5555    0.6640 C.ar      1 <1>        -0.0524
     22 C22         5.1832    4.8317   -5.3625 C.ar      1 <1>        -0.0407
     23 C23        -1.5296    2.6980    0.8317 C.ar      1 <1>        -0.0406
     24 C24         3.8794    2.1887   -2.3231 C.ar      1 <1>        -0.0083
     25 C25         2.2353    1.6663   -0.8058 C.ar      1 <1>        -0.0076
     26 C26         7.2877   -3.5092   -1.1781 C.3       1 <1>        -0.0098
     27 N1          2.6792    2.4921   -1.7798 N.ar      1 <1>        -0.3722
     28 N2          6.3373   -2.5646   -0.6321 N.pl3     1 <1>        -0.3763
     29 Br1         5.7641    6.0123   -6.7192 Br        1 <1>        -0.1112
     30 Br2        -3.2104    3.1596    1.5620 Br        1 <1>        -0.1112
     31 H1          4.1628   -1.9130    4.0537 H         1 <1>         0.1138
     32 H2          5.7516   -3.7858    3.8118 H         1 <1>         0.1228
     33 H3          3.6502   -0.4325    2.1365 H         1 <1>         0.1259
     34 H4          6.1268    3.6728   -2.3134 H         1 <1>         0.1363
     35 H5          2.6242    2.7177   -4.6470 H         1 <1>         0.1481
     36 H6          0.0089    0.1512   -0.8045 H         1 <1>         0.1369
     37 H7          1.5950    3.9674    0.4389 H         1 <1>         0.1478
     38 H8          6.8714   -4.2259    1.6362 H         1 <1>         0.1208
     39 H9          6.8819    5.2046   -4.0739 H         1 <1>         0.1356
     40 H10         3.3800    4.2483   -6.4079 H         1 <1>         0.1361
     41 H11        -2.1727    0.7491    0.1436 H         1 <1>         0.1359
     42 H12        -0.5858    4.5646    1.3883 H         1 <1>         0.1358
     43 H13         5.6105    0.9053   -2.4128 H         1 <1>         0.1389
     44 H14         2.5270   -0.0742    0.4342 H         1 <1>         0.1408
     45 H15         6.0155   -1.3923   -2.3878 H         1 <1>         0.2052
     46 H16         8.2913   -3.1019   -1.0297 H         1 <1>         0.0999
     47 H17         7.1845   -4.4685   -0.6632 H         1 <1>         0.1073
     48 H18         7.0850   -3.6510   -2.2433 H         1 <1>         0.1089
@<TRIPOS>BOND
     1    1    2 ar
     2    1    3 ar
     3    2    8 ar
     4    3   16 ar
     5    4    9 ar
     6    4   17 ar
     7    5   10 ar
     8    5   17 ar
     9    6   11 ar
    10    6   18 ar
    11    7   12 ar
    12    7   18 ar
    13    8   21 ar
    14    9   22 ar
    15   10   22 ar
    16   11   23 ar
    17   12   23 ar
    18   13   19 ar
    19   13   24 ar
    20   14   19 ar
    21   14   25 ar
    22   15   20 2
    23   15   28 1
    24   16   20 1
    25   16   21 ar
    26   17   24 1
    27   18   25 1
    28   19   20 1
    29   21   28 1
    30   22   29 1
    31   23   30 1
    32   24   27 ar
    33   25   27 ar
    34   26   28 1
    35    1   31 1
    36    2   32 1
    37    3   33 1
    38    4   34 1
    39    5   35 1
    40    6   36 1
    41    7   37 1
    42    8   38 1
    43    9   39 1
    44   10   40 1
    45   11   41 1
    46   12   42 1
    47   13   43 1
    48   14   44 1
    49   15   45 1
    50   26   46 1
    51   26   47 1
    52   26   48 1
@<TRIPOS>Similarity
1.4531
@<TRIPOS>ShapeSim
0.8320
@<TRIPOS>PharmSim
0.6211
# END
# Name:		AK-968/11840335
# Created and modified by SHAFTS on Thu Dec 15 20:34:29 2011

# 

@<TRIPOS>MOLECULE
AK-968/11840335
   55    58     0
SMALL
USER_CHARGE


@<TRIPOS>ATOM
      1 C1          5.2954   -2.7629    0.7537 C.ar      1 <1>        -0.0801
      2 C2          4.8774   -0.7586    2.0364 C.ar      1 <1>        -0.0787
      3 C3          0.1642    2.7958    1.2637 C.ar      1 <1>        -0.0887
      4 C4         -0.7782    1.3189   -0.4000 C.ar      1 <1>        -0.0957
      5 C5          4.1267    3.9334   -5.5946 C.ar      1 <1>        -0.0868
      6 C6          6.0071    4.8761   -4.4060 C.ar      1 <1>        -0.0864
      7 C7          1.2189    3.0944    0.4012 C.ar      1 <1>        -0.0616
      8 C8          0.2765    1.6176   -1.2626 C.ar      1 <1>        -0.0713
      9 C9          3.9231    3.0272   -4.5539 C.ar      1 <1>        -0.0582
     10 C10         5.8035    3.9699   -3.3653 C.ar      1 <1>        -0.0577
     11 C11         4.8413   -3.5397    1.8193 C.ar      1 <1>        -0.0616
     12 C12         4.4231   -1.5356    3.1022 C.ar      1 <1>        -0.0608
     13 C13         5.3136   -1.3724    0.8622 C.ar      1 <1>        -0.0635
     14 C14        -0.8343    1.9079    0.8632 C.ar      1 <1>        -0.1110
     15 C15         5.1687    4.8578   -5.5207 C.ar      1 <1>        -0.1079
     16 C16         1.2751    2.5054   -0.8619 C.ar      1 <1>        -0.0300
     17 C17         4.7615    3.0455   -3.4393 C.ar      1 <1>        -0.0103
     18 C18         4.4050   -2.9261    2.9936 C.ar      1 <1>        -0.0352
     19 C19         5.0502    0.3728   -0.8512 C.2       1 <1>         0.0958
     20 C20         5.5417    1.1932   -1.9892 C.2       1 <1>         0.1657
     21 C21         3.3723    2.0455   -1.6399 C.2       1 <1>         0.1120
     22 C22         5.7873   -0.5623   -0.2491 C.2       1 <1>        -0.0293
     23 C23        -2.5057    0.1777    1.5699 C.3       1 <1>        -0.0635
     24 C24         6.3332    5.2826   -7.7002 C.3       1 <1>        -0.0628
     25 C25        -1.9616    1.5875    1.7855 C.3       1 <1>        -0.0487
     26 C26         5.3863    5.8266   -6.6335 C.3       1 <1>        -0.0470
     27 N1          2.3376    2.8079   -1.7318 N.2       1 <1>        -0.3329
     28 N2          4.5517    2.1119   -2.3663 N.am      1 <1>        -0.2251
     29 O1          6.6367    0.9938   -2.5003 O.2       1 <1>        -0.4364
     30 O2          3.9618   -3.6842    4.0335 O.3       1 <1>        -0.4358
     31 S1          3.4371    0.7778   -0.4422 S.3       1 <1>        -0.0324
     32 H1          5.6324   -3.2558   -0.1553 H         1 <1>         0.1392
     33 H2          4.8855    0.3241    2.1360 H         1 <1>         0.1408
     34 H3          0.1284    3.2589    2.2463 H         1 <1>         0.1268
     35 H4         -1.5511    0.6251   -0.7199 H         1 <1>         0.1244
     36 H5          3.4700    3.9106   -6.4603 H         1 <1>         0.1270
     37 H6          6.8219    5.5923   -4.3405 H         1 <1>         0.1271
     38 H7          1.9931    3.7868    0.7222 H         1 <1>         0.1373
     39 H8          0.3119    1.1540   -2.2448 H         1 <1>         0.1237
     40 H9          3.1077    2.3115   -4.6219 H         1 <1>         0.1336
     41 H10         6.4635    3.9922   -2.5017 H         1 <1>         0.1341
     42 H11         4.8296   -4.6225    1.7290 H         1 <1>         0.1316
     43 H12         4.0845   -1.0518    4.0143 H         1 <1>         0.1312
     44 H13         6.8026   -0.7219   -0.5730 H         1 <1>         0.1920
     45 H14        -2.8340    0.0375    0.5344 H         1 <1>         0.0340
     46 H15        -3.3613   -0.0120    2.2256 H         1 <1>         0.0338
     47 H16        -1.7402   -0.5758    1.7846 H         1 <1>         0.0364
     48 H17         7.3000    5.0086   -7.2644 H         1 <1>         0.0343
     49 H18         6.5119    6.0316   -8.4781 H         1 <1>         0.0369
     50 H19         5.9152    4.3901   -8.1781 H         1 <1>         0.0345
     51 H20        -1.6415    1.6931    2.8346 H         1 <1>         0.0609
     52 H21        -2.7811    2.3130    1.6570 H         1 <1>         0.0610
     53 H22         4.4265    6.0913   -7.1056 H         1 <1>         0.0623
     54 H23         5.7901    6.7749   -6.2437 H         1 <1>         0.0622
     55 H24         3.6947   -3.1163    4.7738 H         1 <1>         0.3609
@<TRIPOS>BOND
     1    1   11 ar
     2    1   13 ar
     3    2   12 ar
     4    2   13 ar
     5    3    7 ar
     6    3   14 ar
     7    4    8 ar
     8    4   14 ar
     9    5    9 ar
    10    5   15 ar
    11    6   10 ar
    12    6   15 ar
    13    7   16 ar
    14    8   16 ar
    15    9   17 ar
    16   10   17 ar
    17   11   18 ar
    18   12   18 ar
    19   13   22 1
    20   14   25 1
    21   15   26 1
    22   16   27 1
    23   17   28 1
    24   18   30 1
    25   19   20 1
    26   19   22 2
    27   19   31 1
    28   20   28 am
    29   20   29 2
    30   21   27 2
    31   21   28 1
    32   21   31 1
    33   23   25 1
    34   24   26 1
    35    1   32 1
    36    2   33 1
    37    3   34 1
    38    4   35 1
    39    5   36 1
    40    6   37 1
    41    7   38 1
    42    8   39 1
    43    9   40 1
    44   10   41 1
    45   11   42 1
    46   12   43 1
    47   22   44 1
    48   23   45 1
    49   23   46 1
    50   23   47 1
    51   24   48 1
    52   24   49 1
    53   24   50 1
    54   25   51 1
    55   25   52 1
    56   26   53 1
    57   26   54 1
    58   30   55 1
@<TRIPOS>Similarity
1.4531
@<TRIPOS>ShapeSim
0.8833
@<TRIPOS>PharmSim
0.5698
# END
# Name:		AE-842/32998057
# Created and modified by SHAFTS on Thu Dec 15 20:34:29 2011

# 

@<TRIPOS>MOLECULE
AE-842/32998057
   41    44     0
SMALL
USER_CHARGE


@<TRIPOS>ATOM
      1 C1         -0.9949    2.0580    1.1717 C.ar      1 <1>        -0.1045
      2 C2         -0.5612    0.8778    0.5680 C.ar      1 <1>        -0.0982
      3 C3         -0.3052    3.2498    0.9486 C.ar      1 <1>        -0.0995
      4 C4          0.5623    0.8893   -0.2588 C.ar      1 <1>        -0.0762
      5 C5          0.8181    3.2613    0.1219 C.ar      1 <1>        -0.0784
      6 C6          4.3677    3.1314   -5.1365 C.ar      1 <1>        -0.0445
      7 C7          4.7039    4.9304   -3.5594 C.ar      1 <1>        -0.0468
      8 C8          4.8136    3.9545   -6.1706 C.ar      1 <1>        -0.0636
      9 C9          5.1499    5.7535   -4.5934 C.ar      1 <1>        -0.0649
     10 C10         1.2520    2.0811   -0.4819 C.ar      1 <1>        -0.0370
     11 C11         4.3127    3.6194   -3.8309 C.ar      1 <1>        -0.0210
     12 C12         5.2048    5.2655   -5.8990 C.ar      1 <1>        -0.0166
     13 C13         2.4420    2.0931   -1.3576 C.2       1 <1>         0.0077
     14 C14         5.1908   -0.4147   -0.3992 C.3       1 <1>        -0.0675
     15 C15         6.2861    0.4877   -0.9649 C.3       1 <1>        -0.0644
     16 C16         3.8738    0.3233   -0.1941 C.3       1 <1>        -0.0489
     17 C17         5.7521    1.7721   -1.5935 C.3       1 <1>        -0.0413
     18 C18         3.3568    0.8961   -1.5142 C.3       1 <1>         0.0121
     19 C19         4.4619    1.5296   -2.3851 C.3       1 <1>        -0.0071
     20 N1          2.7585    3.1240   -2.0787 N.2       1 <1>        -0.3272
     21 N2          3.8648    2.7965   -2.7981 N.pl3     1 <1>        -0.3339
     22 Cl1         5.7550    6.2806   -7.1750 Cl        1 <1>        -0.1496
     23 H1         -1.8695    2.0490    1.8154 H         1 <1>         0.1187
     24 H2         -1.0981   -0.0501    0.7418 H         1 <1>         0.1189
     25 H3         -0.6430    4.1688    1.4185 H         1 <1>         0.1192
     26 H4          0.8915   -0.0361   -0.7243 H         1 <1>         0.1323
     27 H5          1.3479    4.1958   -0.0446 H         1 <1>         0.1287
     28 H6          4.0642    2.1117   -5.3589 H         1 <1>         0.1377
     29 H7          4.6636    5.3212   -2.5458 H         1 <1>         0.1341
     30 H8          4.8494    3.5610   -7.1833 H         1 <1>         0.1386
     31 H9          5.4497    6.7736   -4.3667 H         1 <1>         0.1391
     32 H10         5.0301   -1.2645   -1.0843 H         1 <1>         0.0453
     33 H11         5.5267   -0.8550    0.5561 H         1 <1>         0.0475
     34 H12         6.9993    0.7470   -0.1567 H         1 <1>         0.0475
     35 H13         6.8833   -0.0722   -1.7139 H         1 <1>         0.0422
     36 H14         3.1414   -0.3812    0.1816 H         1 <1>         0.0548
     37 H15         4.0047    1.1034    0.5410 H         1 <1>         0.0488
     38 H16         5.5888    2.4976   -0.7927 H         1 <1>         0.0624
     39 H17         6.5128    2.1984   -2.2489 H         1 <1>         0.0593
     40 H18         2.8121    0.1501   -2.0435 H         1 <1>         0.1007
     41 H19         4.6719    0.8703   -3.2419 H         1 <1>         0.0953
@<TRIPOS>BOND
     1    1    2 ar
     2    1    3 ar
     3    2    4 ar
     4    3    5 ar
     5    4   10 ar
     6    5   10 ar
     7    6    8 ar
     8    6   11 ar
     9    7    9 ar
    10    7   11 ar
    11    8   12 ar
    12    9   12 ar
    13   10   13 1
    14   11   21 1
    15   12   22 1
    16   13   18 1
    17   13   20 2
    18   14   15 1
    19   14   16 1
    20   15   17 1
    21   16   18 1
    22   17   19 1
    23   18   19 1
    24   19   21 1
    25   20   21 1
    26    1   23 1
    27    2   24 1
    28    3   25 1
    29    4   26 1
    30    5   27 1
    31    6   28 1
    32    7   29 1
    33    8   30 1
    34    9   31 1
    35   14   32 1
    36   14   33 1
    37   15   34 1
    38   15   35 1
    39   16   36 1
    40   16   37 1
    41   17   38 1
    42   17   39 1
    43   18   40 1
    44   19   41 1
@<TRIPOS>Similarity
1.4515
@<TRIPOS>ShapeSim
0.8103
@<TRIPOS>PharmSim
0.6412
# END
# Name:		AK-968/12097159
# Created and modified by SHAFTS on Thu Dec 15 20:34:29 2011

# 

@<TRIPOS>MOLECULE
AK-968/12097159
   63    66     0
SMALL
USER_CHARGE


@<TRIPOS>ATOM
      1 C1          5.3146   -2.7463    0.7013 C.ar      1 <1>        -0.0866
      2 C2          4.9226   -0.7716    2.0370 C.ar      1 <1>        -0.0859
      3 C3          4.9209   -3.5488    1.7721 C.ar      1 <1>        -0.0930
      4 C4          4.5288   -1.5740    3.1078 C.ar      1 <1>        -0.0928
      5 C5          0.1238    2.7164    1.5389 C.ar      1 <1>        -0.0889
      6 C6         -0.8685    1.2531   -0.1078 C.ar      1 <1>        -0.0958
      7 C7          4.8637    3.6134   -5.6963 C.ar      1 <1>        -0.0868
      8 C8          4.5659    5.4173   -4.1170 C.ar      1 <1>        -0.0865
      9 C9          1.1340    3.0475    0.6360 C.ar      1 <1>        -0.0616
     10 C10         0.1417    1.5843   -1.0108 C.ar      1 <1>        -0.0713
     11 C11         4.7217    2.6861   -4.6641 C.ar      1 <1>        -0.0582
     12 C12         4.4238    4.4900   -3.0847 C.ar      1 <1>        -0.0578
     13 C13         5.3156   -1.3577    0.8338 C.ar      1 <1>        -0.0662
     14 C14        -0.8774    1.8191    1.1671 C.ar      1 <1>        -0.1112
     15 C15         4.7858    4.9790   -5.4228 C.ar      1 <1>        -0.1080
     16 C16         4.5279   -2.9627    2.9753 C.ar      1 <1>        -0.1083
     17 C17         1.1430    2.4815   -0.6389 C.ar      1 <1>        -0.0302
     18 C18         4.5017    3.1244   -3.3583 C.ar      1 <1>        -0.0104
     19 C19         4.9483    0.4123   -0.8344 C.2       1 <1>         0.0958
     20 C20         5.3753    1.2604   -1.9781 C.2       1 <1>         0.1652
     21 C21         3.2104    2.0702   -1.5175 C.2       1 <1>         0.1118
     22 C22         5.7263   -0.5207   -0.2826 C.2       1 <1>        -0.0299
     23 C23        -3.2707    1.1209    1.4347 C.3       1 <1>        -0.0635
     24 C24         6.3905    6.3912   -6.7333 C.3       1 <1>        -0.0629
     25 C25         2.6395   -3.5780    4.5274 C.3       1 <1>        -0.0622
     26 C26         5.0222   -3.6619    5.3461 C.3       1 <1>        -0.0622
     27 C27        -1.9572    1.4640    2.1326 C.3       1 <1>        -0.0488
     28 C28         4.9378    5.9704   -6.5266 C.3       1 <1>        -0.0471
     29 C29         4.1048   -3.8212    4.1189 C.3       1 <1>        -0.0532
     30 N1          2.1607    2.8168   -1.5494 N.2       1 <1>        -0.3336
     31 N2          4.3550    2.1689   -2.2941 N.am      1 <1>        -0.2253
     32 O1          6.4494    1.0882   -2.5408 O.2       1 <1>        -0.4368
     33 S1          3.3488    0.7832   -0.3469 S.3       1 <1>        -0.0322
     34 H1          5.6185   -3.2177   -0.2303 H         1 <1>         0.1330
     35 H2          4.9177    0.3093    2.1554 H         1 <1>         0.1336
     36 H3          4.9227   -4.6297    1.6599 H         1 <1>         0.1240
     37 H4          4.2242   -1.1093    4.0418 H         1 <1>         0.1229
     38 H5          0.1246    3.1617    2.5303 H         1 <1>         0.1266
     39 H6         -1.6438    0.5523   -0.4055 H         1 <1>         0.1241
     40 H7          5.0370    3.2631   -6.7104 H         1 <1>         0.1269
     41 H8          4.5046    6.4794   -3.8947 H         1 <1>         0.1270
     42 H9          1.9107    3.7470    0.9348 H         1 <1>         0.1370
     43 H10         0.1405    1.1384   -2.0019 H         1 <1>         0.1236
     44 H11         4.7837    1.6243   -4.8889 H         1 <1>         0.1335
     45 H12         4.2538    4.8426   -2.0705 H         1 <1>         0.1340
     46 H13         6.7285   -0.6578   -0.6540 H         1 <1>         0.1909
     47 H14        -3.6080    1.9497    0.8030 H         1 <1>         0.0341
     48 H15        -4.0561    0.9119    2.1678 H         1 <1>         0.0338
     49 H16        -3.1576    0.2372    0.7974 H         1 <1>         0.0363
     50 H17         6.8139    6.8068   -5.8126 H         1 <1>         0.0369
     51 H18         6.4657    7.1534   -7.5153 H         1 <1>         0.0345
     52 H19         7.0081    5.5372   -7.0315 H         1 <1>         0.0343
     53 H20         2.4733   -2.5394    4.8333 H         1 <1>         0.0365
     54 H21         2.3443   -4.2217    5.3631 H         1 <1>         0.0387
     55 H22         1.9684   -3.7900    3.6876 H         1 <1>         0.0358
     56 H23         5.0161   -2.6235    5.6959 H         1 <1>         0.0359
     57 H24         6.0578   -3.9297    5.1096 H         1 <1>         0.0387
     58 H25         4.6970   -4.2965    6.1778 H         1 <1>         0.0367
     59 H26        -1.6482    0.6107    2.7576 H         1 <1>         0.0608
     60 H27        -2.1302    2.2932    2.8375 H         1 <1>         0.0610
     61 H28         4.5449    5.5582   -7.4699 H         1 <1>         0.0622
     62 H29         4.3288    6.8663   -6.3246 H         1 <1>         0.0621
     63 H30         4.1665   -4.8879    3.8304 H         1 <1>         0.0687
@<TRIPOS>BOND
     1    1    3 ar
     2    1   13 ar
     3    2    4 ar
     4    2   13 ar
     5    3   16 ar
     6    4   16 ar
     7    5    9 ar
     8    5   14 ar
     9    6   10 ar
    10    6   14 ar
    11    7   11 ar
    12    7   15 ar
    13    8   12 ar
    14    8   15 ar
    15    9   17 ar
    16   10   17 ar
    17   11   18 ar
    18   12   18 ar
    19   13   22 1
    20   14   27 1
    21   15   28 1
    22   16   29 1
    23   17   30 1
    24   18   31 1
    25   19   20 1
    26   19   22 2
    27   19   33 1
    28   20   31 am
    29   20   32 2
    30   21   30 2
    31   21   31 1
    32   21   33 1
    33   23   27 1
    34   24   28 1
    35   25   29 1
    36   26   29 1
    37    1   34 1
    38    2   35 1
    39    3   36 1
    40    4   37 1
    41    5   38 1
    42    6   39 1
    43    7   40 1
    44    8   41 1
    45    9   42 1
    46   10   43 1
    47   11   44 1
    48   12   45 1
    49   22   46 1
    50   23   47 1
    51   23   48 1
    52   23   49 1
    53   24   50 1
    54   24   51 1
    55   24   52 1
    56   25   53 1
    57   25   54 1
    58   25   55 1
    59   26   56 1
    60   26   57 1
    61   26   58 1
    62   27   59 1
    63   27   60 1
    64   28   61 1
    65   28   62 1
    66   29   63 1
@<TRIPOS>Similarity
1.4513
@<TRIPOS>ShapeSim
0.8565
@<TRIPOS>PharmSim
0.5948
# END
# Name:		AG-205/36408043
# Created and modified by SHAFTS on Thu Dec 15 20:34:29 2011

# 

@<TRIPOS>MOLECULE
AG-205/36408043
   50    54     0
SMALL
USER_CHARGE


@<TRIPOS>ATOM
      1 C1          5.4009   -3.3295    2.8030 C.ar      1 <1>        -0.1072
      2 C2          8.6325    4.0415   -3.1105 C.ar      1 <1>        -0.1097
      3 C3         -1.1999    2.1912    1.0274 C.ar      1 <1>        -0.1001
      4 C4          5.0262   -2.0633    3.2523 C.ar      1 <1>        -0.1037
      5 C5          5.5677   -3.5642    1.4381 C.ar      1 <1>        -0.1039
      6 C6          7.5650    4.3814   -2.2795 C.ar      1 <1>        -0.1068
      7 C7          8.7298    2.7498   -3.6278 C.ar      1 <1>        -0.1073
      8 C8         -0.8014    1.0542    0.3246 C.ar      1 <1>        -0.0900
      9 C9         -0.4182    3.3458    0.9869 C.ar      1 <1>        -0.0931
     10 C10         4.8179   -1.0318    2.3366 C.ar      1 <1>        -0.0933
     11 C11         5.3594   -2.5328    0.5225 C.ar      1 <1>        -0.0935
     12 C12         6.5949    3.4295   -1.9656 C.ar      1 <1>        -0.0989
     13 C13         7.7598    1.7979   -3.3140 C.ar      1 <1>        -0.0993
     14 C14         0.3789    1.0716   -0.4185 C.ar      1 <1>        -0.0517
     15 C15         0.7622    3.3632    0.2438 C.ar      1 <1>        -0.0565
     16 C16         4.9845   -1.2666    0.9717 C.ar      1 <1>        -0.0822
     17 C17         6.6923    2.1377   -2.4829 C.ar      1 <1>        -0.0956
     18 C18         4.3411    1.8232   -2.0103 C.2       1 <1>        -0.0442
     19 C19         1.1606    2.2261   -0.4589 C.ar      1 <1>        -0.0059
     20 C20         3.4340    1.4506   -1.0500 C.2       1 <1>        -0.0150
     21 C21         3.6835    2.8497   -2.7169 C.2       1 <1>        -0.0266
     22 C22         3.5562    0.4359   -0.0868 C.2       1 <1>        -0.0482
     23 C23         4.7630   -0.1693   -0.0030 C.2       1 <1>        -0.0775
     24 C24         5.9659    0.2726   -0.8552 C.3       1 <1>        -0.0143
     25 C25         5.6400    1.1039   -2.1425 C.3       1 <1>        -0.0106
     26 C26         4.1815    3.6100   -3.8761 C.3       1 <1>        -0.0041
     27 N1          2.4688    3.1195   -2.2202 N.2       1 <1>        -0.3289
     28 N2          2.3419    2.2430   -1.2028 N.pl3     1 <1>        -0.2888
     29 H1          5.5644   -4.1323    3.5159 H         1 <1>         0.1154
     30 H2          9.3870    4.7832   -3.3558 H         1 <1>         0.1124
     31 H3         -2.1196    2.1788    1.6047 H         1 <1>         0.1215
     32 H4          4.8974   -1.8800    4.3150 H         1 <1>         0.1169
     33 H5          5.8606   -4.5498    1.0883 H         1 <1>         0.1169
     34 H6          7.4884    5.3875   -1.8774 H         1 <1>         0.1136
     35 H7          9.5601    2.4852   -4.2757 H         1 <1>         0.1146
     36 H8         -1.4105    0.1555    0.3548 H         1 <1>         0.1285
     37 H9         -0.7300    4.2313    1.5333 H         1 <1>         0.1283
     38 H10         4.5259   -0.0501    2.7021 H         1 <1>         0.1220
     39 H11         5.4932   -2.7314   -0.5381 H         1 <1>         0.1219
     40 H12         5.7668    3.7031   -1.3171 H         1 <1>         0.1160
     41 H13         7.8439    0.7938   -3.7215 H         1 <1>         0.1176
     42 H14         0.6777    0.1787   -0.9623 H         1 <1>         0.1384
     43 H15         1.3616    4.2701    0.2203 H         1 <1>         0.1305
     44 H16         2.7287    0.1604    0.5610 H         1 <1>         0.1420
     45 H17         6.6801    0.8240   -0.2336 H         1 <1>         0.0821
     46 H18         6.4710   -0.6479   -1.1749 H         1 <1>         0.0816
     47 H19         5.5899    0.3829   -3.0241 H         1 <1>         0.1003
     48 H20         3.9078    3.1185   -4.8255 H         1 <1>         0.0763
     49 H21         3.7777    4.6378   -3.9056 H         1 <1>         0.0724
     50 H22         5.2808    3.7179   -3.8625 H         1 <1>         0.0874
@<TRIPOS>BOND
     1    1    4 ar
     2    1    5 ar
     3    2    6 ar
     4    2    7 ar
     5    3    8 ar
     6    3    9 ar
     7    4   10 ar
     8    5   11 ar
     9    6   12 ar
    10    7   13 ar
    11    8   14 ar
    12    9   15 ar
    13   10   16 ar
    14   11   16 ar
    15   12   17 ar
    16   13   17 ar
    17   14   19 ar
    18   15   19 ar
    19   16   23 1
    20   17   25 1
    21   18   20 2
    22   18   21 1
    23   18   25 1
    24   19   28 1
    25   20   22 1
    26   20   28 1
    27   21   26 1
    28   21   27 2
    29   22   23 2
    30   23   24 1
    31   24   25 1
    32   27   28 1
    33    1   29 1
    34    2   30 1
    35    3   31 1
    36    4   32 1
    37    5   33 1
    38    6   34 1
    39    7   35 1
    40    8   36 1
    41    9   37 1
    42   10   38 1
    43   11   39 1
    44   12   40 1
    45   13   41 1
    46   14   42 1
    47   15   43 1
    48   22   44 1
    49   24   45 1
    50   24   46 1
    51   25   47 1
    52   26   48 1
    53   26   49 1
    54   26   50 1
@<TRIPOS>Similarity
1.4507
@<TRIPOS>ShapeSim
0.7978
@<TRIPOS>PharmSim
0.6530
# END
# Name:		AK-968/11986610
# Created and modified by SHAFTS on Thu Dec 15 20:34:29 2011

# 

@<TRIPOS>MOLECULE
AK-968/11986610
   57    61     0
SMALL
USER_CHARGE


@<TRIPOS>ATOM
      1 C1          5.3163   -2.7467    0.7116 C.ar      1 <1>        -0.0688
      2 C2         -0.8690    1.2516   -0.1068 C.ar      1 <1>        -0.0888
      3 C3          0.1184    2.7196    1.5386 C.ar      1 <1>        -0.0960
      4 C4          4.2509    3.7133   -5.6837 C.ar      1 <1>        -0.0864
      5 C5          5.1815    5.3098   -4.1273 C.ar      1 <1>        -0.0864
      6 C6          0.1408    1.5843   -1.0097 C.ar      1 <1>        -0.0616
      7 C7          1.1283    3.0522    0.6357 C.ar      1 <1>        -0.0716
      8 C8          4.1081    2.7884   -4.6496 C.ar      1 <1>        -0.0579
      9 C9          5.0386    4.3849   -3.0931 C.ar      1 <1>        -0.0580
     10 C10         4.9243   -3.5671    1.7720 C.ar      1 <1>        -0.0438
     11 C11         4.9170   -0.7527    2.0506 C.ar      1 <1>        -0.0348
     12 C12         5.3128   -1.3475    0.8501 C.ar      1 <1>        -0.0486
     13 C13        -0.8802    1.8193    1.1673 C.ar      1 <1>        -0.1112
     14 C14         4.7877    4.9741   -5.4227 C.ar      1 <1>        -0.1076
     15 C15         1.1395    2.4846   -0.6384 C.ar      1 <1>        -0.0305
     16 C16         4.5018    3.1241   -3.3542 C.ar      1 <1>        -0.0107
     17 C17         4.5379   -2.9548    2.9465 C.ar      1 <1>         0.0379
     18 C18         4.5345   -1.5853    3.0821 C.ar      1 <1>         0.0398
     19 C19         4.9471    0.4186   -0.8230 C.2       1 <1>         0.0984
     20 C20         5.3751    1.2644   -1.9681 C.2       1 <1>         0.1665
     21 C21         3.2087    2.0731   -1.5128 C.2       1 <1>         0.1106
     22 C22         5.7252   -0.5123   -0.2677 C.2       1 <1>        -0.0238
     23 C23         3.8646   -2.4627    4.9432 C.3       1 <1>         0.1147
     24 C24        -3.1650    2.3960    2.0241 C.3       1 <1>        -0.0635
     25 C25         6.2948    5.8516   -7.2241 C.3       1 <1>        -0.0627
     26 C26        -1.9604    1.4647    2.1325 C.3       1 <1>        -0.0488
     27 C27         4.9405    5.9629   -6.5286 C.3       1 <1>        -0.0467
     28 N1          2.1583    2.8186   -1.5482 N.2       1 <1>        -0.3345
     29 N2          4.3544    2.1711   -2.2880 N.am      1 <1>        -0.2261
     30 O1          6.4503    1.0919   -2.5287 O.2       1 <1>        -0.4357
     31 O2          4.1277   -3.5874    4.0793 O.3       1 <1>        -0.3733
     32 O3          4.1213   -1.1890    4.3167 O.3       1 <1>        -0.3762
     33 S1          3.3465    0.7891   -0.3389 S.3       1 <1>        -0.0314
     34 H1          5.6250   -3.2075   -0.2244 H         1 <1>         0.1474
     35 H2         -1.6434    0.5497   -0.4044 H         1 <1>         0.1267
     36 H3          0.1169    3.1676    2.5286 H         1 <1>         0.1244
     37 H4          3.9436    3.4424   -6.6904 H         1 <1>         0.1271
     38 H5          5.6014    6.2896   -3.9151 H         1 <1>         0.1270
     39 H6          0.1411    1.1376   -2.0007 H         1 <1>         0.1371
     40 H7          1.9023    3.7546    0.9338 H         1 <1>         0.1236
     41 H8          3.6882    1.8089   -4.8644 H         1 <1>         0.1341
     42 H9          5.3496    4.6566   -2.0875 H         1 <1>         0.1337
     43 H10         4.9258   -4.6463    1.6695 H         1 <1>         0.1482
     44 H11         4.9077    0.3253    2.1764 H         1 <1>         0.1582
     45 H12         6.7282   -0.6495   -0.6362 H         1 <1>         0.1954
     46 H13         2.8138   -2.4961    5.2527 H         1 <1>         0.1717
     47 H14         4.4971   -2.5492    5.8343 H         1 <1>         0.2061
     48 H15        -2.8699    3.4395    2.1782 H         1 <1>         0.0338
     49 H16        -3.9196    2.1425    2.7751 H         1 <1>         0.0363
     50 H17        -3.6314    2.3213    1.0358 H         1 <1>         0.0340
     51 H18         7.1151    5.9782   -6.5094 H         1 <1>         0.0370
     52 H19         6.3975    6.6193   -7.9974 H         1 <1>         0.0345
     53 H20         6.4123    4.8724   -7.7004 H         1 <1>         0.0345
     54 H21        -2.2927    0.4263    1.9725 H         1 <1>         0.0609
     55 H22        -1.5766    1.4914    3.1653 H         1 <1>         0.0610
     56 H23         4.1408    5.8311   -7.2750 H         1 <1>         0.0624
     57 H24         4.8155    6.9889   -6.1463 H         1 <1>         0.0624
@<TRIPOS>BOND
     1    1   10 ar
     2    1   12 ar
     3    2    6 ar
     4    2   13 ar
     5    3    7 ar
     6    3   13 ar
     7    4    8 ar
     8    4   14 ar
     9    5    9 ar
    10    5   14 ar
    11    6   15 ar
    12    7   15 ar
    13    8   16 ar
    14    9   16 ar
    15   10   17 ar
    16   11   12 ar
    17   11   18 ar
    18   12   22 1
    19   13   26 1
    20   14   27 1
    21   15   28 1
    22   16   29 1
    23   17   18 ar
    24   17   31 1
    25   18   32 1
    26   19   20 1
    27   19   22 2
    28   19   33 1
    29   20   29 am
    30   20   30 2
    31   21   28 2
    32   21   29 1
    33   21   33 1
    34   23   31 1
    35   23   32 1
    36   24   26 1
    37   25   27 1
    38    1   34 1
    39    2   35 1
    40    3   36 1
    41    4   37 1
    42    5   38 1
    43    6   39 1
    44    7   40 1
    45    8   41 1
    46    9   42 1
    47   10   43 1
    48   11   44 1
    49   22   45 1
    50   23   46 1
    51   23   47 1
    52   24   48 1
    53   24   49 1
    54   24   50 1
    55   25   51 1
    56   25   52 1
    57   25   53 1
    58   26   54 1
    59   26   55 1
    60   27   56 1
    61   27   57 1
@<TRIPOS>Similarity
1.4506
@<TRIPOS>ShapeSim
0.8727
@<TRIPOS>PharmSim
0.5779
# END
# Name:		AK-087/11538930
# Created and modified by SHAFTS on Thu Dec 15 20:34:29 2011

# 

@<TRIPOS>MOLECULE
AK-087/11538930
   36    38     0
SMALL
USER_CHARGE


@<TRIPOS>ATOM
      1 C1          4.8652    0.0786    0.6858 C.1       1 <1>         0.0327
      2 C2         -1.2379    2.0636    1.1709 C.ar      1 <1>        -0.0978
      3 C3         -0.8247    0.9261    0.4774 C.ar      1 <1>        -0.0879
      4 C4         -0.4624    3.2225    1.1347 C.ar      1 <1>        -0.0919
      5 C5          4.0674    3.0402   -4.8813 C.ar      1 <1>        -0.0753
      6 C6          4.9855    4.6509   -3.3321 C.ar      1 <1>        -0.0758
      7 C7          4.6022    3.7619   -5.9485 C.ar      1 <1>        -0.0975
      8 C8          5.5202    5.3726   -4.3993 C.ar      1 <1>        -0.0976
      9 C9          0.3641    0.9475   -0.2522 C.ar      1 <1>        -0.0515
     10 C10         0.7263    3.2439    0.4052 C.ar      1 <1>        -0.0582
     11 C11         4.3363    1.7002   -1.7641 C.2       1 <1>        -0.0354
     12 C12         4.2590    3.4847   -3.5731 C.ar      1 <1>        -0.0358
     13 C13         5.3286    4.9280   -5.7074 C.ar      1 <1>        -0.1163
     14 C14         1.1396    2.1063   -0.2882 C.ar      1 <1>        -0.0086
     15 C15         3.7089    2.7410   -2.4747 C.2       1 <1>         0.0077
     16 C16         3.4114    1.3215   -0.8220 C.2       1 <1>        -0.0011
     17 C17         5.9010    5.6981   -6.8491 C.3       1 <1>        -0.0429
     18 C18         3.4780    0.2814    0.2235 C.3       1 <1>         0.1206
     19 N1          5.9590   -0.0745    1.0418 N.1       1 <1>        -0.3863
     20 N2          2.4803    3.0065   -2.0228 N.2       1 <1>        -0.3116
     21 N3          2.3283    2.1269   -1.0182 N.pl3     1 <1>        -0.2892
     22 H1         -2.1642    2.0481    1.7375 H         1 <1>         0.1246
     23 H2         -1.4290    0.0241    0.5042 H         1 <1>         0.1303
     24 H3         -0.7857    4.1084    1.6738 H         1 <1>         0.1291
     25 H4          3.5030    2.1335   -5.0862 H         1 <1>         0.1324
     26 H5          5.1435    5.0104   -2.3179 H         1 <1>         0.1313
     27 H6          4.4489    3.4081   -6.9645 H         1 <1>         0.1190
     28 H7          6.0850    6.2801   -4.2031 H         1 <1>         0.1201
     29 H8          0.6742    0.0541   -0.7888 H         1 <1>         0.1402
     30 H9          1.3208    4.1541    0.3850 H         1 <1>         0.1263
     31 H10         5.3214    1.2804   -1.9114 H         1 <1>         0.1366
     32 H11         5.1822    6.4472   -7.2032 H         1 <1>         0.0575
     33 H12         6.8258    6.2133   -6.5585 H         1 <1>         0.0542
     34 H13         6.1562    5.0370   -7.6877 H         1 <1>         0.0539
     35 H14         3.0794   -0.6808   -0.1427 H         1 <1>         0.1655
     36 H15         2.8472    0.5435    1.0907 H         1 <1>         0.1784
@<TRIPOS>BOND
     1    1   18 1
     2    1   19 3
     3    2    3 ar
     4    2    4 ar
     5    3    9 ar
     6    4   10 ar
     7    5    7 ar
     8    5   12 ar
     9    6    8 ar
    10    6   12 ar
    11    7   13 ar
    12    8   13 ar
    13    9   14 ar
    14   10   14 ar
    15   11   15 1
    16   11   16 2
    17   12   15 1
    18   13   17 1
    19   14   21 1
    20   15   20 2
    21   16   18 1
    22   16   21 1
    23   20   21 1
    24    2   22 1
    25    3   23 1
    26    4   24 1
    27    5   25 1
    28    6   26 1
    29    7   27 1
    30    8   28 1
    31    9   29 1
    32   10   30 1
    33   11   31 1
    34   17   32 1
    35   17   33 1
    36   17   34 1
    37   18   35 1
    38   18   36 1
@<TRIPOS>Similarity
1.4504
@<TRIPOS>ShapeSim
0.7839
@<TRIPOS>PharmSim
0.6665
# END
# Name:		AA-516/30011054
# Created and modified by SHAFTS on Thu Dec 15 20:34:29 2011

# 

@<TRIPOS>MOLECULE
AA-516/30011054
   28    30     0
SMALL
USER_CHARGE


@<TRIPOS>ATOM
      1 C1          5.2094   -3.3327    2.9492 C.ar      1 <1>        -0.1030
      2 C2          5.8480   -3.4038    1.7111 C.ar      1 <1>        -0.0949
      3 C3          4.3848   -2.2479    3.2474 C.ar      1 <1>        -0.0955
      4 C4          5.6622   -2.3900    0.7714 C.ar      1 <1>        -0.0621
      5 C5          4.1990   -1.2340    2.3077 C.ar      1 <1>        -0.0630
      6 C6          4.3584    1.6551   -1.7215 C.ar      1 <1>         0.0666
      7 C7          4.8377   -1.3050    1.0696 C.ar      1 <1>         0.0111
      8 C8          5.5477    0.9357   -1.6694 C.ar      1 <1>        -0.0115
      9 C9          3.3798    1.3203   -0.8021 C.ar      1 <1>         0.0445
     10 C10         3.7858    2.6990   -2.4719 C.2       1 <1>         0.0198
     11 C11         4.6457   -0.2576    0.0980 C.ar      1 <1>         0.0550
     12 C12         6.7040    1.1643   -2.5814 C.3       1 <1>         0.0111
     13 N1          5.6880   -0.0385   -0.7387 N.ar      1 <1>        -0.3516
     14 N2          3.4508    0.3701    0.1434 N.ar      1 <1>        -0.3254
     15 N3          2.5482    3.0065   -2.0682 N.2       1 <1>        -0.3153
     16 N4          2.3287    2.1516   -1.0520 N.pl3     1 <1>        -0.2747
     17 N5          4.4525    3.3058   -3.4888 N.pl3     1 <1>        -0.3711
     18 H1          5.3529   -4.1231    3.6801 H         1 <1>         0.1222
     19 H2          6.4886   -4.2493    1.4781 H         1 <1>         0.1192
     20 H3          3.8862   -2.1926    4.2107 H         1 <1>         0.1185
     21 H4          6.1667   -2.4600   -0.1895 H         1 <1>         0.1445
     22 H5          3.5530   -0.3948    2.5541 H         1 <1>         0.1420
     23 H6          7.3871    1.9093   -2.1545 H         1 <1>         0.0918
     24 H7          7.2659    0.2368   -2.7542 H         1 <1>         0.0792
     25 H8          6.3720    1.5213   -3.5655 H         1 <1>         0.0908
     26 H9          1.4386    2.1933   -0.5717 H         1 <1>         0.3924
     27 H10         5.4208    3.0592   -3.7218 H         1 <1>         0.2801
     28 H11         4.0487    4.0975   -4.0015 H         1 <1>         0.2793
@<TRIPOS>BOND
     1    1    2 ar
     2    1    3 ar
     3    2    4 ar
     4    3    5 ar
     5    4    7 ar
     6    5    7 ar
     7    6    8 ar
     8    6    9 ar
     9    6   10 1
    10    7   11 1
    11    8   12 1
    12    8   13 ar
    13    9   14 ar
    14    9   16 1
    15   10   15 2
    16   10   17 1
    17   11   13 ar
    18   11   14 ar
    19   15   16 1
    20    1   18 1
    21    2   19 1
    22    3   20 1
    23    4   21 1
    24    5   22 1
    25   12   23 1
    26   12   24 1
    27   12   25 1
    28   16   26 1
    29   17   27 1
    30   17   28 1
@<TRIPOS>Similarity
1.4502
@<TRIPOS>ShapeSim
0.7014
@<TRIPOS>PharmSim
0.7487
# END
# Name:		AF-399/15539335
# Created and modified by SHAFTS on Thu Dec 15 20:34:29 2011

# 

@<TRIPOS>MOLECULE
AF-399/15539335
   57    61     0
SMALL
USER_CHARGE


@<TRIPOS>ATOM
      1 C1          7.0099   -0.6750   -0.4759 C.1       1 <1>         0.0644
      2 C2          5.3373    4.9305   -5.7083 C.ar      1 <1>        -0.1034
      3 C3         -1.2661    2.0865    1.1545 C.ar      1 <1>        -0.0986
      4 C4          4.6270    3.7552   -5.9525 C.ar      1 <1>        -0.0978
      5 C5          5.5111    5.3814   -4.3998 C.ar      1 <1>        -0.0971
      6 C6         -0.5134    0.9196    1.0228 C.ar      1 <1>        -0.0916
      7 C7         -0.8270    3.2702    0.5613 C.ar      1 <1>        -0.0882
      8 C8          4.0904    3.0306   -4.8882 C.ar      1 <1>        -0.0744
      9 C9          4.9744    4.6569   -3.3355 C.ar      1 <1>        -0.0733
     10 C10         6.2006    1.0156   -4.2288 C.ar      1 <1>        -0.0826
     11 C11         5.1736   -0.9418   -3.2535 C.ar      1 <1>        -0.0810
     12 C12         0.6783    0.9363    0.2983 C.ar      1 <1>        -0.0550
     13 C13         0.3647    3.2869   -0.1633 C.ar      1 <1>        -0.0498
     14 C14         6.2217    0.3848   -5.4726 C.ar      1 <1>        -0.0492
     15 C15         5.1947   -1.5726   -4.4974 C.ar      1 <1>        -0.0485
     16 C16         4.2641    3.4815   -3.5796 C.ar      1 <1>        -0.0268
     17 C17         5.6766    0.3524   -3.1192 C.ar      1 <1>        -0.0737
     18 C18         4.3280    1.7015   -1.7512 C.2       1 <1>         0.0227
     19 C19         1.1174    2.1200   -0.2948 C.ar      1 <1>         0.0040
     20 C20         5.7187   -0.9093   -5.6069 C.ar      1 <1>         0.0585
     21 C21         3.7099    2.7338   -2.4805 C.2       1 <1>         0.0309
     22 C22         3.3976    1.3533   -0.8068 C.2       1 <1>         0.1111
     23 C23         5.7643    0.0128   -0.6354 C.2       1 <1>         0.1186
     24 C24         4.7423   -0.2237    0.2357 C.2       1 <1>         0.1234
     25 C25         5.1096   -2.3427    0.8889 C.2       1 <1>         0.0244
     26 C26         5.6529    1.0277   -1.7868 C.3       1 <1>         0.0483
     27 C27         6.1383   -4.5574    1.2987 C.3       1 <1>        -0.0169
     28 C28         4.8191   -3.4487    3.0815 C.3       1 <1>        -0.0161
     29 N1          8.0192   -1.2321   -0.3466 N.1       1 <1>        -0.3854
     30 N2          2.4717    2.9984   -2.0427 N.2       1 <1>        -0.2892
     31 N3          4.8633   -1.1302    1.2578 N.2       1 <1>        -0.3265
     32 N4          2.3080    2.1359   -1.0186 N.pl3     1 <1>        -0.2415
     33 N5          5.2777   -3.4534    1.6995 N.pl3     1 <1>        -0.3754
     34 O1          3.5043    0.4419    0.1527 O.3       1 <1>        -0.2891
     35 F1          5.7365   -1.5142   -6.8020 F         1 <1>        -0.2728
     36 H1          5.7562    5.4942   -6.5368 H         1 <1>         0.1193
     37 H2         -2.1949    2.0737    1.7170 H         1 <1>         0.1233
     38 H3          4.4927    3.4033   -6.9712 H         1 <1>         0.1203
     39 H4          6.0652    6.2958   -4.2098 H         1 <1>         0.1190
     40 H5         -0.8557   -0.0025    1.4835 H         1 <1>         0.1287
     41 H6         -1.4144    4.1782    0.6630 H         1 <1>         0.1303
     42 H7          3.5390    2.1163   -5.0949 H         1 <1>         0.1300
     43 H8          5.1187    5.0217   -2.3212 H         1 <1>         0.1307
     44 H9          6.5954    2.0238   -4.1338 H         1 <1>         0.1267
     45 H10         4.7631   -1.4662   -2.3945 H         1 <1>         0.1346
     46 H11         1.2550    0.0195    0.2027 H         1 <1>         0.1315
     47 H12         0.6950    4.2163   -0.6212 H         1 <1>         0.1418
     48 H13         6.6289    0.9012   -6.3367 H         1 <1>         0.1270
     49 H14         4.8036   -2.5803   -4.6023 H         1 <1>         0.1299
     50 H15         5.2129   -2.6138   -0.1790 H         1 <1>         0.2759
     51 H16         6.4601    1.7654   -1.7258 H         1 <1>         0.1306
     52 H17         7.1580   -4.3869    1.6537 H         1 <1>         0.0908
     53 H18         6.1553   -4.6471    0.2090 H         1 <1>         0.1081
     54 H19         5.7706   -5.4961    1.7217 H         1 <1>         0.0980
     55 H20         3.7876   -3.8061    3.1364 H         1 <1>         0.0937
     56 H21         4.8629   -2.4358    3.4909 H         1 <1>         0.1016
     57 H22         5.4503   -4.1007    3.6914 H         1 <1>         0.1062
@<TRIPOS>BOND
     1    1   23 1
     2    1   29 3
     3    2    4 ar
     4    2    5 ar
     5    3    6 ar
     6    3    7 ar
     7    4    8 ar
     8    5    9 ar
     9    6   12 ar
    10    7   13 ar
    11    8   16 ar
    12    9   16 ar
    13   10   14 ar
    14   10   17 ar
    15   11   15 ar
    16   11   17 ar
    17   12   19 ar
    18   13   19 ar
    19   14   20 ar
    20   15   20 ar
    21   16   21 1
    22   17   26 1
    23   18   21 1
    24   18   22 2
    25   18   26 1
    26   19   32 1
    27   20   35 1
    28   21   30 2
    29   22   32 1
    30   22   34 1
    31   23   24 2
    32   23   26 1
    33   24   31 1
    34   24   34 1
    35   25   31 2
    36   25   33 1
    37   27   33 1
    38   28   33 1
    39   30   32 1
    40    2   36 1
    41    3   37 1
    42    4   38 1
    43    5   39 1
    44    6   40 1
    45    7   41 1
    46    8   42 1
    47    9   43 1
    48   10   44 1
    49   11   45 1
    50   12   46 1
    51   13   47 1
    52   14   48 1
    53   15   49 1
    54   25   50 1
    55   26   51 1
    56   27   52 1
    57   27   53 1
    58   27   54 1
    59   28   55 1
    60   28   56 1
    61   28   57 1
@<TRIPOS>Similarity
1.4483
@<TRIPOS>ShapeSim
0.8089
@<TRIPOS>PharmSim
0.6394
# END
# Name:		AG-690/40146962
# Created and modified by SHAFTS on Thu Dec 15 20:34:29 2011

# 

@<TRIPOS>MOLECULE
AG-690/40146962
   38    41     0
SMALL
USER_CHARGE


@<TRIPOS>ATOM
      1 C1         -1.3795    2.4231    0.8702 C.ar      1 <1>        -0.1025
      2 C2          7.0042    0.3747   -1.9659 C.ar      1 <1>        -0.0898
      3 C3         -1.0301    1.1946    0.3095 C.ar      1 <1>        -0.0952
      4 C4         -0.4661    3.4774    0.8643 C.ar      1 <1>        -0.0955
      5 C5          6.5777   -0.4084   -0.8990 C.ar      1 <1>        -0.0784
      6 C6          6.1585    1.3519   -2.4812 C.ar      1 <1>        -0.0765
      7 C7          0.2327    1.0203   -0.2568 C.ar      1 <1>        -0.0651
      8 C8          0.7967    3.3031    0.2980 C.ar      1 <1>        -0.0656
      9 C9          3.9685    3.0177   -4.7997 C.ar      1 <1>        -0.0424
     10 C10         4.8855    4.6284   -3.2498 C.ar      1 <1>        -0.0471
     11 C11         5.3072   -0.2128   -0.3497 C.ar      1 <1>        -0.0437
     12 C12         4.2529    3.8771   -5.8610 C.ar      1 <1>        -0.0329
     13 C13         5.1699    5.4877   -4.3111 C.ar      1 <1>        -0.0364
     14 C14         4.8823    1.5426   -1.9234 C.ar      1 <1>         0.0001
     15 C15         4.2847    3.3935   -3.4941 C.ar      1 <1>        -0.0047
     16 C16         1.1460    2.0745   -0.2626 C.ar      1 <1>         0.0041
     17 C17         4.4403    0.7581   -0.8457 C.ar      1 <1>        -0.0072
     18 C18         4.8537    5.1120   -5.6167 C.ar      1 <1>         0.0710
     19 C19         3.9887    2.5017   -2.3914 C.ar      1 <1>         0.0235
     20 C20         2.4492    1.8944   -0.8474 C.ar      1 <1>         0.0535
     21 N1          3.2219    0.9319   -0.3043 N.ar      1 <1>        -0.3467
     22 N2          2.7623    2.7022   -1.8733 N.ar      1 <1>        -0.3320
     23 N3          5.1449    5.9852   -6.6978 N.pl3     1 <1>        -0.0470
     24 O1          4.8537    5.6264   -7.8645 O.3       1 <1>        -0.1543
     25 O2          5.6853    7.0917   -6.4572 O.2       1 <1>        -0.2454
     26 H1         -2.3633    2.5590    1.3095 H         1 <1>         0.1229
     27 H2          7.9907    0.2243   -2.3938 H         1 <1>         0.1308
     28 H3         -1.7417    0.3741    0.3125 H         1 <1>         0.1198
     29 H4         -0.7380    4.4347    1.2995 H         1 <1>         0.1195
     30 H5          7.2317   -1.1735   -0.4909 H         1 <1>         0.1408
     31 H6          6.5139    1.9514   -3.3153 H         1 <1>         0.1357
     32 H7          0.4899    0.0566   -0.6902 H         1 <1>         0.1417
     33 H8          1.4978    4.1342    0.3002 H         1 <1>         0.1408
     34 H9          3.5002    2.0583   -5.0065 H         1 <1>         0.1603
     35 H10         5.1382    4.9354   -2.2377 H         1 <1>         0.1544
     36 H11         4.9976   -0.8388    0.4850 H         1 <1>         0.1515
     37 H12         4.0007    3.5722   -6.8737 H         1 <1>         0.1696
     38 H13         5.6379    6.4476   -4.1072 H         1 <1>         0.1689
@<TRIPOS>BOND
     1    1    3 ar
     2    1    4 ar
     3    2    5 ar
     4    2    6 ar
     5    3    7 ar
     6    4    8 ar
     7    5   11 ar
     8    6   14 ar
     9    7   16 ar
    10    8   16 ar
    11    9   12 ar
    12    9   15 ar
    13   10   13 ar
    14   10   15 ar
    15   11   17 ar
    16   12   18 ar
    17   13   18 ar
    18   14   17 ar
    19   14   19 ar
    20   15   19 1
    21   16   20 1
    22   17   21 ar
    23   18   23 1
    24   19   22 ar
    25   20   21 ar
    26   20   22 ar
    27   23   24 1
    28   23   25 2
    29    1   26 1
    30    2   27 1
    31    3   28 1
    32    4   29 1
    33    5   30 1
    34    6   31 1
    35    7   32 1
    36    8   33 1
    37    9   34 1
    38   10   35 1
    39   11   36 1
    40   12   37 1
    41   13   38 1
@<TRIPOS>Similarity
1.4479
@<TRIPOS>ShapeSim
0.8285
@<TRIPOS>PharmSim
0.6194
# END
# Name:		AO-476/43421024
# Created and modified by SHAFTS on Thu Dec 15 20:34:29 2011

# 

@<TRIPOS>MOLECULE
AO-476/43421024
   43    45     0
SMALL
USER_CHARGE


@<TRIPOS>ATOM
      1 C1          5.3330   -3.2290    2.7725 C.ar      1 <1>        -0.0962
      2 C2          5.3451   -3.4859    1.4016 C.ar      1 <1>        -0.0893
      3 C3          5.0462   -1.9461    3.2392 C.ar      1 <1>        -0.0869
      4 C4          5.0707   -2.4600    0.4973 C.ar      1 <1>        -0.0549
      5 C5          4.7717   -0.9202    2.3348 C.ar      1 <1>        -0.0512
      6 C6          4.6450    1.2998   -1.5302 C.ar      1 <1>         0.0144
      7 C7          3.3672    1.3908   -0.8680 C.ar      1 <1>         0.0861
      8 C8          4.7839   -1.1771    0.9639 C.ar      1 <1>        -0.0018
      9 C9          5.0767    2.0775   -2.5941 C.ar      1 <1>        -0.0057
     10 C10         5.3500    0.3064   -0.9150 C.2       1 <1>        -0.0140
     11 C11         2.4219    2.3363   -1.2912 C.ar      1 <1>         0.0951
     12 C12         6.3748    2.0314   -3.3120 C.3       1 <1>        -0.0014
     13 C13         6.7008   -0.2489   -1.1380 C.3       1 <1>         0.0032
     14 C14        -0.1216    0.9845    0.7170 C.3       1 <1>        -0.0456
     15 C15         1.6797    4.0825    1.0552 C.3       1 <1>        -0.0463
     16 C16         0.2141    1.3811   -0.6804 C.3       1 <1>        -0.0226
     17 C17         0.7741    3.7419   -0.0791 C.3       1 <1>        -0.0226
     18 N1          3.3162    0.4748    0.1142 N.2       1 <1>        -0.2921
     19 N2          4.1397    2.9837   -2.9810 N.ar      1 <1>        -0.2979
     20 N3          2.8323    3.1086   -2.3368 N.ar      1 <1>        -0.2598
     21 N4          4.5092   -0.1511    0.0582 N.pl3     1 <1>        -0.2782
     22 N5          1.1603    2.4849   -0.6995 N.pl3     1 <1>        -0.3666
     23 H1          5.5448   -4.0278    3.4771 H         1 <1>         0.1271
     24 H2          5.5670   -4.4849    1.0382 H         1 <1>         0.1317
     25 H3          5.0354   -1.7471    4.3070 H         1 <1>         0.1310
     26 H4          5.0826   -2.6740   -0.5687 H         1 <1>         0.1357
     27 H5          4.5490    0.0750    2.7121 H         1 <1>         0.1407
     28 H6          6.3261    1.3330   -4.1597 H         1 <1>         0.0770
     29 H7          6.6592    3.0210   -3.7001 H         1 <1>         0.0788
     30 H8          7.1931    1.7094   -2.6502 H         1 <1>         0.0726
     31 H9          7.4535    0.2878   -0.5383 H         1 <1>         0.0878
     32 H10         6.7569   -1.3173   -0.8701 H         1 <1>         0.0793
     33 H11         7.0044   -0.1827   -2.1963 H         1 <1>         0.0917
     34 H12         0.7746    0.6609    1.2573 H         1 <1>         0.0349
     35 H13        -0.5885    1.8154    1.2571 H         1 <1>         0.0411
     36 H14        -0.8299    0.1474    0.7055 H         1 <1>         0.0464
     37 H15         1.6454    3.3077    1.8288 H         1 <1>         0.0387
     38 H16         2.7120    4.2010    0.7084 H         1 <1>         0.0365
     39 H17         1.3647    5.0290    1.5106 H         1 <1>         0.0463
     40 H18        -0.6853    1.7031   -1.2141 H         1 <1>         0.1042
     41 H19         0.6657    0.5455   -1.2231 H         1 <1>         0.1144
     42 H20         0.8131    4.5195   -0.8478 H         1 <1>         0.1120
     43 H21        -0.2588    3.6394    0.2664 H         1 <1>         0.1063
@<TRIPOS>BOND
     1    1    2 ar
     2    1    3 ar
     3    2    4 ar
     4    3    5 ar
     5    4    8 ar
     6    5    8 ar
     7    6    7 ar
     8    6    9 ar
     9    6   10 2
    10    7   11 ar
    11    7   18 2
    12    8   21 1
    13    9   12 1
    14    9   19 ar
    15   10   13 1
    16   10   21 1
    17   11   20 ar
    18   11   22 1
    19   14   16 1
    20   15   17 1
    21   16   22 1
    22   17   22 1
    23   18   21 1
    24   19   20 ar
    25    1   23 1
    26    2   24 1
    27    3   25 1
    28    4   26 1
    29    5   27 1
    30   12   28 1
    31   12   29 1
    32   12   30 1
    33   13   31 1
    34   13   32 1
    35   13   33 1
    36   14   34 1
    37   14   35 1
    38   14   36 1
    39   15   37 1
    40   15   38 1
    41   15   39 1
    42   16   40 1
    43   16   41 1
    44   17   42 1
    45   17   43 1
@<TRIPOS>Similarity
1.4478
@<TRIPOS>ShapeSim
0.7462
@<TRIPOS>PharmSim
0.7017
# END
# Name:		AO-476/42008142
# Created and modified by SHAFTS on Thu Dec 15 20:34:29 2011

# 

@<TRIPOS>MOLECULE
AO-476/42008142
   54    58     0
SMALL
USER_CHARGE


@<TRIPOS>ATOM
      1 C1          6.3185    1.3074   -2.5779 C.1       1 <1>         0.0818
      2 C2         -0.5220    1.0294    1.3063 C.ar      1 <1>        -0.0960
      3 C3         -1.2774    2.1774    1.0874 C.ar      1 <1>        -0.1013
      4 C4          0.7281    0.8843    0.6998 C.ar      1 <1>        -0.0718
      5 C5          4.2417    2.9373   -4.8749 C.ar      1 <1>        -0.0748
      6 C6          5.2123    4.5247   -3.3337 C.ar      1 <1>        -0.0840
      7 C7         -0.7869    3.1837    0.2591 C.ar      1 <1>        -0.0951
      8 C8          4.0854   -1.4856    2.2072 C.ar      1 <1>        -0.0829
      9 C9          6.2084   -2.5268    1.7112 C.ar      1 <1>        -0.0829
     10 C10         4.6158    3.7486   -5.9461 C.ar      1 <1>        -0.0520
     11 C11         5.5864    5.3360   -4.4048 C.ar      1 <1>        -0.0649
     12 C12         3.6743   -2.6405    2.8725 C.ar      1 <1>        -0.0704
     13 C13         5.7973   -3.6818    2.3766 C.ar      1 <1>        -0.0704
     14 C14         5.0235    1.5011   -1.9937 C.ar      1 <1>         0.1507
     15 C15         4.5399    3.3254   -3.5687 C.ar      1 <1>        -0.0547
     16 C16         1.2433    1.8841   -0.1423 C.ar      1 <1>        -0.0242
     17 C17         4.1497    2.4788   -2.4507 C.ar      1 <1>        -0.0025
     18 C18         0.4600    3.0399   -0.3654 C.ar      1 <1>        -0.0837
     19 C19         2.9017    2.6325   -1.8448 C.ar      1 <1>        -0.0287
     20 C20         5.3525   -1.4287    1.6265 C.ar      1 <1>        -0.0648
     21 C21         5.2881    4.9479   -5.7111 C.ar      1 <1>        -0.0112
     22 C22         4.5303   -3.7386    2.9573 C.ar      1 <1>        -0.0152
     23 C23         2.5579    1.7675   -0.7979 C.ar      1 <1>         0.0031
     24 C24         4.6057    0.6993   -0.9470 C.ar      1 <1>         0.1240
     25 C25         1.0089    4.1612   -1.2174 C.3       1 <1>        -0.0283
     26 C26         1.9072    3.6443   -2.3451 C.3       1 <1>        -0.0209
     27 C27         6.3381    6.9516   -6.4450 C.3       1 <1>         0.0247
     28 C28         5.7956   -0.1859    0.9120 C.3       1 <1>         0.0622
     29 N1          7.3667    1.1507   -3.0506 N.1       1 <1>        -0.3656
     30 N2          3.4004    0.8067   -0.3434 N.ar      1 <1>        -0.3363
     31 O1          5.6535    5.7390   -6.7565 O.3       1 <1>        -0.4160
     32 O2          5.4292   -0.2826   -0.4586 O.3       1 <1>        -0.3478
     33 Cl1         4.0230   -5.1632    3.7782 Cl        1 <1>        -0.1412
     34 H1         -0.9037    0.2443    1.9527 H         1 <1>         0.1185
     35 H2         -2.2461    2.2905    1.5650 H         1 <1>         0.1227
     36 H3          1.2898   -0.0265    0.8948 H         1 <1>         0.1392
     37 H4          3.7182    2.0054   -5.0741 H         1 <1>         0.1394
     38 H5          5.4520    4.8410   -2.3213 H         1 <1>         0.1371
     39 H6         -1.3795    4.0818    0.1054 H         1 <1>         0.1217
     40 H7          3.4126   -0.6342    2.1452 H         1 <1>         0.1355
     41 H8          7.1972   -2.4904    1.2617 H         1 <1>         0.1356
     42 H9          4.3808    3.4410   -6.9614 H         1 <1>         0.1332
     43 H10         6.1101    6.2691   -4.2158 H         1 <1>         0.1167
     44 H11         2.6844   -2.6702    3.3204 H         1 <1>         0.1339
     45 H12         6.4750   -4.5297    2.4346 H         1 <1>         0.1340
     46 H13         0.1916    4.7459   -1.6560 H         1 <1>         0.0739
     47 H14         1.5802    4.8322   -0.5628 H         1 <1>         0.0771
     48 H15         2.3958    4.5123   -2.8007 H         1 <1>         0.0788
     49 H16         1.2936    3.1647   -3.1187 H         1 <1>         0.0751
     50 H17         6.5713    7.4868   -7.3688 H         1 <1>         0.0904
     51 H18         7.2584    6.7224   -5.9020 H         1 <1>         0.1227
     52 H19         5.6934    7.5732   -5.8192 H         1 <1>         0.0899
     53 H20         5.3260    0.7037    1.3454 H         1 <1>         0.1326
     54 H21         6.8816   -0.0627    0.9857 H         1 <1>         0.1329
@<TRIPOS>BOND
     1    1   14 1
     2    1   29 3
     3    2    3 ar
     4    2    4 ar
     5    3    7 ar
     6    4   16 ar
     7    5   10 ar
     8    5   15 ar
     9    6   11 ar
    10    6   15 ar
    11    7   18 ar
    12    8   12 ar
    13    8   20 ar
    14    9   13 ar
    15    9   20 ar
    16   10   21 ar
    17   11   21 ar
    18   12   22 ar
    19   13   22 ar
    20   14   17 ar
    21   14   24 ar
    22   15   17 1
    23   16   18 ar
    24   16   23 1
    25   17   19 ar
    26   18   25 1
    27   19   23 ar
    28   19   26 1
    29   20   28 1
    30   21   31 1
    31   22   33 1
    32   23   30 ar
    33   24   30 ar
    34   24   32 1
    35   25   26 1
    36   27   31 1
    37   28   32 1
    38    2   34 1
    39    3   35 1
    40    4   36 1
    41    5   37 1
    42    6   38 1
    43    7   39 1
    44    8   40 1
    45    9   41 1
    46   10   42 1
    47   11   43 1
    48   12   44 1
    49   13   45 1
    50   25   46 1
    51   25   47 1
    52   26   48 1
    53   26   49 1
    54   27   50 1
    55   27   51 1
    56   27   52 1
    57   28   53 1
    58   28   54 1
@<TRIPOS>Similarity
1.4468
@<TRIPOS>ShapeSim
0.8901
@<TRIPOS>PharmSim
0.5567
# END
# Name:		AK-968/37129435
# Created and modified by SHAFTS on Thu Dec 15 20:34:29 2011

# 

@<TRIPOS>MOLECULE
AK-968/37129435
   51    54     0
SMALL
USER_CHARGE


@<TRIPOS>ATOM
      1 C1          0.2104    2.8555    1.2849 C.ar      1 <1>        -0.0881
      2 C2         -0.7631    1.3614   -0.3451 C.ar      1 <1>        -0.0949
      3 C3          4.6155    3.6117   -5.7898 C.ar      1 <1>        -0.0858
      4 C4          5.5148    5.2077   -4.2146 C.ar      1 <1>        -0.0860
      5 C5          1.2558    3.1347    0.4047 C.ar      1 <1>        -0.0611
      6 C6          0.2823    1.6404   -1.2254 C.ar      1 <1>        -0.0710
      7 C7          4.4121    2.7022   -4.7521 C.ar      1 <1>        -0.0576
      8 C8          5.3113    4.2982   -3.1769 C.ar      1 <1>        -0.0578
      9 C9          5.7520   -2.6607    1.1436 C.2       1 <1>        -0.0342
     10 C10        -0.7991    1.9688    0.9100 C.ar      1 <1>        -0.1103
     11 C11         5.1670    4.8645   -5.5211 C.ar      1 <1>        -0.1071
     12 C12         1.2918    2.5271   -0.8504 C.ar      1 <1>        -0.0284
     13 C13         4.7598    3.0454   -3.4456 C.ar      1 <1>        -0.0102
     14 C14         5.0287   -3.0309    2.3025 C.2       1 <1>         0.0165
     15 C15         5.3382   -1.3881    0.8254 C.2       1 <1>         0.0542
     16 C16         4.2246   -1.9581    2.6099 C.2       1 <1>         0.1124
     17 C17         5.0469    0.3619   -0.8685 C.2       1 <1>         0.1122
     18 C18         5.5381    1.1853   -2.0045 C.2       1 <1>         0.1721
     19 C19         3.3720    2.0425   -1.6468 C.2       1 <1>         0.1184
     20 C20         5.7827   -0.5776   -0.2717 C.2       1 <1>         0.0169
     21 C21        -1.6091    0.4805    2.7580 C.3       1 <1>        -0.0633
     22 C22         6.7634    5.6902   -7.2693 C.3       1 <1>        -0.0627
     23 C23        -1.9165    1.6695    1.8512 C.3       1 <1>        -0.0483
     24 C24         5.3846    5.8369   -6.6307 C.3       1 <1>        -0.0465
     25 N1          2.3393    2.8083   -1.7332 N.2       1 <1>        -0.3288
     26 N2          4.5499    2.1083   -2.3757 N.am      1 <1>        -0.2230
     27 O1          6.6313    0.9846   -2.5190 O.2       1 <1>        -0.4320
     28 O2          4.4073   -0.9525    1.7143 O.3       1 <1>        -0.3349
     29 S1          3.4359    0.7701   -0.4541 S.3       1 <1>        -0.0188
     30 Br1         5.2070   -4.6799    3.1671 Br        1 <1>        -0.0714
     31 Br2         3.0104   -1.8405    4.0663 Br        1 <1>         0.0316
     32 H1          0.1902    3.3330    2.2610 H         1 <1>         0.1275
     33 H2         -1.5446    0.6684   -0.6451 H         1 <1>         0.1252
     34 H3          4.3437    3.3350   -6.8051 H         1 <1>         0.1278
     35 H4          5.9457    6.1814   -3.9963 H         1 <1>         0.1276
     36 H5          2.0386    3.8263    0.7057 H         1 <1>         0.1383
     37 H6          0.3020    1.1625   -2.2011 H         1 <1>         0.1237
     38 H7          3.9812    1.7288   -4.9729 H         1 <1>         0.1346
     39 H8          5.5869    4.5756   -2.1624 H         1 <1>         0.1341
     40 H9          6.4842   -3.2494    0.6072 H         1 <1>         0.1684
     41 H10         6.8037   -0.7209   -0.6262 H         1 <1>         0.2218
     42 H11        -1.3824   -0.4146    2.1689 H         1 <1>         0.0338
     43 H12        -2.4639    0.2541    3.4032 H         1 <1>         0.0365
     44 H13        -0.7458    0.6884    3.3990 H         1 <1>         0.0342
     45 H14         7.5565    5.8090   -6.5232 H         1 <1>         0.0345
     46 H15         6.9130    6.4465   -8.0462 H         1 <1>         0.0344
     47 H16         6.8800    4.7032   -7.7295 H         1 <1>         0.0372
     48 H17        -2.1395    2.5498    2.4753 H         1 <1>         0.0611
     49 H18        -2.8447    1.4659    1.2931 H         1 <1>         0.0614
     50 H19         4.6132    5.7121   -7.4076 H         1 <1>         0.0627
     51 H20         5.2652    6.8696   -6.2653 H         1 <1>         0.0626
@<TRIPOS>BOND
     1    1    5 ar
     2    1   10 ar
     3    2    6 ar
     4    2   10 ar
     5    3    7 ar
     6    3   11 ar
     7    4    8 ar
     8    4   11 ar
     9    5   12 ar
    10    6   12 ar
    11    7   13 ar
    12    8   13 ar
    13    9   14 1
    14    9   15 2
    15   10   23 1
    16   11   24 1
    17   12   25 1
    18   13   26 1
    19   14   16 2
    20   14   30 1
    21   15   20 1
    22   15   28 1
    23   16   28 1
    24   16   31 1
    25   17   18 1
    26   17   20 2
    27   17   29 1
    28   18   26 am
    29   18   27 2
    30   19   25 2
    31   19   26 1
    32   19   29 1
    33   21   23 1
    34   22   24 1
    35    1   32 1
    36    2   33 1
    37    3   34 1
    38    4   35 1
    39    5   36 1
    40    6   37 1
    41    7   38 1
    42    8   39 1
    43    9   40 1
    44   20   41 1
    45   21   42 1
    46   21   43 1
    47   21   44 1
    48   22   45 1
    49   22   46 1
    50   22   47 1
    51   23   48 1
    52   23   49 1
    53   24   50 1
    54   24   51 1
@<TRIPOS>Similarity
1.4462
@<TRIPOS>ShapeSim
0.8928
@<TRIPOS>PharmSim
0.5534
# END
# Name:		AO-476/43421047
# Created and modified by SHAFTS on Thu Dec 15 20:34:29 2011

# 

@<TRIPOS>MOLECULE
AO-476/43421047
   43    45     0
SMALL
USER_CHARGE


@<TRIPOS>ATOM
      1 C1          5.3449   -3.4862    1.4027 C.ar      1 <1>        -0.0881
      2 C2          5.0459   -1.9449    3.2390 C.ar      1 <1>        -0.0857
      3 C3          5.0706   -2.4610    0.4975 C.ar      1 <1>        -0.0538
      4 C4          4.7718   -0.9197    2.3338 C.ar      1 <1>        -0.0502
      5 C5          4.6448    1.2998   -1.5304 C.ar      1 <1>         0.0143
      6 C6          5.3324   -3.2282    2.7734 C.ar      1 <1>        -0.1090
      7 C7          3.3673    1.3909   -0.8678 C.ar      1 <1>         0.0848
      8 C8          4.7841   -1.1777    0.9630 C.ar      1 <1>        -0.0016
      9 C9          5.0763    2.0776   -2.5943 C.ar      1 <1>        -0.0055
     10 C10         5.3499    0.3061   -0.9157 C.2       1 <1>        -0.0139
     11 C11         2.4220    2.3366   -1.2904 C.ar      1 <1>         0.0935
     12 C12         5.6257   -4.3243    3.7413 C.3       1 <1>        -0.0399
     13 C13         6.3742    2.0315   -3.3126 C.3       1 <1>        -0.0012
     14 C14         6.7005   -0.2494   -1.1393 C.3       1 <1>         0.0034
     15 C15         0.2439    1.5585    1.3516 C.3       1 <1>        -0.0457
     16 C16         0.4981    3.7794   -0.6760 C.3       1 <1>        -0.0179
     17 C17         0.4794    1.3458   -0.1050 C.3       1 <1>        -0.0235
     18 N1          3.3164    0.4746    0.1143 N.2       1 <1>        -0.2934
     19 N2          4.1393    2.9841   -2.9807 N.ar      1 <1>        -0.2977
     20 N3          2.8322    3.1092   -2.3359 N.ar      1 <1>        -0.2600
     21 N4          4.5093   -0.1515    0.0577 N.pl3     1 <1>        -0.2789
     22 N5          1.1607    2.4853   -0.6983 N.pl3     1 <1>        -0.3675
     23 H1          5.5671   -4.4833    1.0318 H         1 <1>         0.1323
     24 H2          5.0339   -1.7347    4.3052 H         1 <1>         0.1316
     25 H3          5.0827   -2.6758   -0.5685 H         1 <1>         0.1373
     26 H4          4.5499    0.0757    2.7109 H         1 <1>         0.1421
     27 H5          6.7009   -4.3688    3.9538 H         1 <1>         0.0606
     28 H6          5.0900   -4.1742    4.6876 H         1 <1>         0.0568
     29 H7          5.3081   -5.2988    3.3478 H         1 <1>         0.0569
     30 H8          6.3251    1.3333   -4.1605 H         1 <1>         0.0773
     31 H9          6.6586    3.0211   -3.7006 H         1 <1>         0.0790
     32 H10         7.1927    1.7092   -2.6512 H         1 <1>         0.0728
     33 H11         7.4535    0.2870   -0.5398 H         1 <1>         0.0878
     34 H12         6.7565   -1.3179   -0.8717 H         1 <1>         0.0794
     35 H13         7.0038   -0.1830   -2.1977 H         1 <1>         0.0918
     36 H14         1.1912    1.6919    1.8852 H         1 <1>         0.0350
     37 H15        -0.3919    2.4346    1.5203 H         1 <1>         0.0410
     38 H16        -0.2636    0.6846    1.7773 H         1 <1>         0.0467
     39 H17        -0.4700    3.6972   -0.1751 H         1 <1>         0.0855
     40 H18         0.3372    4.1392   -1.6959 H         1 <1>         0.1051
     41 H19         1.1112    4.5087   -0.1397 H         1 <1>         0.0997
     42 H20        -0.4704    1.2134   -0.6318 H         1 <1>         0.1046
     43 H21         1.1014    0.4615   -0.2724 H         1 <1>         0.1145
@<TRIPOS>BOND
     1    1    3 ar
     2    1    6 ar
     3    2    4 ar
     4    2    6 ar
     5    3    8 ar
     6    4    8 ar
     7    5    7 ar
     8    5    9 ar
     9    5   10 2
    10    6   12 1
    11    7   11 ar
    12    7   18 2
    13    8   21 1
    14    9   13 1
    15    9   19 ar
    16   10   14 1
    17   10   21 1
    18   11   20 ar
    19   11   22 1
    20   15   17 1
    21   16   22 1
    22   17   22 1
    23   18   21 1
    24   19   20 ar
    25    1   23 1
    26    2   24 1
    27    3   25 1
    28    4   26 1
    29   12   27 1
    30   12   28 1
    31   12   29 1
    32   13   30 1
    33   13   31 1
    34   13   32 1
    35   14   33 1
    36   14   34 1
    37   14   35 1
    38   15   36 1
    39   15   37 1
    40   15   38 1
    41   16   39 1
    42   16   40 1
    43   16   41 1
    44   17   42 1
    45   17   43 1
@<TRIPOS>Similarity
1.4451
@<TRIPOS>ShapeSim
0.7371
@<TRIPOS>PharmSim
0.7080
# END
# Name:		AE-842/32998057
# Created and modified by SHAFTS on Thu Dec 15 20:34:29 2011

# 

@<TRIPOS>MOLECULE
AE-842/32998057
   41    44     0
SMALL
USER_CHARGE


@<TRIPOS>ATOM
      1 C1         -1.0594    2.0943    1.1534 C.ar      1 <1>        -0.1037
      2 C2         -0.3907    0.9026    0.8737 C.ar      1 <1>        -0.0976
      3 C3         -0.5946    3.2966    0.6202 C.ar      1 <1>        -0.0988
      4 C4          0.7427    0.9131    0.0607 C.ar      1 <1>        -0.0757
      5 C5          0.5388    3.3071   -0.1927 C.ar      1 <1>        -0.0774
      6 C6          5.4287    4.2890   -3.6455 C.ar      1 <1>        -0.0467
      7 C7          3.5546    3.7120   -5.0567 C.ar      1 <1>        -0.0456
      8 C8          5.8972    5.1643   -4.6253 C.ar      1 <1>        -0.0653
      9 C9          4.0230    4.5873   -6.0366 C.ar      1 <1>        -0.0646
     10 C10         1.2075    2.1154   -0.4725 C.ar      1 <1>        -0.0349
     11 C11         4.2575    3.5628   -3.8612 C.ar      1 <1>        -0.0234
     12 C12         5.1943    5.3135   -5.8208 C.ar      1 <1>        -0.0174
     13 C13         2.4029    2.1264   -1.3299 C.2       1 <1>         0.0077
     14 C14         5.2940   -0.2661   -0.1798 C.3       1 <1>        -0.0677
     15 C15         6.3023    0.3079   -1.1932 C.3       1 <1>        -0.0639
     16 C16         4.1116    0.6717    0.1267 C.3       1 <1>        -0.0491
     17 C17         5.6474    0.9673   -2.4224 C.3       1 <1>        -0.0429
     18 C18         3.5302    1.1377   -1.1909 C.3       1 <1>         0.0102
     19 C19         4.6043    1.9534   -1.9240 C.3       1 <1>        -0.0092
     20 N1          2.5477    2.9391   -2.3371 N.2       1 <1>        -0.3273
     21 N2          3.7913    2.6869   -2.8825 N.pl3     1 <1>        -0.3381
     22 Cl1         5.7724    6.3935   -7.0294 Cl        1 <1>        -0.1512
     23 H1         -1.9419    2.0860    1.7865 H         1 <1>         0.1199
     24 H2         -0.7526   -0.0334    1.2891 H         1 <1>         0.1194
     25 H3         -1.1155    4.2245    0.8379 H         1 <1>         0.1197
     26 H4          1.2561   -0.0213   -0.1509 H         1 <1>         0.1327
     27 H5          0.8919    4.2498   -0.6026 H         1 <1>         0.1307
     28 H6          5.9846    4.1792   -2.7179 H         1 <1>         0.1333
     29 H7          2.6416    3.1497   -5.2356 H         1 <1>         0.1345
     30 H8          6.8123    5.7221   -4.4440 H         1 <1>         0.1388
     31 H9          3.4654    4.6917   -6.9640 H         1 <1>         0.1382
     32 H10         4.8966   -1.2057   -0.5852 H         1 <1>         0.0437
     33 H11         5.8123   -0.5223    0.7511 H         1 <1>         0.0475
     34 H12         6.9169    1.0592   -0.6806 H         1 <1>         0.0491
     35 H13         6.9854   -0.4840   -1.5208 H         1 <1>         0.0441
     36 H14         3.3566    0.1395    0.7155 H         1 <1>         0.0555
     37 H15         4.4457    1.5211    0.7343 H         1 <1>         0.0578
     38 H16         6.4114    1.4797   -3.0177 H         1 <1>         0.0593
     39 H17         5.1983    0.2047   -3.0699 H         1 <1>         0.0606
     40 H18         3.2198    0.2639   -1.7845 H         1 <1>         0.0924
     41 H19         5.0742    2.6795   -1.2424 H         1 <1>         0.1055
@<TRIPOS>BOND
     1    1    2 ar
     2    1    3 ar
     3    2    4 ar
     4    3    5 ar
     5    4   10 ar
     6    5   10 ar
     7    6    8 ar
     8    6   11 ar
     9    7    9 ar
    10    7   11 ar
    11    8   12 ar
    12    9   12 ar
    13   10   13 1
    14   11   21 1
    15   12   22 1
    16   13   18 1
    17   13   20 2
    18   14   15 1
    19   14   16 1
    20   15   17 1
    21   16   18 1
    22   17   19 1
    23   18   19 1
    24   19   21 1
    25   20   21 1
    26    1   23 1
    27    2   24 1
    28    3   25 1
    29    4   26 1
    30    5   27 1
    31    6   28 1
    32    7   29 1
    33    8   30 1
    34    9   31 1
    35   14   32 1
    36   14   33 1
    37   15   34 1
    38   15   35 1
    39   16   36 1
    40   16   37 1
    41   17   38 1
    42   17   39 1
    43   18   40 1
    44   19   41 1
@<TRIPOS>Similarity
1.4448
@<TRIPOS>ShapeSim
0.8008
@<TRIPOS>PharmSim
0.6440
# END
# Name:		AG-690/11481219
# Created and modified by SHAFTS on Thu Dec 15 20:34:29 2011

# 

@<TRIPOS>MOLECULE
AG-690/11481219
   32    34     0
SMALL
USER_CHARGE


@<TRIPOS>ATOM
      1 C1          6.2268    1.2272   -2.3940 C.1       1 <1>         0.0815
      2 C2         -1.3412    2.1710    1.1104 C.ar      1 <1>        -0.1018
      3 C3         -0.4582    3.2506    1.0959 C.ar      1 <1>        -0.0952
      4 C4         -0.9747    0.9621    0.5186 C.ar      1 <1>        -0.0985
      5 C5          0.7914    3.1215    0.4896 C.ar      1 <1>        -0.0739
      6 C6          0.2749    0.8330   -0.0877 C.ar      1 <1>        -0.0796
      7 C7          5.1172    4.4624   -3.2144 C.ar      1 <1>        -0.0736
      8 C8          4.1991    2.8520   -4.7638 C.ar      1 <1>        -0.0751
      9 C9          5.4944    5.2756   -4.2830 C.ar      1 <1>        -0.0730
     10 C10         4.5763    3.6652   -5.8325 C.ar      1 <1>        -0.0733
     11 C11         2.8173    2.5916   -1.7905 C.ar      1 <1>        -0.0130
     12 C12         4.9231    1.4303   -1.8310 C.ar      1 <1>         0.1239
     13 C13         4.4696    3.2506   -3.4547 C.ar      1 <1>        -0.0519
     14 C14         1.1580    1.9127   -0.1021 C.ar      1 <1>        -0.0313
     15 C15         4.0785    2.4073   -2.3462 C.ar      1 <1>        -0.0017
     16 C16         5.2238    4.8771   -5.5920 C.ar      1 <1>        -0.0352
     17 C17         2.4512    1.7794   -0.7293 C.ar      1 <1>         0.0054
     18 C18         4.4629    0.6703   -0.7678 C.ar      1 <1>         0.0944
     19 N1          7.2815    1.0629   -2.8492 N.1       1 <1>        -0.3503
     20 N2          3.2444    0.8201   -0.2017 N.ar      1 <1>        -0.3425
     21 Br1         5.7337    5.9788   -7.0405 Br        1 <1>        -0.1033
     22 Br2         5.5458   -0.6979    0.0132 Br        1 <1>         0.0122
     23 H1         -2.3134    2.2712    1.5840 H         1 <1>         0.1232
     24 H2         -0.7427    4.1912    1.5580 H         1 <1>         0.1210
     25 H3         -1.6612    0.1207    0.5307 H         1 <1>         0.1208
     26 H4          1.4688    3.9722    0.4868 H         1 <1>         0.1419
     27 H5          0.5469   -0.1156   -0.5443 H         1 <1>         0.1295
     28 H6          5.3349    4.7868   -2.1995 H         1 <1>         0.1417
     29 H7          3.6944    1.9106   -4.9674 H         1 <1>         0.1350
     30 H8          5.9975    6.2172   -4.0786 H         1 <1>         0.1413
     31 H9          4.3582    3.3401   -6.8463 H         1 <1>         0.1407
     32 H10         2.1388    3.3481   -2.1750 H         1 <1>         0.1609
@<TRIPOS>BOND
     1    1   12 1
     2    1   19 3
     3    2    3 ar
     4    2    4 ar
     5    3    5 ar
     6    4    6 ar
     7    5   14 ar
     8    6   14 ar
     9    7    9 ar
    10    7   13 ar
    11    8   10 ar
    12    8   13 ar
    13    9   16 ar
    14   10   16 ar
    15   11   15 ar
    16   11   17 ar
    17   12   15 ar
    18   12   18 ar
    19   13   15 1
    20   14   17 1
    21   16   21 1
    22   17   20 ar
    23   18   20 ar
    24   18   22 1
    25    2   23 1
    26    3   24 1
    27    4   25 1
    28    5   26 1
    29    6   27 1
    30    7   28 1
    31    8   29 1
    32    9   30 1
    33   10   31 1
    34   11   32 1
@<TRIPOS>Similarity
1.4445
@<TRIPOS>ShapeSim
0.8469
@<TRIPOS>PharmSim
0.5976
# END
# Name:		AE-842/32998057
# Created and modified by SHAFTS on Thu Dec 15 20:34:29 2011

# 

@<TRIPOS>MOLECULE
AE-842/32998057
   41    44     0
SMALL
USER_CHARGE


@<TRIPOS>ATOM
      1 C1         -1.1738    2.0136    1.0436 C.ar      1 <1>        -0.1045
      2 C2         -0.4891    0.8499    0.6936 C.ar      1 <1>        -0.0983
      3 C3         -0.6417    3.2610    0.7167 C.ar      1 <1>        -0.0996
      4 C4          0.7277    0.9335    0.0169 C.ar      1 <1>        -0.0763
      5 C5          0.5751    3.3445    0.0400 C.ar      1 <1>        -0.0784
      6 C6          5.3133    4.5760   -3.4884 C.ar      1 <1>        -0.0468
      7 C7          3.8193    3.3055   -4.8994 C.ar      1 <1>        -0.0445
      8 C8          5.6955    5.3463   -4.5866 C.ar      1 <1>        -0.0648
      9 C9          4.2016    4.0758   -5.9977 C.ar      1 <1>        -0.0635
     10 C10         1.2598    2.1808   -0.3100 C.ar      1 <1>        -0.0371
     11 C11         4.3753    3.5556   -3.6448 C.ar      1 <1>        -0.0211
     12 C12         5.1397    5.0963   -5.8412 C.ar      1 <1>        -0.0165
     13 C13         2.5530    2.2695   -1.0292 C.2       1 <1>         0.0076
     14 C14         5.1771   -0.4447   -0.8166 C.3       1 <1>        -0.0675
     15 C15         5.8972    0.2064   -1.9837 C.3       1 <1>        -0.0645
     16 C16         3.8072    0.1818   -0.6316 C.3       1 <1>        -0.0488
     17 C17         6.1113    1.6876   -1.7108 C.3       1 <1>        -0.0413
     18 C18         3.8442    1.7087   -0.4712 C.3       1 <1>         0.0122
     19 C19         4.8322    2.4630   -1.3842 C.3       1 <1>        -0.0073
     20 N1          2.6654    2.7910   -2.2127 N.2       1 <1>        -0.3275
     21 N2          3.9945    2.7834   -2.5449 N.pl3     1 <1>        -0.3342
     22 Cl1         5.6115    6.0468   -7.1959 Cl        1 <1>        -0.1495
     23 H1         -2.1212    1.9486    1.5705 H         1 <1>         0.1186
     24 H2         -0.9035   -0.1212    0.9484 H         1 <1>         0.1189
     25 H3         -1.1750    4.1671    0.9890 H         1 <1>         0.1191
     26 H4          1.2529    0.0203   -0.2511 H         1 <1>         0.1323
     27 H5          0.9803    4.3218   -0.2095 H         1 <1>         0.1288
     28 H6          5.7532    4.7783   -2.5153 H         1 <1>         0.1341
     29 H7          3.0887    2.5117   -5.0326 H         1 <1>         0.1378
     30 H8          6.4290    6.1370   -4.4499 H         1 <1>         0.1391
     31 H9          3.7611    3.8680   -6.9696 H         1 <1>         0.1386
     32 H10         5.0794   -1.5223   -0.9873 H         1 <1>         0.0474
     33 H11         5.7655   -0.3150    0.0976 H         1 <1>         0.0454
     34 H12         6.8624   -0.2848   -2.1578 H         1 <1>         0.0422
     35 H13         5.3050    0.0845   -2.8983 H         1 <1>         0.0475
     36 H14         3.1617   -0.0970   -1.4672 H         1 <1>         0.0491
     37 H15         3.3529   -0.2392    0.2710 H         1 <1>         0.0547
     38 H16         6.8319    1.8035   -0.8839 H         1 <1>         0.0594
     39 H17         6.6163    2.1235   -2.5914 H         1 <1>         0.0624
     40 H18         3.8895    1.9741    0.5315 H         1 <1>         0.1016
     41 H19         5.1215    3.4190   -0.8415 H         1 <1>         0.0950
@<TRIPOS>BOND
     1    1    2 ar
     2    1    3 ar
     3    2    4 ar
     4    3    5 ar
     5    4   10 ar
     6    5   10 ar
     7    6    8 ar
     8    6   11 ar
     9    7    9 ar
    10    7   11 ar
    11    8   12 ar
    12    9   12 ar
    13   10   13 1
    14   11   21 1
    15   12   22 1
    16   13   18 1
    17   13   20 2
    18   14   15 1
    19   14   16 1
    20   15   17 1
    21   16   18 1
    22   17   19 1
    23   18   19 1
    24   19   21 1
    25   20   21 1
    26    1   23 1
    27    2   24 1
    28    3   25 1
    29    4   26 1
    30    5   27 1
    31    6   28 1
    32    7   29 1
    33    8   30 1
    34    9   31 1
    35   14   32 1
    36   14   33 1
    37   15   34 1
    38   15   35 1
    39   16   36 1
    40   16   37 1
    41   17   38 1
    42   17   39 1
    43   18   40 1
    44   19   41 1
@<TRIPOS>Similarity
1.4438
@<TRIPOS>ShapeSim
0.7996
@<TRIPOS>PharmSim
0.6441
# END
# Name:		AF-399/15539335
# Created and modified by SHAFTS on Thu Dec 15 20:34:29 2011

# 

@<TRIPOS>MOLECULE
AF-399/15539335
   57    61     0
SMALL
USER_CHARGE


@<TRIPOS>ATOM
      1 C1          6.8116   -1.0222   -0.8110 C.1       1 <1>         0.0644
      2 C2          5.3343    4.9249   -5.7137 C.ar      1 <1>        -0.1033
      3 C3         -1.2662    2.0837    1.1542 C.ar      1 <1>        -0.0984
      4 C4          4.5914    3.7688   -5.9520 C.ar      1 <1>        -0.0976
      5 C5          5.5437    5.3623   -4.4058 C.ar      1 <1>        -0.0971
      6 C6         -0.5448    0.9046    0.9679 C.ar      1 <1>        -0.0916
      7 C7         -0.7952    3.2817    0.6167 C.ar      1 <1>        -0.0879
      8 C8          4.0578    3.0498   -4.8823 C.ar      1 <1>        -0.0741
      9 C9          5.0101    4.6434   -3.3362 C.ar      1 <1>        -0.0733
     10 C10         6.2847    3.0936   -0.6741 C.ar      1 <1>        -0.0826
     11 C11         7.9233    1.9451   -2.0279 C.ar      1 <1>        -0.0810
     12 C12         0.6476    0.9232    0.2443 C.ar      1 <1>        -0.0554
     13 C13         0.3971    3.3004   -0.1068 C.ar      1 <1>        -0.0495
     14 C14         7.2269    4.0749   -0.3661 C.ar      1 <1>        -0.0493
     15 C15         8.8656    2.9264   -1.7200 C.ar      1 <1>        -0.0486
     16 C16         4.2670    3.4872   -3.5744 C.ar      1 <1>        -0.0265
     17 C17         6.6329    2.0286   -1.5050 C.ar      1 <1>        -0.0735
     18 C18         4.3230    1.6935   -1.7594 C.2       1 <1>         0.0230
     19 C19         1.1185    2.1212   -0.2930 C.ar      1 <1>         0.0041
     20 C20         8.5173    3.9913   -0.8891 C.ar      1 <1>         0.0584
     21 C21         3.7160    2.7452   -2.4699 C.2       1 <1>         0.0313
     22 C22         3.3775    1.3183   -0.8407 C.2       1 <1>         0.1112
     23 C23         5.6559   -0.1770   -0.8191 C.2       1 <1>         0.1187
     24 C24         4.6243   -0.4307    0.0358 C.2       1 <1>         0.1235
     25 C25         4.5768   -1.1239    2.1732 C.2       1 <1>         0.0243
     26 C26         5.6240    0.9776   -1.8359 C.3       1 <1>         0.0485
     27 C27         4.7319   -3.3969    3.1430 C.3       1 <1>        -0.0169
     28 C28         4.7437   -1.4083    4.6240 C.3       1 <1>        -0.0161
     29 N1          7.7478   -1.7071   -0.8043 N.1       1 <1>        -0.3855
     30 N2          2.4881    3.0278   -2.0147 N.2       1 <1>        -0.2889
     31 N3          4.6708   -1.4675    0.9323 N.2       1 <1>        -0.3263
     32 N4          2.3097    2.1390   -1.0158 N.pl3     1 <1>        -0.2414
     33 N5          4.5956   -1.9538    3.2821 N.pl3     1 <1>        -0.3755
     34 O1          3.4473    0.3420    0.0561 O.3       1 <1>        -0.2891
     35 F1          9.4214    4.9351   -0.5956 F         1 <1>        -0.2729
     36 H1          5.7509    5.4843   -6.5464 H         1 <1>         0.1191
     37 H2         -2.1955    2.0694    1.7159 H         1 <1>         0.1236
     38 H3          4.4294    3.4274   -6.9701 H         1 <1>         0.1204
     39 H4          6.1232    6.2618   -4.2205 H         1 <1>         0.1190
     40 H5         -0.9120   -0.0285    1.3852 H         1 <1>         0.1285
     41 H6         -1.3583    4.1993    0.7610 H         1 <1>         0.1306
     42 H7          3.4808    2.1504   -5.0844 H         1 <1>         0.1296
     43 H8          5.1822    4.9976   -2.3224 H         1 <1>         0.1299
     44 H9          5.2820    3.1668   -0.2613 H         1 <1>         0.1268
     45 H10         8.2036    1.1191   -2.6764 H         1 <1>         0.1346
     46 H11         1.1997   -0.0031    0.1059 H         1 <1>         0.1292
     47 H12         0.7523    4.2409   -0.5210 H         1 <1>         0.1420
     48 H13         6.9558    4.9043    0.2801 H         1 <1>         0.1269
     49 H14         9.8704    2.8614   -2.1266 H         1 <1>         0.1298
     50 H15         4.4668   -0.0647    2.4743 H         1 <1>         0.2756
     51 H16         5.7950    0.6001   -2.8499 H         1 <1>         0.1306
     52 H17         5.7882   -3.6778    3.1583 H         1 <1>         0.0906
     53 H18         4.2933   -3.7286    2.1980 H         1 <1>         0.1083
     54 H19         4.2205   -3.9058    3.9644 H         1 <1>         0.0981
     55 H20         3.7618   -1.1850    5.0494 H         1 <1>         0.0940
     56 H21         5.3323   -0.4873    4.5948 H         1 <1>         0.1014
     57 H22         5.2519   -2.1285    5.2709 H         1 <1>         0.1062
@<TRIPOS>BOND
     1    1   23 1
     2    1   29 3
     3    2    4 ar
     4    2    5 ar
     5    3    6 ar
     6    3    7 ar
     7    4    8 ar
     8    5    9 ar
     9    6   12 ar
    10    7   13 ar
    11    8   16 ar
    12    9   16 ar
    13   10   14 ar
    14   10   17 ar
    15   11   15 ar
    16   11   17 ar
    17   12   19 ar
    18   13   19 ar
    19   14   20 ar
    20   15   20 ar
    21   16   21 1
    22   17   26 1
    23   18   21 1
    24   18   22 2
    25   18   26 1
    26   19   32 1
    27   20   35 1
    28   21   30 2
    29   22   32 1
    30   22   34 1
    31   23   24 2
    32   23   26 1
    33   24   31 1
    34   24   34 1
    35   25   31 2
    36   25   33 1
    37   27   33 1
    38   28   33 1
    39   30   32 1
    40    2   36 1
    41    3   37 1
    42    4   38 1
    43    5   39 1
    44    6   40 1
    45    7   41 1
    46    8   42 1
    47    9   43 1
    48   10   44 1
    49   11   45 1
    50   12   46 1
    51   13   47 1
    52   14   48 1
    53   15   49 1
    54   25   50 1
    55   26   51 1
    56   27   52 1
    57   27   53 1
    58   27   54 1
    59   28   55 1
    60   28   56 1
    61   28   57 1
@<TRIPOS>Similarity
1.4433
@<TRIPOS>ShapeSim
0.8029
@<TRIPOS>PharmSim
0.6404
# END
# Name:		AG-205/37081173
# Created and modified by SHAFTS on Thu Dec 15 20:34:29 2011

# 

@<TRIPOS>MOLECULE
AG-205/37081173
   56    60     0
SMALL
USER_CHARGE


@<TRIPOS>ATOM
      1 C1         -1.5773    2.9217    0.4571 C.ar      1 <1>        -0.1010
      2 C2          5.1888   -3.5345    3.3334 C.ar      1 <1>        -0.1018
      3 C3         -1.4587    1.5569    0.1948 C.ar      1 <1>        -0.0967
      4 C4         -0.4332    3.7094    0.5844 C.ar      1 <1>        -0.0970
      5 C5          3.9240   -2.9581    3.4502 C.ar      1 <1>        -0.0979
      6 C6          6.0732   -3.0834    2.3535 C.ar      1 <1>        -0.0949
      7 C7          3.9963    3.1441   -4.9345 C.ar      1 <1>        -0.0722
      8 C8          4.8515    4.7960   -3.3928 C.ar      1 <1>        -0.0727
      9 C9         -0.1960    0.9798    0.0598 C.ar      1 <1>        -0.0749
     10 C10         0.8295    3.1323    0.4495 C.ar      1 <1>        -0.0793
     11 C11         3.5434   -1.9307    2.5869 C.ar      1 <1>        -0.0772
     12 C12         5.6926   -2.0559    1.4903 C.ar      1 <1>        -0.0716
     13 C13         4.1699    4.0392   -5.9901 C.ar      1 <1>        -0.0909
     14 C14         5.0253    5.6911   -4.4484 C.ar      1 <1>        -0.0907
     15 C15         5.0950    1.6722   -2.0745 C.2       1 <1>        -0.0012
     16 C16         4.3369    3.5225   -3.6359 C.ar      1 <1>        -0.0303
     17 C17         0.9481    1.7676    0.1872 C.ar      1 <1>        -0.0283
     18 C18         4.4277   -1.4796    1.6070 C.ar      1 <1>        -0.0254
     19 C19         4.6845    5.3127   -5.7470 C.ar      1 <1>        -0.1091
     20 C20         4.1581    2.5981   -2.5471 C.2       1 <1>         0.0138
     21 C21         4.4617    1.0268   -1.0371 C.2       1 <1>         0.0442
     22 C22         2.6463    0.1741    0.8858 C.2       1 <1>         0.0095
     23 C23         2.2831    1.1580    0.0448 C.2       1 <1>         0.0290
     24 C24         4.0219   -0.3843    0.6869 C.2       1 <1>         0.0114
     25 C25         3.5176    6.5712   -7.5909 C.3       1 <1>        -0.0619
     26 C26         5.8501    5.6949   -7.9475 C.3       1 <1>        -0.0619
     27 C27         5.4562    7.6658   -6.4840 C.3       1 <1>        -0.0619
     28 C28         4.8711    6.2685   -6.8764 C.3       1 <1>        -0.0617
     29 N1          3.0097    2.5609   -1.8746 N.2       1 <1>        -0.3123
     30 N2          4.8719    0.0285   -0.2088 N.2       1 <1>        -0.3398
     31 N3          3.1912    1.5937   -0.9318 N.pl3     1 <1>        -0.2525
     32 H1         -2.5605    3.3712    0.5609 H         1 <1>         0.1253
     33 H2          5.4852   -4.3345    4.0054 H         1 <1>         0.1233
     34 H3         -2.3494    0.9435    0.0944 H         1 <1>         0.1210
     35 H4         -0.5254    4.7723    0.7876 H         1 <1>         0.1228
     36 H5          3.2356   -3.3097    4.2131 H         1 <1>         0.1209
     37 H6          7.0581   -3.5320    2.2628 H         1 <1>         0.1209
     38 H7          3.5933    2.1554   -5.1407 H         1 <1>         0.1326
     39 H8          5.1219    5.1059   -2.3861 H         1 <1>         0.1333
     40 H9         -0.1196   -0.0856   -0.1446 H         1 <1>         0.1525
     41 H10         1.7119    3.7596    0.5515 H         1 <1>         0.1324
     42 H11         2.5554   -1.4886    2.6868 H         1 <1>         0.1300
     43 H12         6.3897   -1.7125    0.7304 H         1 <1>         0.1422
     44 H13         3.9027    3.7362   -6.9989 H         1 <1>         0.1210
     45 H14         5.4269    6.6815   -4.2507 H         1 <1>         0.1254
     46 H15         6.0982    1.4837   -2.4303 H         1 <1>         0.1452
     47 H16         2.0086   -0.2220    1.6672 H         1 <1>         0.1587
     48 H17         3.6269    7.2725   -8.4265 H         1 <1>         0.0381
     49 H18         3.0647    5.6595   -7.9957 H         1 <1>         0.0401
     50 H19         2.8035    7.0063   -6.8815 H         1 <1>         0.0383
     51 H20         5.9898    6.3944   -8.7790 H         1 <1>         0.0388
     52 H21         6.8448    5.4792   -7.5401 H         1 <1>         0.0386
     53 H22         5.4514    4.7628   -8.3651 H         1 <1>         0.0387
     54 H23         5.5747    8.3319   -7.3471 H         1 <1>         0.0383
     55 H24         4.7993    8.1773   -5.7708 H         1 <1>         0.0401
     56 H25         6.4447    7.5587   -6.0221 H         1 <1>         0.0381
@<TRIPOS>BOND
     1    1    3 ar
     2    1    4 ar
     3    2    5 ar
     4    2    6 ar
     5    3    9 ar
     6    4   10 ar
     7    5   11 ar
     8    6   12 ar
     9    7   13 ar
    10    7   16 ar
    11    8   14 ar
    12    8   16 ar
    13    9   17 ar
    14   10   17 ar
    15   11   18 ar
    16   12   18 ar
    17   13   19 ar
    18   14   19 ar
    19   15   20 1
    20   15   21 2
    21   16   20 1
    22   17   23 1
    23   18   24 1
    24   19   28 1
    25   20   29 2
    26   21   30 1
    27   21   31 1
    28   22   23 2
    29   22   24 1
    30   23   31 1
    31   24   30 2
    32   25   28 1
    33   26   28 1
    34   27   28 1
    35   29   31 1
    36    1   32 1
    37    2   33 1
    38    3   34 1
    39    4   35 1
    40    5   36 1
    41    6   37 1
    42    7   38 1
    43    8   39 1
    44    9   40 1
    45   10   41 1
    46   11   42 1
    47   12   43 1
    48   13   44 1
    49   14   45 1
    50   15   46 1
    51   22   47 1
    52   25   48 1
    53   25   49 1
    54   25   50 1
    55   26   51 1
    56   26   52 1
    57   26   53 1
    58   27   54 1
    59   27   55 1
    60   27   56 1
@<TRIPOS>Similarity
1.4432
@<TRIPOS>ShapeSim
0.8503
@<TRIPOS>PharmSim
0.5929
# END
# Name:		AH-487/41078165
# Created and modified by SHAFTS on Thu Dec 15 20:34:29 2011

# 

@<TRIPOS>MOLECULE
AH-487/41078165
   44    46     0
SMALL
USER_CHARGE


@<TRIPOS>ATOM
      1 C1         -1.1860    2.6332    0.3438 C.ar      1 <1>        -0.1046
      2 C2         -0.1535    3.2883    1.0147 C.ar      1 <1>        -0.0968
      3 C3         -0.9271    1.4518   -0.3512 C.ar      1 <1>        -0.1031
      4 C4          1.1382    2.7621    0.9905 C.ar      1 <1>        -0.0850
      5 C5          0.3645    0.9256   -0.3754 C.ar      1 <1>        -0.0926
      6 C6          5.7968    4.2526   -3.5061 C.ar      1 <1>        -0.0511
      7 C7          4.0409    3.0926   -4.6929 C.ar      1 <1>        -0.0493
      8 C8          5.9778    5.0983   -4.6005 C.ar      1 <1>        -0.0589
      9 C9          4.2218    3.9385   -5.7873 C.ar      1 <1>        -0.0573
     10 C10         1.3972    1.5807    0.2954 C.ar      1 <1>        -0.0668
     11 C11         4.8283    3.2497   -3.5524 C.ar      1 <1>        -0.0153
     12 C12         5.1903    4.9413   -5.7410 C.ar      1 <1>        -0.0071
     13 C13         5.0134    0.8977   -0.7663 C.2       1 <1>         0.0789
     14 C14         5.5667    1.5110   -1.8293 C.2       1 <1>        -0.0067
     15 C15         3.6579    1.3586   -0.6299 C.2       1 <1>         0.0585
     16 C16         3.4069    2.3345   -1.7302 C.2       1 <1>         0.1537
     17 C17         2.7249    1.0394    0.2701 C.2       1 <1>        -0.0398
     18 C18         5.6589   -0.0868    0.0952 C.2       1 <1>         0.1785
     19 C19         6.9177    1.2292   -2.4009 C.3       1 <1>         0.0099
     20 C20         4.8407   -2.2473    2.2235 C.3       1 <1>        -0.0335
     21 C21         5.4649   -2.3187    0.8462 C.3       1 <1>         0.0270
     22 N1          4.6424    2.3823   -2.4295 N.am      1 <1>        -0.2680
     23 O1          2.3667    2.9477   -1.8943 O.2       1 <1>        -0.4333
     24 O2          6.6741    0.1342    0.7446 O.2       1 <1>        -0.4519
     25 O3          4.9531   -1.2478    0.0463 O.3       1 <1>        -0.3500
     26 Cl1         5.4137    5.9850   -7.0913 Cl        1 <1>        -0.1347
     27 H1         -2.1920    3.0421    0.3637 H         1 <1>         0.1194
     28 H2         -0.3551    4.2076    1.5569 H         1 <1>         0.1159
     29 H3         -1.7314    0.9409   -0.8725 H         1 <1>         0.1149
     30 H4          1.9328    3.2843    1.5181 H         1 <1>         0.1332
     31 H5          0.5505    0.0038   -0.9216 H         1 <1>         0.1267
     32 H6          6.4161    4.3837   -2.6226 H         1 <1>         0.1450
     33 H7          3.2834    2.3145   -4.7396 H         1 <1>         0.1461
     34 H8          6.7359    5.8756   -4.5507 H         1 <1>         0.1439
     35 H9          3.6013    3.8047   -6.6696 H         1 <1>         0.1442
     36 H10         3.0018    0.3376    1.0567 H         1 <1>         0.1832
     37 H11         6.8435    0.4534   -3.1635 H         1 <1>         0.1059
     38 H12         7.5923    0.8933   -1.6124 H         1 <1>         0.0822
     39 H13         7.3271    2.1350   -2.8498 H         1 <1>         0.0808
     40 H14         5.0825   -1.2999    2.7128 H         1 <1>         0.0484
     41 H15         3.7519   -2.3443    2.1593 H         1 <1>         0.0486
     42 H16         5.1971   -3.0705    2.8517 H         1 <1>         0.0584
     43 H17         5.2192   -3.2686    0.3622 H         1 <1>         0.1011
     44 H18         6.5526   -2.2208    0.9120 H         1 <1>         0.1011
@<TRIPOS>BOND
     1    1    2 ar
     2    1    3 ar
     3    2    4 ar
     4    3    5 ar
     5    4   10 ar
     6    5   10 ar
     7    6    8 ar
     8    6   11 ar
     9    7    9 ar
    10    7   11 ar
    11    8   12 ar
    12    9   12 ar
    13   10   17 1
    14   11   22 1
    15   12   26 1
    16   13   14 2
    17   13   15 1
    18   13   18 1
    19   14   19 1
    20   14   22 1
    21   15   16 1
    22   15   17 2
    23   16   22 am
    24   16   23 2
    25   18   24 2
    26   18   25 1
    27   20   21 1
    28   21   25 1
    29    1   27 1
    30    2   28 1
    31    3   29 1
    32    4   30 1
    33    5   31 1
    34    6   32 1
    35    7   33 1
    36    8   34 1
    37    9   35 1
    38   17   36 1
    39   19   37 1
    40   19   38 1
    41   19   39 1
    42   20   40 1
    43   20   41 1
    44   20   42 1
    45   21   43 1
    46   21   44 1
@<TRIPOS>Similarity
1.4427
@<TRIPOS>ShapeSim
0.8445
@<TRIPOS>PharmSim
0.5982
# END
# Name:		AO-476/43421054
# Created and modified by SHAFTS on Thu Dec 15 20:34:29 2011

# 

@<TRIPOS>MOLECULE
AO-476/43421054
   45    48     0
SMALL
USER_CHARGE


@<TRIPOS>ATOM
      1 C1          5.4463   -3.6204    1.4829 C.ar      1 <1>        -0.0857
      2 C2          5.1493   -2.0963    3.3339 C.ar      1 <1>        -0.0886
      3 C3          5.1487   -2.5923    0.5885 C.ar      1 <1>        -0.0503
      4 C4          4.8516   -1.0681    2.4395 C.ar      1 <1>        -0.0544
      5 C5          4.6518    1.1774   -1.4065 C.ar      1 <1>         0.0155
      6 C6          5.4466   -3.3724    2.8556 C.ar      1 <1>        -0.1090
      7 C7          3.3809    1.2474   -0.7286 C.ar      1 <1>         0.0849
      8 C8          4.8514   -1.3161    1.0668 C.ar      1 <1>        -0.0020
      9 C9          5.0609    1.9683   -2.4695 C.ar      1 <1>        -0.0044
     10 C10         5.3764    0.1884   -0.8074 C.2       1 <1>        -0.0130
     11 C11         2.4189    2.1841   -1.1333 C.ar      1 <1>         0.0941
     12 C12         0.8192    3.6024    0.0851 C.3       1 <1>         0.0046
     13 C13         0.5230    1.1410    0.0801 C.3       1 <1>         0.0053
     14 C14        -0.6948    3.7183    0.2213 C.3       1 <1>         0.0213
     15 C15        -0.9753    1.3883    0.2171 C.3       1 <1>         0.0225
     16 C16         5.7648   -4.4717    3.8119 C.3       1 <1>        -0.0400
     17 C17         6.3509    1.9439   -3.2030 C.3       1 <1>        -0.0004
     18 C18         6.7313   -0.3482   -1.0505 C.3       1 <1>         0.0042
     19 N1          3.3531    0.3234    0.2472 N.2       1 <1>        -0.2943
     20 N2          4.1081    2.8656   -2.8383 N.ar      1 <1>        -0.2969
     21 N3          2.8071    2.9693   -2.1777 N.ar      1 <1>        -0.2595
     22 N4          4.5531   -0.2868    0.1723 N.pl3     1 <1>        -0.2787
     23 N5          1.1651    2.3121   -0.5267 N.pl3     1 <1>        -0.3589
     24 O1         -1.2190    2.5980    0.9340 O.3       1 <1>        -0.4566
     25 H1          5.6769   -4.6118    1.1021 H         1 <1>         0.1322
     26 H2          5.1469   -1.8940    4.4017 H         1 <1>         0.1328
     27 H3          5.1511   -2.7992   -0.4790 H         1 <1>         0.1423
     28 H4          4.6215   -0.0784    2.8264 H         1 <1>         0.1379
     29 H5          1.1962    4.4338   -0.5220 H         1 <1>         0.1054
     30 H6          1.2823    3.6633    1.0783 H         1 <1>         0.1291
     31 H7          0.9574    0.9669    1.0729 H         1 <1>         0.1310
     32 H8          0.6906    0.2457   -0.5302 H         1 <1>         0.1067
     33 H9         -0.9503    4.6234    0.7814 H         1 <1>         0.1326
     34 H10        -1.1812    3.7874   -0.7593 H         1 <1>         0.0939
     35 H11        -1.4615    1.4430   -0.7646 H         1 <1>         0.1340
     36 H12        -1.4406    0.5673    0.7718 H         1 <1>         0.0947
     37 H13         6.8429   -4.5040    4.0116 H         1 <1>         0.0607
     38 H14         5.2383   -4.3353    4.7654 H         1 <1>         0.0567
     39 H15         5.4551   -5.4473    3.4150 H         1 <1>         0.0568
     40 H16         6.3008    1.2514   -4.0555 H         1 <1>         0.0780
     41 H17         6.6182    2.9399   -3.5870 H         1 <1>         0.0797
     42 H18         7.1810    1.6274   -2.5536 H         1 <1>         0.0741
     43 H19         7.4842    0.1933   -0.4557 H         1 <1>         0.0889
     44 H20         6.8039   -1.4178   -0.7914 H         1 <1>         0.0921
     45 H21         7.0214   -0.2703   -2.1118 H         1 <1>         0.0807
@<TRIPOS>BOND
     1    1    3 ar
     2    1    6 ar
     3    2    4 ar
     4    2    6 ar
     5    3    8 ar
     6    4    8 ar
     7    5    7 ar
     8    5    9 ar
     9    5   10 2
    10    6   16 1
    11    7   11 ar
    12    7   19 2
    13    8   22 1
    14    9   17 1
    15    9   20 ar
    16   10   18 1
    17   10   22 1
    18   11   21 ar
    19   11   23 1
    20   12   14 1
    21   12   23 1
    22   13   15 1
    23   13   23 1
    24   14   24 1
    25   15   24 1
    26   19   22 1
    27   20   21 ar
    28    1   25 1
    29    2   26 1
    30    3   27 1
    31    4   28 1
    32   12   29 1
    33   12   30 1
    34   13   31 1
    35   13   32 1
    36   14   33 1
    37   14   34 1
    38   15   35 1
    39   15   36 1
    40   16   37 1
    41   16   38 1
    42   16   39 1
    43   17   40 1
    44   17   41 1
    45   17   42 1
    46   18   43 1
    47   18   44 1
    48   18   45 1
@<TRIPOS>Similarity
1.4415
@<TRIPOS>ShapeSim
0.7733
@<TRIPOS>PharmSim
0.6682
# END
# Name:		AE-848/34408042
# Created and modified by SHAFTS on Thu Dec 15 20:34:29 2011

# 

@<TRIPOS>MOLECULE
AE-848/34408042
   44    46     0
SMALL
USER_CHARGE


@<TRIPOS>ATOM
      1 C1          6.2518    1.2877   -2.4635 C.1       1 <1>         0.0754
      2 C2         -1.3054    2.1813    1.0798 C.ar      1 <1>        -0.1033
      3 C3         -0.4273    3.2648    1.0638 C.ar      1 <1>        -0.0992
      4 C4         -0.9370    0.9759    0.4824 C.ar      1 <1>        -0.0970
      5 C5          0.8195    3.1431    0.4502 C.ar      1 <1>        -0.0791
      6 C6          0.3097    0.8541   -0.1312 C.ar      1 <1>        -0.0750
      7 C7          3.7291    3.2898   -4.6894 C.ar      1 <1>        -0.0749
      8 C8          5.5930    4.1310   -3.4028 C.ar      1 <1>        -0.0857
      9 C9          4.0973    4.1076   -5.7576 C.ar      1 <1>        -0.0518
     10 C10         5.9613    4.9488   -4.4710 C.ar      1 <1>        -0.0647
     11 C11         2.8352    2.6289   -1.8427 C.ar      1 <1>        -0.0195
     12 C12         4.9477    1.4803   -1.8947 C.ar      1 <1>         0.1146
     13 C13         4.4769    3.3015   -3.5119 C.ar      1 <1>        -0.0575
     14 C14         1.1880    1.9377   -0.1473 C.ar      1 <1>        -0.0322
     15 C15         4.0952    2.4535   -2.4041 C.ar      1 <1>        -0.0111
     16 C16         5.2135    4.9371   -5.6484 C.ar      1 <1>        -0.0108
     17 C17         2.4784    1.8120   -0.7820 C.ar      1 <1>        -0.0038
     18 C18         4.4964    0.7149   -0.8315 C.ar      1 <1>         0.0571
     19 C19         4.4766   -3.4855    2.0434 C.2       1 <1>        -0.1274
     20 C20         4.9816   -2.2486    1.9706 C.2       1 <1>        -0.1223
     21 C21         4.7645    5.6723   -7.8652 C.3       1 <1>         0.0250
     22 C22         4.3617   -1.1408    1.1812 C.3       1 <1>         0.0140
     23 N1          7.3059    1.1322   -2.9232 N.1       1 <1>        -0.3611
     24 N2          3.2794    0.8561   -0.2601 N.ar      1 <1>        -0.3616
     25 O1          5.5729    5.7345   -6.6911 O.3       1 <1>        -0.4157
     26 S1          5.5062   -0.5669   -0.0904 S.3       1 <1>        -0.1169
     27 H1         -2.2755    2.2758    1.5591 H         1 <1>         0.1212
     28 H2         -0.7133    4.2028    1.5304 H         1 <1>         0.1199
     29 H3         -1.6197    0.1314    0.4957 H         1 <1>         0.1189
     30 H4          1.4931    3.9968    0.4463 H         1 <1>         0.1299
     31 H5          0.5835   -0.0919   -0.5924 H         1 <1>         0.1378
     32 H6          2.8566    2.6487   -4.7897 H         1 <1>         0.1440
     33 H7          6.1862    4.1514   -2.4917 H         1 <1>         0.1320
     34 H8          3.5111    4.0940   -6.6724 H         1 <1>         0.1340
     35 H9          6.8318    5.5928   -4.3804 H         1 <1>         0.1164
     36 H10         2.1503    3.3823   -2.2219 H         1 <1>         0.1497
     37 H11         4.9578   -4.2616    2.6281 H         1 <1>         0.0914
     38 H12         3.5659   -3.7389    1.5119 H         1 <1>         0.0871
     39 H13         5.9092   -2.0377    2.4974 H         1 <1>         0.0991
     40 H14         5.1615    6.3571   -8.6185 H         1 <1>         0.1233
     41 H15         3.7360    5.9450   -7.6153 H         1 <1>         0.0903
     42 H16         4.7840    4.6525   -8.2566 H         1 <1>         0.0901
     43 H17         4.0901   -0.2902    1.8148 H         1 <1>         0.0979
     44 H18         3.4489   -1.5020    0.6974 H         1 <1>         0.1017
@<TRIPOS>BOND
     1    1   12 1
     2    1   23 3
     3    2    3 ar
     4    2    4 ar
     5    3    5 ar
     6    4    6 ar
     7    5   14 ar
     8    6   14 ar
     9    7    9 ar
    10    7   13 ar
    11    8   10 ar
    12    8   13 ar
    13    9   16 ar
    14   10   16 ar
    15   11   15 ar
    16   11   17 ar
    17   12   15 ar
    18   12   18 ar
    19   13   15 1
    20   14   17 1
    21   16   25 1
    22   17   24 ar
    23   18   24 ar
    24   18   26 1
    25   19   20 2
    26   20   22 1
    27   21   25 1
    28   22   26 1
    29    2   27 1
    30    3   28 1
    31    4   29 1
    32    5   30 1
    33    6   31 1
    34    7   32 1
    35    8   33 1
    36    9   34 1
    37   10   35 1
    38   11   36 1
    39   19   37 1
    40   19   38 1
    41   20   39 1
    42   21   40 1
    43   21   41 1
    44   21   42 1
    45   22   43 1
    46   22   44 1
@<TRIPOS>Similarity
1.4413
@<TRIPOS>ShapeSim
0.9029
@<TRIPOS>PharmSim
0.5384
# END
# Name:		AK-968/12096338
# Created and modified by SHAFTS on Thu Dec 15 20:34:29 2011

# 

@<TRIPOS>MOLECULE
AK-968/12096338
   58    61     0
SMALL
USER_CHARGE


@<TRIPOS>ATOM
      1 C1          4.3614   -3.3435    1.5853 C.ar      1 <1>        -0.0964
      2 C2          4.7951   -2.5589    0.5168 C.ar      1 <1>        -0.0863
      3 C3          0.2130    2.7903    1.2416 C.ar      1 <1>        -0.0887
      4 C4         -0.7343    1.3164   -0.4221 C.ar      1 <1>        -0.0955
      5 C5          4.5843    3.6865   -5.8507 C.ar      1 <1>        -0.0864
      6 C6          5.4778    5.2883   -4.2782 C.ar      1 <1>        -0.0868
      7 C7          1.2553    3.1046    0.3696 C.ar      1 <1>        -0.0615
      8 C8          0.3080    1.6308   -1.2941 C.ar      1 <1>        -0.0711
      9 C9          4.4007    2.7714   -4.8143 C.ar      1 <1>        -0.0576
     10 C10         5.2942    4.3732   -3.2417 C.ar      1 <1>        -0.0581
     11 C11         4.5298   -2.8932    2.8947 C.ar      1 <1>        -0.0677
     12 C12         5.5656   -0.8736    2.0669 C.ar      1 <1>        -0.0437
     13 C13         5.3972   -1.3239    0.7575 C.ar      1 <1>        -0.0575
     14 C14        -0.7818    1.8961    0.8458 C.ar      1 <1>        -0.1109
     15 C15         5.1229    4.9451   -5.5828 C.ar      1 <1>        -0.1080
     16 C16         1.3029    2.5249   -0.8981 C.ar      1 <1>        -0.0299
     17 C17         4.7556    3.1147   -3.5098 C.ar      1 <1>        -0.0103
     18 C18         5.1319   -1.6582    3.1356 C.ar      1 <1>        -0.0088
     19 C19         5.0971    0.4268   -0.9439 C.2       1 <1>         0.0997
     20 C20         5.5686    1.2596   -2.0814 C.2       1 <1>         0.1672
     21 C21         3.3955    2.0895   -1.7024 C.2       1 <1>         0.1131
     22 C22         5.8493   -0.5056   -0.3564 C.2       1 <1>        -0.0235
     23 C23        -1.5715    0.3559    2.6598 C.3       1 <1>        -0.0635
     24 C24         6.6942    5.7954   -7.3420 C.3       1 <1>        -0.0628
     25 C25         4.8299   -2.0709    5.4581 C.3       1 <1>         0.0242
     26 C26        -1.8959    1.5591    1.7781 C.3       1 <1>        -0.0488
     27 C27         5.3193    5.9234   -6.6911 C.3       1 <1>        -0.0471
     28 N1          2.3530    2.8431   -1.7775 N.2       1 <1>        -0.3330
     29 N2          4.5662    2.1718   -2.4411 N.am      1 <1>        -0.2249
     30 O1          6.6596    1.0738   -2.6059 O.2       1 <1>        -0.4355
     31 O2          5.2962   -1.2186    4.4132 O.3       1 <1>        -0.4167
     32 S1          3.4850    0.8142   -0.5143 S.3       1 <1>        -0.0283
     33 H1          3.8924   -4.3049    1.3978 H         1 <1>         0.1302
     34 H2          4.6572   -2.9235   -0.4985 H         1 <1>         0.1279
     35 H3          0.1838    3.2463    2.2277 H         1 <1>         0.1266
     36 H4         -1.5044    0.6179   -0.7383 H         1 <1>         0.1242
     37 H5          4.3071    3.4098   -6.8646 H         1 <1>         0.1270
     38 H6          5.8988    6.2665   -4.0605 H         1 <1>         0.1270
     39 H7          2.0267    3.8018    0.6870 H         1 <1>         0.1372
     40 H8          0.3368    1.1743   -2.2799 H         1 <1>         0.1236
     41 H9          3.9798    1.7936   -5.0346 H         1 <1>         0.1343
     42 H10         5.5752    4.6508   -2.2288 H         1 <1>         0.1336
     43 H11         4.1901   -3.5090    3.7231 H         1 <1>         0.1181
     44 H12         6.0344    0.0883    2.2646 H         1 <1>         0.1427
     45 H13         6.8610   -0.6564   -0.6956 H         1 <1>         0.1947
     46 H14        -1.3297   -0.5226    2.0520 H         1 <1>         0.0362
     47 H15        -2.4234    0.1024    3.2983 H         1 <1>         0.0341
     48 H16        -0.7125    0.5635    3.3069 H         1 <1>         0.0337
     49 H17         7.4922    5.9214   -6.6023 H         1 <1>         0.0343
     50 H18         6.8279    6.5558   -8.1177 H         1 <1>         0.0368
     51 H19         6.8187    4.8113   -7.8064 H         1 <1>         0.0345
     52 H20         5.0223   -1.6011    6.4257 H         1 <1>         0.0896
     53 H21         5.3432   -3.0341    5.4003 H         1 <1>         0.1229
     54 H22         3.7550   -2.2252    5.3379 H         1 <1>         0.0897
     55 H23        -2.1336    2.4222    2.4206 H         1 <1>         0.0607
     56 H24        -2.8199    1.3531    1.2140 H         1 <1>         0.0610
     57 H25         4.5427    5.7918   -7.4617 H         1 <1>         0.0622
     58 H26         5.1906    6.9535   -6.3214 H         1 <1>         0.0621
@<TRIPOS>BOND
     1    1    2 ar
     2    1   11 ar
     3    2   13 ar
     4    3    7 ar
     5    3   14 ar
     6    4    8 ar
     7    4   14 ar
     8    5    9 ar
     9    5   15 ar
    10    6   10 ar
    11    6   15 ar
    12    7   16 ar
    13    8   16 ar
    14    9   17 ar
    15   10   17 ar
    16   11   18 ar
    17   12   13 ar
    18   12   18 ar
    19   13   22 1
    20   14   26 1
    21   15   27 1
    22   16   28 1
    23   17   29 1
    24   18   31 1
    25   19   20 1
    26   19   22 2
    27   19   32 1
    28   20   29 am
    29   20   30 2
    30   21   28 2
    31   21   29 1
    32   21   32 1
    33   23   26 1
    34   24   27 1
    35   25   31 1
    36    1   33 1
    37    2   34 1
    38    3   35 1
    39    4   36 1
    40    5   37 1
    41    6   38 1
    42    7   39 1
    43    8   40 1
    44    9   41 1
    45   10   42 1
    46   11   43 1
    47   12   44 1
    48   22   45 1
    49   23   46 1
    50   23   47 1
    51   23   48 1
    52   24   49 1
    53   24   50 1
    54   24   51 1
    55   25   52 1
    56   25   53 1
    57   25   54 1
    58   26   55 1
    59   26   56 1
    60   27   57 1
    61   27   58 1
@<TRIPOS>Similarity
1.4409
@<TRIPOS>ShapeSim
0.8602
@<TRIPOS>PharmSim
0.5806
# END
# Name:		AB-131/40897260
# Created and modified by SHAFTS on Thu Dec 15 20:34:29 2011

# 

@<TRIPOS>MOLECULE
AB-131/40897260
   49    53     0
SMALL
USER_CHARGE


@<TRIPOS>ATOM
      1 C1          8.5182    0.2950   -2.7822 C.ar      1 <1>        -0.1073
      2 C2          4.0727   -1.8003    2.0278 C.ar      1 <1>        -0.1073
      3 C3          5.0521    5.1797   -5.8058 C.ar      1 <1>        -0.1030
      4 C4         -1.1560    2.2564    0.9108 C.ar      1 <1>        -0.1030
      5 C5          7.5766   -0.5860   -2.2504 C.ar      1 <1>        -0.1023
      6 C6          8.1730    1.6257   -3.0183 C.ar      1 <1>        -0.1025
      7 C7          4.4712   -0.4960    2.3201 C.ar      1 <1>        -0.1025
      8 C8          3.5528   -2.1055    0.7699 C.ar      1 <1>        -0.1023
      9 C9          4.4173    3.9613   -6.0464 C.ar      1 <1>        -0.0987
     10 C10         5.3371    5.5713   -4.4976 C.ar      1 <1>        -0.0964
     11 C11        -0.7726    1.0694    0.2866 C.ar      1 <1>        -0.0987
     12 C12        -0.3055    3.3617    0.8897 C.ar      1 <1>        -0.0964
     13 C13         6.2898   -0.1363   -1.9549 C.ar      1 <1>        -0.0875
     14 C14         6.8861    2.0754   -2.7228 C.ar      1 <1>        -0.0876
     15 C15         4.3498    0.5033    1.3545 C.ar      1 <1>        -0.0876
     16 C16         3.4314   -1.1062   -0.1957 C.ar      1 <1>        -0.0875
     17 C17         4.0672    3.1344   -4.9790 C.ar      1 <1>        -0.0789
     18 C18         4.9871    4.7445   -3.4302 C.ar      1 <1>        -0.0763
     19 C19         0.4613    0.9878   -0.3587 C.ar      1 <1>        -0.0789
     20 C20         0.9284    3.2801    0.2445 C.ar      1 <1>        -0.0763
     21 C21         5.9444    1.1943   -2.1911 C.ar      1 <1>        -0.0724
     22 C22         3.8298    0.1982    0.0966 C.ar      1 <1>        -0.0724
     23 C23         4.3522    3.5260   -3.6709 C.ar      1 <1>        -0.0340
     24 C24         1.3118    2.0931   -0.3798 C.ar      1 <1>        -0.0340
     25 C25         4.6195    1.6575   -1.8871 C.2       1 <1>        -0.0314
     26 C26         3.7046    1.2262   -0.8971 C.2       1 <1>        -0.0314
     27 C27         3.9921    2.6730   -2.5705 C.2       1 <1>         0.0441
     28 C28         2.5834    2.0092   -1.0459 C.2       1 <1>         0.0441
     29 O1          2.7506    2.8937   -2.0639 O.3       1 <1>        -0.3474
     30 H1          9.5207   -0.0546   -3.0113 H         1 <1>         0.1141
     31 H2          4.1682   -2.5788    2.7791 H         1 <1>         0.1141
     32 H3          5.3252    5.8233   -6.6369 H         1 <1>         0.1204
     33 H4         -2.1171    2.3200    1.4128 H         1 <1>         0.1204
     34 H5          7.8456   -1.6217   -2.0654 H         1 <1>         0.1158
     35 H6          8.9067    2.3118   -3.4312 H         1 <1>         0.1156
     36 H7          4.8773   -0.2585    3.2990 H         1 <1>         0.1156
     37 H8          3.2437   -3.1214    0.5422 H         1 <1>         0.1158
     38 H9          4.1953    3.6568   -7.0650 H         1 <1>         0.1200
     39 H10         5.8325    6.5195   -4.3103 H         1 <1>         0.1212
     40 H11        -1.4349    0.2087    0.3033 H         1 <1>         0.1199
     41 H12        -0.6045    4.2864    1.3749 H         1 <1>         0.1212
     42 H13         5.5668   -0.8355   -1.5408 H         1 <1>         0.1210
     43 H14         6.6327    3.1158   -2.9127 H         1 <1>         0.1214
     44 H15         4.6649    1.5154    1.5977 H         1 <1>         0.1214
     45 H16         3.0240   -1.3603   -1.1715 H         1 <1>         0.1210
     46 H17         3.5752    2.1865   -5.1832 H         1 <1>         0.1279
     47 H18         5.2151    5.0644   -2.4162 H         1 <1>         0.1308
     48 H19         0.7445    0.0563   -0.8430 H         1 <1>         0.1280
     49 H20         1.5805    4.1503    0.2377 H         1 <1>         0.1308
@<TRIPOS>BOND
     1    1    5 ar
     2    1    6 ar
     3    2    7 ar
     4    2    8 ar
     5    3    9 ar
     6    3   10 ar
     7    4   11 ar
     8    4   12 ar
     9    5   13 ar
    10    6   14 ar
    11    7   15 ar
    12    8   16 ar
    13    9   17 ar
    14   10   18 ar
    15   11   19 ar
    16   12   20 ar
    17   13   21 ar
    18   14   21 ar
    19   15   22 ar
    20   16   22 ar
    21   17   23 ar
    22   18   23 ar
    23   19   24 ar
    24   20   24 ar
    25   21   25 1
    26   22   26 1
    27   23   27 1
    28   24   28 1
    29   25   26 1
    30   25   27 2
    31   26   28 2
    32   27   29 1
    33   28   29 1
    34    1   30 1
    35    2   31 1
    36    3   32 1
    37    4   33 1
    38    5   34 1
    39    6   35 1
    40    7   36 1
    41    8   37 1
    42    9   38 1
    43   10   39 1
    44   11   40 1
    45   12   41 1
    46   13   42 1
    47   14   43 1
    48   15   44 1
    49   16   45 1
    50   17   46 1
    51   18   47 1
    52   19   48 1
    53   20   49 1
@<TRIPOS>Similarity
1.4407
@<TRIPOS>ShapeSim
0.8294
@<TRIPOS>PharmSim
0.6113
# END
# Name:		AN-329/14226019
# Created and modified by SHAFTS on Thu Dec 15 20:34:29 2011

# 

@<TRIPOS>MOLECULE
AN-329/14226019
   43    45     0
SMALL
USER_CHARGE


@<TRIPOS>ATOM
      1 C1          6.2290    1.2298   -2.3897 C.1       1 <1>         0.0759
      2 C2          5.2259    4.8785   -5.5946 C.ar      1 <1>        -0.1020
      3 C3         -1.3419    2.1710    1.1118 C.ar      1 <1>        -0.1031
      4 C4          5.4944    5.2780   -4.2855 C.ar      1 <1>        -0.0988
      5 C5          4.5797    3.6660   -5.8352 C.ar      1 <1>        -0.0989
      6 C6         -0.7283    3.2825    0.5341 C.ar      1 <1>        -0.0991
      7 C7         -0.7061    0.9298    1.0831 C.ar      1 <1>        -0.0968
      8 C8          5.1169    4.4648   -3.2168 C.ar      1 <1>        -0.0866
      9 C9          4.2023    2.8528   -4.7665 C.ar      1 <1>        -0.0879
     10 C10         0.5211    3.1527   -0.0726 C.ar      1 <1>        -0.0792
     11 C11         0.5432    0.7999    0.4765 C.ar      1 <1>        -0.0749
     12 C12         2.8160    2.5894   -1.7905 C.ar      1 <1>        -0.0190
     13 C13         4.9230    1.4305   -1.8282 C.ar      1 <1>         0.1152
     14 C14         4.4709    3.2522   -3.4574 C.ar      1 <1>        -0.0600
     15 C15         1.1568    1.9114   -0.1014 C.ar      1 <1>        -0.0321
     16 C16         4.0779    2.4063   -2.3448 C.ar      1 <1>        -0.0086
     17 C17         2.4498    1.7775   -0.7292 C.ar      1 <1>        -0.0035
     18 C18         4.4627    0.6705   -0.7650 C.ar      1 <1>         0.0583
     19 C19         4.7580   -3.5768    1.7011 C.2       1 <1>        -0.1274
     20 C20         4.9108   -2.2920    2.0588 C.2       1 <1>        -0.1337
     21 C21         5.6461   -1.9138    3.3142 C.3       1 <1>        -0.0527
     22 C22         4.3019   -1.1760    1.2542 C.3       1 <1>         0.0157
     23 N1          7.2847    1.0676   -2.8435 N.1       1 <1>        -0.3599
     24 N2          3.2434    0.8194   -0.2002 N.ar      1 <1>        -0.3611
     25 S1          5.4481   -0.5956   -0.0256 S.3       1 <1>        -0.1133
     26 H1          5.5184    5.5126   -6.4264 H         1 <1>         0.1223
     27 H2         -2.3139    2.2728    1.5857 H         1 <1>         0.1216
     28 H3          5.9960    6.2228   -4.0978 H         1 <1>         0.1219
     29 H4          4.3691    3.3549   -6.8541 H         1 <1>         0.1213
     30 H5         -1.2224    4.2493    0.5578 H         1 <1>         0.1200
     31 H6         -1.1827    0.0643    1.5340 H         1 <1>         0.1191
     32 H7          5.3332    4.7903   -2.2019 H         1 <1>         0.1291
     33 H8          3.6987    1.9105   -4.9695 H         1 <1>         0.1230
     34 H9          0.9865    4.0286   -0.5185 H         1 <1>         0.1296
     35 H10         1.0269   -0.1738    0.4622 H         1 <1>         0.1379
     36 H11         2.1366    3.3451   -2.1753 H         1 <1>         0.1499
     37 H12         4.2103   -3.8522    0.8058 H         1 <1>         0.0911
     38 H13         5.1792   -4.3824    2.2931 H         1 <1>         0.0875
     39 H14         6.7116   -1.7761    3.1022 H         1 <1>         0.0527
     40 H15         5.5412   -2.6921    4.0762 H         1 <1>         0.0514
     41 H16         5.2717   -0.9785    3.7442 H         1 <1>         0.0496
     42 H17         3.3800   -1.4992    0.7584 H         1 <1>         0.1019
     43 H18         4.0348   -0.3383    1.9070 H         1 <1>         0.1036
@<TRIPOS>BOND
     1    1   13 1
     2    1   23 3
     3    2    4 ar
     4    2    5 ar
     5    3    6 ar
     6    3    7 ar
     7    4    8 ar
     8    5    9 ar
     9    6   10 ar
    10    7   11 ar
    11    8   14 ar
    12    9   14 ar
    13   10   15 ar
    14   11   15 ar
    15   12   16 ar
    16   12   17 ar
    17   13   16 ar
    18   13   18 ar
    19   14   16 1
    20   15   17 1
    21   17   24 ar
    22   18   24 ar
    23   18   25 1
    24   19   20 2
    25   20   21 1
    26   20   22 1
    27   22   25 1
    28    2   26 1
    29    3   27 1
    30    4   28 1
    31    5   29 1
    32    6   30 1
    33    7   31 1
    34    8   32 1
    35    9   33 1
    36   10   34 1
    37   11   35 1
    38   12   36 1
    39   19   37 1
    40   19   38 1
    41   21   39 1
    42   21   40 1
    43   21   41 1
    44   22   42 1
    45   22   43 1
@<TRIPOS>Similarity
1.4402
@<TRIPOS>ShapeSim
0.8772
@<TRIPOS>PharmSim
0.5631
# END
# Name:		AG-690/11191338
# Created and modified by SHAFTS on Thu Dec 15 20:34:29 2011

# 

@<TRIPOS>MOLECULE
AG-690/11191338
   45    48     0
SMALL
USER_CHARGE


@<TRIPOS>ATOM
      1 C1         -1.4779    2.3230    1.0380 C.ar      1 <1>        -0.1012
      2 C2          5.3804    4.7867   -5.7679 C.ar      1 <1>        -0.1045
      3 C3         -1.0683    1.1455    0.4126 C.ar      1 <1>        -0.0953
      4 C4         -0.6719    3.4601    0.9804 C.ar      1 <1>        -0.0947
      5 C5          6.2360    4.3234   -4.7685 C.ar      1 <1>        -0.0970
      6 C6          4.0098    4.5429   -5.6809 C.ar      1 <1>        -0.0947
      7 C7          0.1472    1.1049   -0.2704 C.ar      1 <1>        -0.0696
      8 C8          0.5435    3.4195    0.2974 C.ar      1 <1>        -0.0693
      9 C9          6.4180   -2.9543    1.9185 C.ar      1 <1>        -0.0924
     10 C10         4.1919   -2.7185    2.8274 C.ar      1 <1>        -0.0910
     11 C11         5.7210    3.6162   -3.6821 C.ar      1 <1>        -0.0571
     12 C12         3.4947    3.8357   -4.5945 C.ar      1 <1>        -0.0556
     13 C13         6.1609   -1.9188    1.0202 C.ar      1 <1>        -0.0627
     14 C14         3.9348   -1.6829    1.9290 C.ar      1 <1>        -0.0596
     15 C15         0.9532    2.2420   -0.3281 C.ar      1 <1>        -0.0090
     16 C16         5.4334   -3.3542    2.8221 C.ar      1 <1>        -0.1122
     17 C17         4.3504    3.3723   -3.5951 C.ar      1 <1>        -0.0021
     18 C18         4.9194   -1.2830    1.0254 C.ar      1 <1>        -0.0263
     19 C19         2.2293    2.1993   -1.0452 C.2       1 <1>         0.0940
     20 C20         3.3855    1.3212   -0.7693 C.2       1 <1>         0.1806
     21 C21         4.4479    1.6690   -1.7437 C.2       1 <1>         0.1883
     22 C22         5.7072   -4.4616    3.7828 C.3       1 <1>        -0.0429
     23 N1          2.5288    2.9480   -2.0684 N.2       1 <1>        -0.2693
     24 N2          3.4677    0.3919    0.1108 N.2       1 <1>        -0.2621
     25 N3          3.8271    2.6534   -2.4906 N.am      1 <1>        -0.2180
     26 N4          4.6610   -0.2396    0.1226 N.pl3     1 <1>        -0.2770
     27 O1          5.5293    1.1290   -1.7507 O.2       1 <1>        -0.4575
     28 H1         -2.4242    2.3546    1.5698 H         1 <1>         0.1235
     29 H2          5.7810    5.3382   -6.6136 H         1 <1>         0.1153
     30 H3         -1.6958    0.2601    0.4577 H         1 <1>         0.1214
     31 H4         -0.9911    4.3771    1.4671 H         1 <1>         0.1216
     32 H5          7.3031    4.5137   -4.8354 H         1 <1>         0.1254
     33 H6          3.3436    4.9047   -6.4588 H         1 <1>         0.1259
     34 H7          0.4567    0.1820   -0.7542 H         1 <1>         0.1408
     35 H8          1.1635    4.3116    0.2591 H         1 <1>         0.1387
     36 H9          7.3876   -3.4447    1.9068 H         1 <1>         0.1311
     37 H10         3.4183   -3.0243    3.5265 H         1 <1>         0.1307
     38 H11         6.3974    3.2600   -2.9092 H         1 <1>         0.1419
     39 H12         2.4247    3.6517   -4.5373 H         1 <1>         0.1363
     40 H13         6.9345   -1.6160    0.3193 H         1 <1>         0.1300
     41 H14         2.9636   -1.1950    1.9414 H         1 <1>         0.1378
     42 H15         6.1293   -4.0640    4.7139 H         1 <1>         0.0578
     43 H16         4.7905   -5.0149    4.0249 H         1 <1>         0.0545
     44 H17         6.4148   -5.1880    3.3623 H         1 <1>         0.0548
     45 H18         5.3962    0.0302   -0.5216 H         1 <1>         0.3703
@<TRIPOS>BOND
     1    1    3 ar
     2    1    4 ar
     3    2    5 ar
     4    2    6 ar
     5    3    7 ar
     6    4    8 ar
     7    5   11 ar
     8    6   12 ar
     9    7   15 ar
    10    8   15 ar
    11    9   13 ar
    12    9   16 ar
    13   10   14 ar
    14   10   16 ar
    15   11   17 ar
    16   12   17 ar
    17   13   18 ar
    18   14   18 ar
    19   15   19 1
    20   16   22 1
    21   17   25 1
    22   18   26 1
    23   19   20 1
    24   19   23 2
    25   20   21 1
    26   20   24 2
    27   21   25 am
    28   21   27 2
    29   23   25 1
    30   24   26 1
    31    1   28 1
    32    2   29 1
    33    3   30 1
    34    4   31 1
    35    5   32 1
    36    6   33 1
    37    7   34 1
    38    8   35 1
    39    9   36 1
    40   10   37 1
    41   11   38 1
    42   12   39 1
    43   13   40 1
    44   14   41 1
    45   22   42 1
    46   22   43 1
    47   22   44 1
    48   26   45 1
@<TRIPOS>Similarity
1.4399
@<TRIPOS>ShapeSim
0.8416
@<TRIPOS>PharmSim
0.5983
# END
# Name:		AG-690/33056021
# Created and modified by SHAFTS on Thu Dec 15 20:34:29 2011

# 

@<TRIPOS>MOLECULE
AG-690/33056021
   42    45     0
SMALL
USER_CHARGE


@<TRIPOS>ATOM
      1 C1         -0.8769    1.8176    1.1674 C.ar      1 <1>        -0.1020
      2 C2          4.7865    4.9787   -5.4233 C.ar      1 <1>        -0.0982
      3 C3          0.1236    2.7155    1.5395 C.ar      1 <1>        -0.0922
      4 C4         -0.8674    1.2520   -0.1076 C.ar      1 <1>        -0.0994
      5 C5          4.8638    3.6131   -5.6965 C.ar      1 <1>        -0.0896
      6 C6          4.5667    5.4175   -4.1177 C.ar      1 <1>        -0.0901
      7 C7          5.3140   -2.7461    0.7013 C.ar      1 <1>        -0.0735
      8 C8          4.9223   -0.7711    2.0367 C.ar      1 <1>        -0.0758
      9 C9          1.1335    3.0478    0.6366 C.ar      1 <1>        -0.0634
     10 C10         0.1424    1.5844   -1.0106 C.ar      1 <1>        -0.0735
     11 C11         4.7213    2.6862   -4.6640 C.ar      1 <1>        -0.0595
     12 C12         4.4242    4.4906   -3.0851 C.ar      1 <1>        -0.0602
     13 C13         4.9201   -3.5484    1.7721 C.ar      1 <1>        -0.0398
     14 C14         4.5284   -1.5735    3.1076 C.ar      1 <1>        -0.0410
     15 C15         5.3152   -1.3574    0.8336 C.ar      1 <1>        -0.0597
     16 C16         1.1429    2.4823   -0.6385 C.ar      1 <1>        -0.0311
     17 C17         4.5015    3.1249   -3.3582 C.ar      1 <1>        -0.0113
     18 C18         4.5272   -2.9621    2.9753 C.ar      1 <1>         0.0688
     19 C19         4.9479    0.4126   -0.8345 C.2       1 <1>         0.0967
     20 C20         5.3750    1.2608   -1.9782 C.2       1 <1>         0.1664
     21 C21         3.2102    2.0708   -1.5173 C.2       1 <1>         0.1115
     22 C22         5.7259   -0.5205   -0.2828 C.2       1 <1>        -0.0280
     23 N1          2.1605    2.8174   -1.5492 N.2       1 <1>        -0.3337
     24 N2          4.3547    2.1694   -2.2941 N.am      1 <1>        -0.2254
     25 O1          6.4490    1.0885   -2.5410 O.2       1 <1>        -0.4353
     26 F1          4.1473   -3.7323    4.0031 F         1 <1>        -0.2619
     27 S1          3.3485    0.7837   -0.3468 S.3       1 <1>        -0.0318
     28 H1         -1.6631    1.5589    1.8706 H         1 <1>         0.1193
     29 H2          4.8982    5.7008   -6.2270 H         1 <1>         0.1243
     30 H3          0.1163    3.1556    2.5325 H         1 <1>         0.1258
     31 H4         -1.6465    0.5528   -0.3971 H         1 <1>         0.1232
     32 H5          5.0357    3.2711   -6.7128 H         1 <1>         0.1262
     33 H6          4.5076    6.4810   -3.9052 H         1 <1>         0.1260
     34 H7          5.6173   -3.2176   -0.2305 H         1 <1>         0.1494
     35 H8          4.9178    0.3097    2.1555 H         1 <1>         0.1453
     36 H9          1.9087    3.7487    0.9348 H         1 <1>         0.1364
     37 H10         0.1412    1.1386   -2.0019 H         1 <1>         0.1224
     38 H11         4.7835    1.6243   -4.8887 H         1 <1>         0.1337
     39 H12         4.2533    4.8442   -2.0713 H         1 <1>         0.1324
     40 H13         4.9189   -4.6293    1.6694 H         1 <1>         0.1373
     41 H14         4.2220   -1.1172    4.0445 H         1 <1>         0.1377
     42 H15         6.7280   -0.6576   -0.6543 H         1 <1>         0.1934
@<TRIPOS>BOND
     1    1    3 ar
     2    1    4 ar
     3    2    5 ar
     4    2    6 ar
     5    3    9 ar
     6    4   10 ar
     7    5   11 ar
     8    6   12 ar
     9    7   13 ar
    10    7   15 ar
    11    8   14 ar
    12    8   15 ar
    13    9   16 ar
    14   10   16 ar
    15   11   17 ar
    16   12   17 ar
    17   13   18 ar
    18   14   18 ar
    19   15   22 1
    20   16   23 1
    21   17   24 1
    22   18   26 1
    23   19   20 1
    24   19   22 2
    25   19   27 1
    26   20   24 am
    27   20   25 2
    28   21   23 2
    29   21   24 1
    30   21   27 1
    31    1   28 1
    32    2   29 1
    33    3   30 1
    34    4   31 1
    35    5   32 1
    36    6   33 1
    37    7   34 1
    38    8   35 1
    39    9   36 1
    40   10   37 1
    41   11   38 1
    42   12   39 1
    43   13   40 1
    44   14   41 1
    45   22   42 1
@<TRIPOS>Similarity
1.4398
@<TRIPOS>ShapeSim
0.8552
@<TRIPOS>PharmSim
0.5846
# END
# Name:		AG-690/11191348
# Created and modified by SHAFTS on Thu Dec 15 20:34:29 2011

# 

@<TRIPOS>MOLECULE
AG-690/11191348
   42    45     0
SMALL
USER_CHARGE


@<TRIPOS>ATOM
      1 C1         -1.4713    2.3108    1.0485 C.ar      1 <1>        -0.1009
      2 C2          5.3581    4.7944   -5.7792 C.ar      1 <1>        -0.1042
      3 C3         -1.0606    1.1346    0.4214 C.ar      1 <1>        -0.0943
      4 C4         -0.6685    3.4500    0.9886 C.ar      1 <1>        -0.0951
      5 C5          6.2182    4.3331   -4.7828 C.ar      1 <1>        -0.0968
      6 C6          3.9884    4.5470   -5.6878 C.ar      1 <1>        -0.0945
      7 C7          4.1676   -2.6932    2.8153 C.ar      1 <1>        -0.0839
      8 C8          5.4008   -3.3445    2.8295 C.ar      1 <1>        -0.0881
      9 C9          0.1527    1.0974   -0.2656 C.ar      1 <1>        -0.0691
     10 C10         0.5448    3.4129    0.3016 C.ar      1 <1>        -0.0697
     11 C11         5.7086    3.6242   -3.6949 C.ar      1 <1>        -0.0570
     12 C12         3.4788    3.8381   -4.5999 C.ar      1 <1>        -0.0555
     13 C13         3.9348   -1.6601    1.9074 C.ar      1 <1>        -0.0489
     14 C14         6.4015   -2.9628    1.9359 C.ar      1 <1>        -0.0623
     15 C15         0.9555    2.2366   -0.3256 C.ar      1 <1>        -0.0085
     16 C16         4.3389    3.3767   -3.6035 C.ar      1 <1>        -0.0019
     17 C17         4.9354   -1.2783    1.0138 C.ar      1 <1>         0.0026
     18 C18         6.1688   -1.9296    1.0280 C.ar      1 <1>         0.0258
     19 C19         2.2294    2.1974   -1.0469 C.2       1 <1>         0.0964
     20 C20         3.3888    1.3223   -0.7751 C.2       1 <1>         0.1828
     21 C21         4.4471    1.6732   -1.7528 C.2       1 <1>         0.1918
     22 N1          2.5235    2.9472   -2.0709 N.2       1 <1>        -0.2672
     23 N2          3.4763    0.3930    0.1045 N.2       1 <1>        -0.2613
     24 N3          3.8212    2.6562   -2.4974 N.am      1 <1>        -0.2169
     25 N4          4.6713   -0.2353    0.1123 N.pl3     1 <1>        -0.2716
     26 O1          5.5299    1.1361   -1.7636 O.2       1 <1>        -0.4532
     27 Cl1         7.4353   -1.4886   -0.0608 Cl        1 <1>        -0.1293
     28 H1         -2.4159    2.3397    1.5835 H         1 <1>         0.1239
     29 H2          5.7544    5.3472   -6.6261 H         1 <1>         0.1157
     30 H3         -1.6856    0.2475    0.4684 H         1 <1>         0.1220
     31 H4         -0.9884    4.3661    1.4766 H         1 <1>         0.1218
     32 H5          7.2846    4.5263   -4.8532 H         1 <1>         0.1256
     33 H6          3.3187    4.9073   -6.4634 H         1 <1>         0.1261
     34 H7          3.3885   -2.9906    3.5112 H         1 <1>         0.1391
     35 H8          5.5819   -4.1490    3.5365 H         1 <1>         0.1320
     36 H9          0.4630    0.1755   -0.7507 H         1 <1>         0.1391
     37 H10         1.1623    4.3066    0.2615 H         1 <1>         0.1402
     38 H11         6.3885    3.2696   -2.9243 H         1 <1>         0.1421
     39 H12         2.4095    3.6513   -4.5392 H         1 <1>         0.1365
     40 H13         2.9694   -1.1603    1.9060 H         1 <1>         0.1476
     41 H14         7.3571   -3.4806    1.9602 H         1 <1>         0.1464
     42 H15         5.4037    0.0366   -0.5343 H         1 <1>         0.3724
@<TRIPOS>BOND
     1    1    3 ar
     2    1    4 ar
     3    2    5 ar
     4    2    6 ar
     5    3    9 ar
     6    4   10 ar
     7    5   11 ar
     8    6   12 ar
     9    7    8 ar
    10    7   13 ar
    11    8   14 ar
    12    9   15 ar
    13   10   15 ar
    14   11   16 ar
    15   12   16 ar
    16   13   17 ar
    17   14   18 ar
    18   15   19 1
    19   16   24 1
    20   17   18 ar
    21   17   25 1
    22   18   27 1
    23   19   20 1
    24   19   22 2
    25   20   21 1
    26   20   23 2
    27   21   24 am
    28   21   26 2
    29   22   24 1
    30   23   25 1
    31    1   28 1
    32    2   29 1
    33    3   30 1
    34    4   31 1
    35    5   32 1
    36    6   33 1
    37    7   34 1
    38    8   35 1
    39    9   36 1
    40   10   37 1
    41   11   38 1
    42   12   39 1
    43   13   40 1
    44   14   41 1
    45   25   42 1
@<TRIPOS>Similarity
1.4394
@<TRIPOS>ShapeSim
0.8401
@<TRIPOS>PharmSim
0.5993
# END
# Name:		AG-690/11191350
# Created and modified by SHAFTS on Thu Dec 15 20:34:29 2011

# 

@<TRIPOS>MOLECULE
AG-690/11191350
   42    45     0
SMALL
USER_CHARGE


@<TRIPOS>ATOM
      1 C1         -1.4782    2.3235    1.0376 C.ar      1 <1>        -0.1008
      2 C2          5.3814    4.7864   -5.7673 C.ar      1 <1>        -0.1042
      3 C3         -1.0686    1.1459    0.4122 C.ar      1 <1>        -0.0943
      4 C4         -0.6721    3.4605    0.9801 C.ar      1 <1>        -0.0951
      5 C5          6.2368    4.3230   -4.7679 C.ar      1 <1>        -0.0968
      6 C6          4.0107    4.5428   -5.6806 C.ar      1 <1>        -0.0945
      7 C7          0.1470    1.1052   -0.2706 C.ar      1 <1>        -0.0692
      8 C8          0.5434    3.4198    0.2972 C.ar      1 <1>        -0.0697
      9 C9          5.7215    3.6159   -3.6815 C.ar      1 <1>        -0.0571
     10 C10         3.4954    3.8356   -4.5942 C.ar      1 <1>        -0.0555
     11 C11         6.1606   -1.9185    1.0198 C.ar      1 <1>        -0.0484
     12 C12         3.9348   -1.6837    1.9298 C.ar      1 <1>        -0.0513
     13 C13         6.4186   -2.9540    1.9178 C.ar      1 <1>        -0.0600
     14 C14         4.1929   -2.7195    2.8279 C.ar      1 <1>        -0.0613
     15 C15         0.9531    2.2422   -0.3282 C.ar      1 <1>        -0.0087
     16 C16         4.3509    3.3722   -3.5947 C.ar      1 <1>        -0.0020
     17 C17         4.9187   -1.2832    1.0258 C.ar      1 <1>        -0.0194
     18 C18         5.4348   -3.3546    2.8219 C.ar      1 <1>        -0.0099
     19 C19         2.2293    2.1994   -1.0451 C.2       1 <1>         0.0959
     20 C20         3.3853    1.3211   -0.7691 C.2       1 <1>         0.1826
     21 C21         4.4480    1.6689   -1.7433 C.2       1 <1>         0.1907
     22 N1          2.5290    2.9480   -2.0683 N.2       1 <1>        -0.2678
     23 N2          3.4674    0.3919    0.1110 N.2       1 <1>        -0.2615
     24 N3          3.8273    2.6533   -2.4903 N.am      1 <1>        -0.2172
     25 N4          4.6605   -0.2398    0.1231 N.pl3     1 <1>        -0.2753
     26 O1          5.5293    1.1288   -1.7502 O.2       1 <1>        -0.4557
     27 Cl1         5.7536   -4.6323    3.9297 Cl        1 <1>        -0.1409
     28 H1         -2.4246    2.3552    1.5693 H         1 <1>         0.1241
     29 H2          5.7821    5.3378   -6.6130 H         1 <1>         0.1158
     30 H3         -1.6962    0.2606    0.4573 H         1 <1>         0.1220
     31 H4         -0.9912    4.3775    1.4667 H         1 <1>         0.1218
     32 H5          7.3039    4.5133   -4.8346 H         1 <1>         0.1258
     33 H6          3.3447    4.9047   -6.4586 H         1 <1>         0.1262
     34 H7          0.4564    0.1823   -0.7544 H         1 <1>         0.1390
     35 H8          1.1635    4.3118    0.2590 H         1 <1>         0.1403
     36 H9          6.3978    3.2596   -2.9085 H         1 <1>         0.1420
     37 H10         2.4254    3.6518   -4.5372 H         1 <1>         0.1365
     38 H11         6.9343   -1.6131    0.3202 H         1 <1>         0.1479
     39 H12         2.9642   -1.1945    1.9440 H         1 <1>         0.1408
     40 H13         7.3917   -3.4384    1.9028 H         1 <1>         0.1466
     41 H14         3.4169   -3.0194    3.5278 H         1 <1>         0.1471
     42 H15         5.3959    0.0300   -0.5211 H         1 <1>         0.3712
@<TRIPOS>BOND
     1    1    3 ar
     2    1    4 ar
     3    2    5 ar
     4    2    6 ar
     5    3    7 ar
     6    4    8 ar
     7    5    9 ar
     8    6   10 ar
     9    7   15 ar
    10    8   15 ar
    11    9   16 ar
    12   10   16 ar
    13   11   13 ar
    14   11   17 ar
    15   12   14 ar
    16   12   17 ar
    17   13   18 ar
    18   14   18 ar
    19   15   19 1
    20   16   24 1
    21   17   25 1
    22   18   27 1
    23   19   20 1
    24   19   22 2
    25   20   21 1
    26   20   23 2
    27   21   24 am
    28   21   26 2
    29   22   24 1
    30   23   25 1
    31    1   28 1
    32    2   29 1
    33    3   30 1
    34    4   31 1
    35    5   32 1
    36    6   33 1
    37    7   34 1
    38    8   35 1
    39    9   36 1
    40   10   37 1
    41   11   38 1
    42   12   39 1
    43   13   40 1
    44   14   41 1
    45   25   42 1
@<TRIPOS>Similarity
1.4390
@<TRIPOS>ShapeSim
0.8407
@<TRIPOS>PharmSim
0.5983
# END
