@<TRIPOS>MOLECULE
AO-081/40738502
 52 55 0 0 0
SMALL
USER_CHARGES

@<TRIPOS>ATOM
      1 C          -1.2666    2.0948    1.1440 C.ar    1  LIG1       -0.0996
      2 C          -0.5324    0.9189    0.9891 C.ar    1  LIG1       -0.0900
      3 C          -0.8064    3.2840    0.5787 C.ar    1  LIG1       -0.0907
      4 C           4.0718    3.0448   -4.8798 C.ar    1  LIG1       -0.0727
      5 C           4.9893    4.6534   -3.3281 C.ar    1  LIG1       -0.0728
      6 C           4.6025    3.7706   -5.9461 C.ar    1  LIG1       -0.0887
      7 C           5.5202    5.3792   -4.3945 C.ar    1  LIG1       -0.0905
      8 C           0.6619    0.9324    0.2687 C.ar    1  LIG1       -0.0515
      9 C           0.3880    3.2973   -0.1417 C.ar    1  LIG1       -0.0522
     10 C           5.7300   -0.0048   -0.8181 C.ar    1  LIG1       -0.0249
     11 C           4.3371    1.6920   -1.7538 C.ar    1  LIG1        0.0497
     12 C           4.2651    3.4862   -3.5708 C.ar    1  LIG1       -0.0259
     13 C           5.3267    4.9378   -5.7035 C.ar    1  LIG1       -0.1072
     14 C           5.5578    1.0057   -1.7641 C.ar    1  LIG1        0.0663
     15 C           1.1221    2.1215   -0.2967 C.ar    1  LIG1        0.0037
     16 C           3.7171    2.7356   -2.4693 C.ar    1  LIG1        0.0472
     17 C           4.6971   -0.2751    0.0733 C.ar    1  LIG1       -0.0257
     18 C           3.3916    1.3214   -0.8102 C.ar    1  LIG1        0.0645
     19 C           4.8962   -1.3618    1.0813 C.3     1  LIG1        0.0062
     20 C           4.7729    6.1951   -7.8150 C.3     1  LIG1       -0.0616
     21 C           6.8941    4.8474   -7.6737 C.3     1  LIG1       -0.0617
     22 C           6.6885    7.0024   -6.4509 C.3     1  LIG1       -0.0616
     23 C           5.8949    5.7123   -6.8442 C.3     1  LIG1       -0.0608
     24 C           6.6643    1.2993   -2.7226 C.3     1  LIG1        0.3661
     25 N           2.4861    3.0090   -2.0245 N.ar    1  LIG1       -0.2744
     26 N           3.5009    0.3596    0.1227 N.ar    1  LIG1       -0.3449
     27 N           2.3162    2.1340   -1.0168 N.ar    1  LIG1       -0.2436
     28 F           7.7619    0.5061   -2.5487 F       1  LIG1       -0.1817
     29 F           6.3097    1.1369   -4.0309 F       1  LIG1       -0.1768
     30 F           7.1182    2.5818   -2.6211 F       1  LIG1       -0.1761
     31 H          -2.1975    2.0845    1.7033 H       1  LIG1        0.1218
     32 H          -0.8912   -0.0074    1.4280 H       1  LIG1        0.1289
     33 H          -1.3793    4.1990    0.6987 H       1  LIG1        0.1279
     34 H           3.5090    2.1374   -5.0859 H       1  LIG1        0.1313
     35 H           5.1488    5.0106   -2.3134 H       1  LIG1        0.1393
     36 H           4.4480    3.4193   -6.9628 H       1  LIG1        0.1260
     37 H           6.0833    6.2875   -4.1970 H       1  LIG1        0.1233
     38 H           1.2240    0.0086    0.1546 H       1  LIG1        0.1378
     39 H           0.7348    4.2311   -0.5777 H       1  LIG1        0.1365
     40 H           6.6569   -0.5702   -0.7782 H       1  LIG1        0.1534
     41 H           5.3375   -0.9519    1.9964 H       1  LIG1        0.0871
     42 H           3.9449   -1.8435    1.3352 H       1  LIG1        0.0839
     43 H           5.5583   -2.1442    0.6920 H       1  LIG1        0.0845
     44 H           5.1644    6.7680   -8.6637 H       1  LIG1        0.0382
     45 H           4.2112    5.3512   -8.2304 H       1  LIG1        0.0403
     46 H           4.0594    6.8344   -7.2815 H       1  LIG1        0.0386
     47 H           7.3138    5.4130   -8.5129 H       1  LIG1        0.0386
     48 H           7.7396    4.4867   -7.0762 H       1  LIG1        0.0388
     49 H           6.3825    3.9718   -8.0903 H       1  LIG1        0.0386
     50 H           7.0859    7.5363   -7.3226 H       1  LIG1        0.0386
     51 H           6.0457    7.7056   -5.9087 H       1  LIG1        0.0404
     52 H           7.5418    6.7546   -5.8089 H       1  LIG1        0.0382
@<TRIPOS>BOND
     1     1     2   ar
     2     1     3   ar
     3     2     8   ar
     4     3     9   ar
     5     4     6   ar
     6     4    12   ar
     7     5     7   ar
     8     5    12   ar
     9     6    13   ar
    10     7    13   ar
    11     8    15   ar
    12     9    15   ar
    13    10    14   ar
    14    10    17   ar
    15    11    14   ar
    16    11    16   ar
    17    11    18   ar
    18    12    16    1
    19    13    23    1
    20    14    24    1
    21    15    27    1
    22    16    25   ar
    23    17    19    1
    24    17    26   ar
    25    18    26   ar
    26    18    27   ar
    27    20    23    1
    28    21    23    1
    29    22    23    1
    30    24    28    1
    31    24    29    1
    32    24    30    1
    33    25    27   ar
    34     1    31    1
    35     2    32    1
    36     3    33    1
    37     4    34    1
    38     5    35    1
    39     6    36    1
    40     7    37    1
    41     8    38    1
    42     9    39    1
    43    10    40    1
    44    19    41    1
    45    19    42    1
    46    19    43    1
    47    20    44    1
    48    20    45    1
    49    20    46    1
    50    21    47    1
    51    21    48    1
    52    21    49    1
    53    22    50    1
    54    22    51    1
    55    22    52    1
