@<TRIPOS>MOLECULE
AG-219/34246010
 42 45 0 0 0
SMALL
USER_CHARGES

@<TRIPOS>ATOM
      1 C           4.9564    5.0206   -5.5821 C.ar    1  LIG1       -0.1027
      2 C           5.7305    5.0332   -4.4218 C.ar    1  LIG1       -0.0958
      3 C           3.8562    4.1686   -5.6774 C.ar    1  LIG1       -0.0988
      4 C           5.7500   -3.3099    1.6751 C.ar    1  LIG1       -0.0845
      5 C           5.4043    4.1936   -3.3568 C.ar    1  LIG1       -0.0727
      6 C           3.5300    3.3290   -4.6123 C.ar    1  LIG1       -0.0784
      7 C           0.5214    3.2880   -0.2140 C.ar    1  LIG1       -0.0499
      8 C           0.4661    0.9449    0.3729 C.ar    1  LIG1       -0.0505
      9 C           5.8643   -2.3816    0.6404 C.ar    1  LIG1       -0.0643
     10 C           4.9578   -3.0214    2.7865 C.ar    1  LIG1       -0.0466
     11 C          -0.7404    3.4602    0.3550 C.ar    1  LIG1       -0.0704
     12 C          -0.7956    1.1172    0.9419 C.ar    1  LIG1       -0.0709
     13 C           4.3944   -0.8764    1.8283 C.ar    1  LIG1       -0.0143
     14 C           4.8567    1.5227   -1.8869 C.ar    1  LIG1        0.0101
     15 C           4.3041    3.3414   -3.4520 C.ar    1  LIG1       -0.0301
     16 C           1.1247    2.0302   -0.2051 C.ar    1  LIG1        0.0175
     17 C           5.1866   -1.1648    0.7170 C.ar    1  LIG1       -0.0461
     18 C           4.2801   -1.8047    2.8631 C.ar    1  LIG1        0.0716
     19 C          -1.3989    2.3749    0.9331 C.ar    1  LIG1       -0.0381
     20 C           3.9659    2.4709   -2.3470 C.ar    1  LIG1       -0.0015
     21 C           4.4174    0.7552   -0.8275 C.ar    1  LIG1        0.0140
     22 C           2.4271    1.8527   -0.7923 C.ar    1  LIG1        0.0546
     23 N           2.7384    2.6638   -1.8212 N.ar    1  LIG1       -0.3479
     24 N           3.2042    0.8939   -0.2536 N.ar    1  LIG1       -0.3312
     25 N           5.3023   -0.2298   -0.3244 N.pl3   1  LIG1       -0.3283
     26 F           3.5180   -1.5286    3.9295 F       1  LIG1       -0.2622
     27 BR         -3.1081    2.6078    1.7051 Br      1  LIG1       -0.1073
     28 H           5.2096    5.6757   -6.4106 H       1  LIG1        0.1221
     29 H           6.5862    5.6978   -4.3468 H       1  LIG1        0.1201
     30 H           3.2522    4.1593   -6.5800 H       1  LIG1        0.1197
     31 H           6.2771   -4.2577    1.6155 H       1  LIG1        0.1409
     32 H           6.0174    4.2152   -2.4589 H       1  LIG1        0.1410
     33 H           2.6691    2.6706   -4.7009 H       1  LIG1        0.1280
     34 H           1.0221    4.1437   -0.6607 H       1  LIG1        0.1540
     35 H           0.9236   -0.0414    0.3884 H       1  LIG1        0.1523
     36 H           6.4847   -2.6164   -0.2206 H       1  LIG1        0.1288
     37 H           4.8684   -3.7444    3.5920 H       1  LIG1        0.1309
     38 H          -1.1963    4.4469    0.3405 H       1  LIG1        0.1373
     39 H          -1.2952    0.2613    1.3881 H       1  LIG1        0.1365
     40 H           3.8621    0.0686    1.8990 H       1  LIG1        0.1395
     41 H           5.8378    1.3892   -2.3279 H       1  LIG1        0.1411
     42 H           6.1881   -0.2612   -0.8154 H       1  LIG1        0.3320
@<TRIPOS>BOND
     1     1     2   ar
     2     1     3   ar
     3     2     5   ar
     4     3     6   ar
     5     4     9   ar
     6     4    10   ar
     7     5    15   ar
     8     6    15   ar
     9     7    11   ar
    10     7    16   ar
    11     8    12   ar
    12     8    16   ar
    13     9    17   ar
    14    10    18   ar
    15    11    19   ar
    16    12    19   ar
    17    13    17   ar
    18    13    18   ar
    19    14    20   ar
    20    14    21   ar
    21    15    20    1
    22    16    22    1
    23    17    25    1
    24    18    26    1
    25    19    27    1
    26    20    23   ar
    27    21    24   ar
    28    21    25    1
    29    22    23   ar
    30    22    24   ar
    31     1    28    1
    32     2    29    1
    33     3    30    1
    34     4    31    1
    35     5    32    1
    36     6    33    1
    37     7    34    1
    38     8    35    1
    39     9    36    1
    40    10    37    1
    41    11    38    1
    42    12    39    1
    43    13    40    1
    44    14    41    1
    45    25    42    1
