@<TRIPOS>MOLECULE
AF-886/30571011
 46 49 0 0 0
SMALL
USER_CHARGES

@<TRIPOS>ATOM
      1 C           5.3240    4.8943   -5.6639 C.ar    1  LIG1       -0.0975
      2 C           5.1337   -3.2257    2.9141 C.ar    1  LIG1       -0.1040
      3 C           4.3302   -2.1147    3.1701 C.ar    1  LIG1       -0.0998
      4 C           5.9606    4.9061   -4.4229 C.ar    1  LIG1       -0.0934
      5 C           4.1505    4.1609   -5.8389 C.ar    1  LIG1       -0.0871
      6 C           0.2773    0.9947   -0.2569 C.ar    1  LIG1       -0.0557
      7 C           0.6554    3.2903    0.3945 C.ar    1  LIG1       -0.0586
      8 C           5.7961   -3.3407    1.6920 C.ar    1  LIG1       -0.0927
      9 C           4.1890   -1.1187    2.2039 C.ar    1  LIG1       -0.0654
     10 C           5.4238    4.1843   -3.3568 C.ar    1  LIG1       -0.0604
     11 C           3.6136    3.4392   -4.7728 C.ar    1  LIG1       -0.0505
     12 C          -0.9199    0.9888    0.4587 C.ar    1  LIG1       -0.0623
     13 C          -0.5418    3.2843    1.1102 C.ar    1  LIG1       -0.0644
     14 C           1.0651    2.1454   -0.2890 C.ar    1  LIG1       -0.0041
     15 C           5.6549   -2.3447    0.7257 C.ar    1  LIG1       -0.0711
     16 C           4.8513   -1.2336    0.9817 C.ar    1  LIG1       -0.0050
     17 C           3.4145    1.3194   -0.8221 C.ar    1  LIG1        0.1221
     18 C           4.2502    3.4508   -3.5317 C.ar    1  LIG1       -0.0027
     19 C          -1.3295    2.1336    1.1422 C.ar    1  LIG1       -0.0128
     20 C           2.2976    2.1518   -1.0259 C.ar    1  LIG1        0.0752
     21 C           4.3195    1.7199   -1.7747 C.ar    1  LIG1        0.0510
     22 C           6.3727   -2.4908   -0.5761 C.3     1  LIG1       -0.0316
     23 N           2.4746    3.0158   -2.0290 N.ar    1  LIG1       -0.2841
     24 N           4.6968   -0.2207    0.0198 N.2     1  LIG1       -0.2953
     25 N           3.5666    0.3191    0.1279 N.2     1  LIG1       -0.2660
     26 N           3.7133    2.7287   -2.4639 N.ar    1  LIG1       -0.2517
     27 N           5.5670    1.2935   -2.0698 N.pl3   1  LIG1       -0.3560
     28 CL         -2.8059    2.1269    2.0265 Cl      1  LIG1       -0.1408
     29 H           5.7407    5.4574   -6.4938 H       1  LIG1        0.1243
     30 H           5.2434   -4.0017    3.6661 H       1  LIG1        0.1180
     31 H           3.8135   -2.0259    4.1213 H       1  LIG1        0.1155
     32 H           6.8737    5.4780   -4.2860 H       1  LIG1        0.1315
     33 H           3.6546    4.1535   -6.8052 H       1  LIG1        0.1325
     34 H           0.5820    0.0936   -0.7845 H       1  LIG1        0.1495
     35 H           1.2586    4.1951    0.3792 H       1  LIG1        0.1447
     36 H           6.4203   -4.2099    1.5025 H       1  LIG1        0.1216
     37 H           3.5603   -0.2568    2.4132 H       1  LIG1        0.1317
     38 H           5.9296    4.2026   -2.3944 H       1  LIG1        0.1249
     39 H           2.6979    2.8724   -4.9228 H       1  LIG1        0.1423
     40 H          -1.5236    0.0850    0.4749 H       1  LIG1        0.1368
     41 H          -0.8476    4.1833    1.6390 H       1  LIG1        0.1359
     42 H           5.7437   -3.0231   -1.2988 H       1  LIG1        0.0599
     43 H           6.6357   -1.5120   -0.9955 H       1  LIG1        0.0572
     44 H           7.3099   -3.0472   -0.4512 H       1  LIG1        0.0568
     45 H           6.0411    0.5644   -1.5176 H       1  LIG1        0.3020
     46 H           6.1396    1.7410   -2.8000 H       1  LIG1        0.2799
@<TRIPOS>BOND
     1     1     4   ar
     2     1     5   ar
     3     2     3   ar
     4     2     8   ar
     5     3     9   ar
     6     4    10   ar
     7     5    11   ar
     8     6    12   ar
     9     6    14   ar
    10     7    13   ar
    11     7    14   ar
    12     8    15   ar
    13     9    16   ar
    14    10    18   ar
    15    11    18   ar
    16    12    19   ar
    17    13    19   ar
    18    14    20    1
    19    15    16   ar
    20    15    22    1
    21    16    24    1
    22    17    20   ar
    23    17    21   ar
    24    17    25    1
    25    18    26    1
    26    19    28    1
    27    20    23   ar
    28    21    26   ar
    29    21    27    1
    30    23    26   ar
    31    24    25    2
    32     1    29    1
    33     2    30    1
    34     3    31    1
    35     4    32    1
    36     5    33    1
    37     6    34    1
    38     7    35    1
    39     8    36    1
    40     9    37    1
    41    10    38    1
    42    11    39    1
    43    12    40    1
    44    13    41    1
    45    22    42    1
    46    22    43    1
    47    22    44    1
    48    27    45    1
    49    27    46    1
