@<TRIPOS>MOLECULE
AG-219/34246005
 46 49 0 0 0
SMALL
USER_CHARGES

@<TRIPOS>ATOM
      1 C           5.0305    4.9001   -5.5011 C.ar    1  LIG1       -0.1032
      2 C           5.0010    3.5167   -5.6763 C.ar    1  LIG1       -0.0993
      3 C           4.7168    5.4528   -4.2594 C.ar    1  LIG1       -0.0961
      4 C           4.6577    2.6859   -4.6098 C.ar    1  LIG1       -0.0785
      5 C           4.3734    4.6219   -3.1929 C.ar    1  LIG1       -0.0728
      6 C           0.5321    3.2343   -0.1640 C.ar    1  LIG1       -0.0499
      7 C           0.4505    0.8947    0.4334 C.ar    1  LIG1       -0.0508
      8 C           5.8159   -2.4786    0.7652 C.ar    1  LIG1       -0.0621
      9 C           4.3483   -0.9552    1.9324 C.ar    1  LIG1       -0.0636
     10 C           5.6834   -3.4012    1.8028 C.ar    1  LIG1       -0.0546
     11 C           4.2158   -1.8778    2.9700 C.ar    1  LIG1       -0.0624
     12 C          -0.7332    3.4206    0.3927 C.ar    1  LIG1       -0.0705
     13 C          -0.8148    1.0810    0.9902 C.ar    1  LIG1       -0.0713
     14 C           4.8661    1.4223   -1.7894 C.ar    1  LIG1        0.0096
     15 C           4.3439    3.2384   -3.3680 C.ar    1  LIG1       -0.0300
     16 C           1.1239    1.9713   -0.1438 C.ar    1  LIG1        0.0171
     17 C           5.1485   -1.2555    0.8300 C.ar    1  LIG1       -0.0526
     18 C           4.8833   -3.1009    2.9052 C.ar    1  LIG1       -0.0157
     19 C          -1.4066    2.3440    0.9699 C.ar    1  LIG1       -0.0384
     20 C           3.9881    2.3763   -2.2620 C.ar    1  LIG1       -0.0018
     21 C           4.4105    0.6639   -0.7304 C.ar    1  LIG1        0.0137
     22 C           2.4298    1.7793   -0.7184 C.ar    1  LIG1        0.0542
     23 C           5.4641   -5.2319    3.7869 C.3     1  LIG1        0.0217
     24 N           2.7577    2.5826   -1.7483 N.ar    1  LIG1       -0.3494
     25 N           3.1935    0.8162   -0.1682 N.ar    1  LIG1       -0.3300
     26 N           5.2819   -0.3265   -0.2147 N.pl3   1  LIG1       -0.3326
     27 O           4.7540   -4.0013    3.9178 O.3     1  LIG1       -0.4217
     28 BR         -3.1205    2.5959    1.7254 Br      1  LIG1       -0.1078
     29 H           5.2995    5.5467   -6.3312 H       1  LIG1        0.1216
     30 H           5.2469    3.0861   -6.6425 H       1  LIG1        0.1192
     31 H           4.7409    6.5299   -4.1219 H       1  LIG1        0.1198
     32 H           4.6395    1.6092   -4.7623 H       1  LIG1        0.1283
     33 H           4.1319    5.0670   -2.2306 H       1  LIG1        0.1408
     34 H           1.0444    4.0834   -0.6103 H       1  LIG1        0.1537
     35 H           0.8989   -0.0955    0.4577 H       1  LIG1        0.1518
     36 H           6.4419   -2.7229   -0.0892 H       1  LIG1        0.1342
     37 H           3.8237   -0.0051    1.9931 H       1  LIG1        0.1444
     38 H           6.2059   -4.3523    1.7466 H       1  LIG1        0.1326
     39 H           3.5911   -1.6383    3.8262 H       1  LIG1        0.1165
     40 H          -1.1801    4.4113    0.3694 H       1  LIG1        0.1369
     41 H          -1.3260    0.2318    1.4359 H       1  LIG1        0.1356
     42 H           5.8499    1.2779   -2.2209 H       1  LIG1        0.1359
     43 H           5.2740   -5.8580    4.6622 H       1  LIG1        0.0884
     44 H           6.5341   -5.0284    3.6968 H       1  LIG1        0.0880
     45 H           5.1167   -5.7491    2.8895 H       1  LIG1        0.1206
     46 H           6.1718   -0.3682   -0.6976 H       1  LIG1        0.3312
@<TRIPOS>BOND
     1     1     2   ar
     2     1     3   ar
     3     2     4   ar
     4     3     5   ar
     5     4    15   ar
     6     5    15   ar
     7     6    12   ar
     8     6    16   ar
     9     7    13   ar
    10     7    16   ar
    11     8    10   ar
    12     8    17   ar
    13     9    11   ar
    14     9    17   ar
    15    10    18   ar
    16    11    18   ar
    17    12    19   ar
    18    13    19   ar
    19    14    20   ar
    20    14    21   ar
    21    15    20    1
    22    16    22    1
    23    17    26    1
    24    18    27    1
    25    19    28    1
    26    20    24   ar
    27    21    25   ar
    28    21    26    1
    29    22    24   ar
    30    22    25   ar
    31    23    27    1
    32     1    29    1
    33     2    30    1
    34     3    31    1
    35     4    32    1
    36     5    33    1
    37     6    34    1
    38     7    35    1
    39     8    36    1
    40     9    37    1
    41    10    38    1
    42    11    39    1
    43    12    40    1
    44    13    41    1
    45    14    42    1
    46    23    43    1
    47    23    44    1
    48    23    45    1
    49    26    46    1
