@<TRIPOS>MOLECULE
ZINC00453870
 33 35 0 0 0
SMALL
USER_CHARGES

@<TRIPOS>ATOM
      1 C          -1.2819    2.1398    1.0989 C.ar    1  LIG1       -0.0999
      2 C          -0.5516    0.9606    0.9518 C.ar    1  LIG1       -0.0904
      3 C          -0.8140    3.3253    0.5319 C.ar    1  LIG1       -0.0910
      4 C           0.6467    0.9669    0.2378 C.ar    1  LIG1       -0.0519
      5 C           0.3842    3.3316   -0.1821 C.ar    1  LIG1       -0.0524
      6 C           5.7165    0.0059   -0.8184 C.ar    1  LIG1       -0.0257
      7 C           4.3354    1.7048   -1.7677 C.ar    1  LIG1        0.0335
      8 C           5.5533    1.0136   -1.7691 C.ar    1  LIG1        0.0621
      9 C           1.1146    2.1524   -0.3291 C.ar    1  LIG1        0.0024
     10 C           4.6779   -0.2570    0.0686 C.ar    1  LIG1       -0.0261
     11 C           3.7233    2.7482   -2.4903 C.ar    1  LIG1        0.0076
     12 C           3.3835    1.3416   -0.8277 C.ar    1  LIG1        0.0592
     13 C           4.8680   -1.3403    1.0817 C.3     1  LIG1        0.0061
     14 C           4.2800    3.5170   -3.6177 C.3     1  LIG1        0.0071
     15 C           6.6628    1.3026   -2.7250 C.3     1  LIG1        0.3647
     16 N           3.4840    0.3828    0.1094 N.ar    1  LIG1       -0.3461
     17 N           2.4911    3.0282   -2.0529 N.ar    1  LIG1       -0.2952
     18 N           2.3124    2.1577   -1.0429 N.ar    1  LIG1       -0.2493
     19 F           7.7586    0.5076   -2.5463 F       1  LIG1       -0.1800
     20 F           6.3118    1.1378   -4.0341 F       1  LIG1       -0.1789
     21 F           7.1192    2.5845   -2.6256 F       1  LIG1       -0.1784
     22 H          -2.2158    2.1352    1.6532 H       1  LIG1        0.1215
     23 H          -0.9163    0.0373    1.3920 H       1  LIG1        0.1287
     24 H          -1.3841    4.2428    0.6458 H       1  LIG1        0.1278
     25 H           1.2058    0.0405    0.1299 H       1  LIG1        0.1371
     26 H           0.7370    4.2624   -0.6195 H       1  LIG1        0.1364
     27 H           6.6408   -0.5635   -0.7729 H       1  LIG1        0.1531
     28 H           5.3060   -0.9286    1.9975 H       1  LIG1        0.0868
     29 H           3.9135   -1.8177    1.3326 H       1  LIG1        0.0844
     30 H           5.5291   -2.1267    0.6988 H       1  LIG1        0.0838
     31 H           4.0412    3.0399   -4.5833 H       1  LIG1        0.0888
     32 H           3.8894    4.5493   -3.6506 H       1  LIG1        0.0876
     33 H           5.3786    3.6109   -3.5551 H       1  LIG1        0.0864
@<TRIPOS>BOND
     1     1     2   ar
     2     1     3   ar
     3     2     4   ar
     4     3     5   ar
     5     4     9   ar
     6     5     9   ar
     7     6     8   ar
     8     6    10   ar
     9     7     8   ar
    10     7    11   ar
    11     7    12   ar
    12     8    15    1
    13     9    18    1
    14    10    13    1
    15    10    16   ar
    16    11    14    1
    17    11    17   ar
    18    12    16   ar
    19    12    18   ar
    20    15    19    1
    21    15    20    1
    22    15    21    1
    23    17    18   ar
    24     1    22    1
    25     2    23    1
    26     3    24    1
    27     4    25    1
    28     5    26    1
    29     6    27    1
    30    13    28    1
    31    13    29    1
    32    13    30    1
    33    14    31    1
    34    14    32    1
    35    14    33    1
