@<TRIPOS>MOLECULE
AJ-077/33272019
 39 42 0 0 0
SMALL
USER_CHARGES

@<TRIPOS>ATOM
      1 C           4.8114   -3.0366    2.9049 C.ar    1  LIG1       -0.0955
      2 C           4.1752   -1.8009    3.0224 C.ar    1  LIG1       -0.0883
      3 C           5.5301   -3.3440    1.7496 C.ar    1  LIG1       -0.0865
      4 C           3.9431    2.8615   -4.6109 C.ar    1  LIG1       -0.0555
      5 C           4.9518    4.4373   -3.0825 C.ar    1  LIG1       -0.0552
      6 C           4.2575   -0.8726    1.9845 C.ar    1  LIG1       -0.0542
      7 C           5.6125   -2.4157    0.7118 C.ar    1  LIG1       -0.0504
      8 C           4.3248    3.6616   -5.6878 C.ar    1  LIG1       -0.0376
      9 C           5.3338    5.2374   -4.1594 C.ar    1  LIG1       -0.0374
     10 C           4.2565    3.2494   -3.3083 C.ar    1  LIG1       -0.0412
     11 C           4.6335    1.3592   -1.6082 C.ar    1  LIG1        0.0340
     12 C           4.9762   -1.1799    0.8292 C.ar    1  LIG1        0.0054
     13 C           5.0202    4.8495   -5.4620 C.ar    1  LIG1        0.0701
     14 C           5.8745    0.7702   -1.8696 C.ar    1  LIG1        0.0032
     15 C           4.1246    0.6820   -0.5372 C.ar    1  LIG1        0.1322
     16 C           2.6576    2.6411   -1.5827 C.ar    1  LIG1        0.0473
     17 C           3.8519    2.4018   -2.1674 C.ar    1  LIG1       -0.0280
     18 C           2.1797    1.8396   -0.4081 C.ar    1  LIG1        0.2159
     19 C           6.8515    1.1064   -2.9187 C.3     1  LIG1        0.0072
     20 N           6.1448   -0.2216   -1.0092 N.ar    1  LIG1       -0.2937
     21 N           5.0582   -0.2518   -0.2073 N.ar    1  LIG1       -0.2339
     22 N           5.4089    5.6639   -6.5584 N.pl3   1  LIG1       -0.0464
     23 O           5.1170    5.2967   -7.7221 O.2     1  LIG1       -0.1533
     24 O           1.0834    2.0898    0.0872 O.2     1  LIG1       -0.4129
     25 O           6.0337    6.7287   -6.3334 O.2     1  LIG1       -0.2438
     26 O           2.9759    0.8458    0.0914 O.2     1  LIG1       -0.2437
     27 H           4.7491   -3.7590    3.7133 H       1  LIG1        0.1278
     28 H           3.6167   -1.5608    3.9223 H       1  LIG1        0.1331
     29 H           6.0265   -4.3059    1.6595 H       1  LIG1        0.1325
     30 H           3.4015    1.9383   -4.8028 H       1  LIG1        0.1532
     31 H           5.2033    4.7529   -2.0727 H       1  LIG1        0.1542
     32 H           3.7576    0.0873    2.0892 H       1  LIG1        0.1345
     33 H           6.1766   -2.6679   -0.1829 H       1  LIG1        0.1432
     34 H           4.0742    3.3476   -6.6982 H       1  LIG1        0.1683
     35 H           5.8752    6.1609   -3.9694 H       1  LIG1        0.1685
     36 H           1.9865    3.4192   -1.9358 H       1  LIG1        0.1626
     37 H           7.5694    1.8679   -2.5686 H       1  LIG1        0.0913
     38 H           7.4338    0.2259   -3.2444 H       1  LIG1        0.0841
     39 H           6.3666    1.5009   -3.8297 H       1  LIG1        0.0887
@<TRIPOS>BOND
     1     1     2   ar
     2     1     3   ar
     3     2     6   ar
     4     3     7   ar
     5     4     8   ar
     6     4    10   ar
     7     5     9   ar
     8     5    10   ar
     9     6    12   ar
    10     7    12   ar
    11     8    13   ar
    12     9    13   ar
    13    10    17    1
    14    11    14   ar
    15    11    15   ar
    16    11    17   ar
    17    12    21    1
    18    13    22    1
    19    14    19    1
    20    14    20   ar
    21    15    21   ar
    22    15    26   ar
    23    16    17   ar
    24    16    18   ar
    25    18    24    2
    26    18    26   ar
    27    20    21   ar
    28    22    23    1
    29    22    25    2
    30     1    27    1
    31     2    28    1
    32     3    29    1
    33     4    30    1
    34     5    31    1
    35     6    32    1
    36     7    33    1
    37     8    34    1
    38     9    35    1
    39    16    36    1
    40    19    37    1
    41    19    38    1
    42    19    39    1
