@<TRIPOS>MOLECULE
AO-081/13877153
 53 57 0 0 0
SMALL
USER_CHARGES

@<TRIPOS>ATOM
      1 C          -1.2059    2.0288    1.1875 C.ar    1  LIG1       -0.0998
      2 C           1.7137    0.0168    6.5486 C.ar    1  LIG1       -0.1011
      3 C          -0.4629    0.8604    1.0194 C.ar    1  LIG1       -0.0908
      4 C          -0.7630    3.2244    0.6217 C.ar    1  LIG1       -0.0897
      5 C           3.0748   -0.2038    6.3381 C.ar    1  LIG1       -0.0952
      6 C           0.7696   -0.7805    5.9016 C.ar    1  LIG1       -0.0952
      7 C           5.1769    2.8922   -4.4437 C.ar    1  LIG1       -0.0640
      8 C           3.8682    4.8104   -3.7768 C.ar    1  LIG1       -0.0626
      9 C           5.9747   -2.1464    1.2662 C.ar    1  LIG1       -0.0588
     10 C           0.7232    0.8876    0.2857 C.ar    1  LIG1       -0.0517
     11 C           0.4229    3.2516   -0.1120 C.ar    1  LIG1       -0.0500
     12 C           3.4917   -1.2217    5.4803 C.ar    1  LIG1       -0.0610
     13 C           1.1865   -1.7984    5.0439 C.ar    1  LIG1       -0.0610
     14 C           6.1599   -3.1573    2.2092 C.ar    1  LIG1       -0.0245
     15 C           5.7006    3.6207   -5.5116 C.ar    1  LIG1       -0.0738
     16 C           4.3919    5.5390   -4.8448 C.ar    1  LIG1       -0.0732
     17 C           3.7642   -1.7291    2.1473 C.ar    1  LIG1       -0.0261
     18 C           4.3583    1.6967   -1.7748 C.ar    1  LIG1       -0.0134
     19 C           4.2606    3.4870   -3.5763 C.ar    1  LIG1       -0.0270
     20 C           4.7768   -1.4323    1.2353 C.ar    1  LIG1       -0.0203
     21 C           1.1661    2.0832   -0.2800 C.ar    1  LIG1        0.0048
     22 C           2.5476   -2.0190    4.8333 C.ar    1  LIG1        0.0087
     23 C           3.9494   -2.7401    3.0905 C.ar    1  LIG1        0.0722
     24 C           5.1472   -3.4542    3.1213 C.ar    1  LIG1        0.1195
     25 C           5.3081    4.9441   -5.7122 C.ar    1  LIG1       -0.0392
     26 C           3.7209    2.7370   -2.4771 C.ar    1  LIG1        0.0158
     27 C           3.4416    1.3091   -0.8283 C.ar    1  LIG1        0.0341
     28 C           4.5821   -0.3655    0.2387 C.2     1  LIG1        0.0063
     29 N           2.4939    2.9940   -2.0161 N.ar    1  LIG1       -0.2990
     30 N           3.4855    0.3606    0.1328 N.2     1  LIG1       -0.3460
     31 N           2.3530    2.1096   -1.0142 N.ar    1  LIG1       -0.2579
     32 O           2.9611   -3.0287    3.9804 O.3     1  LIG1       -0.3630
     33 F           5.3317   -4.4255    4.0257 F       1  LIG1       -0.2497
     34 BR          6.0167    5.9306   -7.1600 Br      1  LIG1       -0.1098
     35 H          -2.1304    2.0079    1.7571 H       1  LIG1        0.1220
     36 H           1.3886    0.8090    7.2169 H       1  LIG1        0.1229
     37 H          -0.8082   -0.0708    1.4587 H       1  LIG1        0.1270
     38 H          -1.3430    4.1336    0.7518 H       1  LIG1        0.1280
     39 H           3.8101    0.4171    6.8416 H       1  LIG1        0.1260
     40 H          -0.2902   -0.6081    6.0662 H       1  LIG1        0.1261
     41 H           5.4928    1.8616   -4.3009 H       1  LIG1        0.1398
     42 H           3.1536    5.2881   -3.1101 H       1  LIG1        0.1433
     43 H           6.7703   -1.9232    0.5598 H       1  LIG1        0.1524
     44 H           1.2924   -0.0304    0.1617 H       1  LIG1        0.1370
     45 H           0.7563    4.1902   -0.5482 H       1  LIG1        0.1413
     46 H           4.5535   -1.3875    5.3195 H       1  LIG1        0.1311
     47 H           0.4465   -2.4152    4.5412 H       1  LIG1        0.1311
     48 H           7.0925   -3.7130    2.2341 H       1  LIG1        0.1496
     49 H           6.4124    3.1417   -6.1787 H       1  LIG1        0.1381
     50 H           4.0744    6.5687   -4.9882 H       1  LIG1        0.1377
     51 H           2.8287   -1.1752    2.1269 H       1  LIG1        0.1438
     52 H           5.3448    1.2827   -1.9292 H       1  LIG1        0.1346
     53 H           5.4212   -0.1773   -0.4577 H       1  LIG1        0.2108
@<TRIPOS>BOND
     1     1     3   ar
     2     1     4   ar
     3     2     5   ar
     4     2     6   ar
     5     3    10   ar
     6     4    11   ar
     7     5    12   ar
     8     6    13   ar
     9     7    15   ar
    10     7    19   ar
    11     8    16   ar
    12     8    19   ar
    13     9    14   ar
    14     9    20   ar
    15    10    21   ar
    16    11    21   ar
    17    12    22   ar
    18    13    22   ar
    19    14    24   ar
    20    15    25   ar
    21    16    25   ar
    22    17    20   ar
    23    17    23   ar
    24    18    26   ar
    25    18    27   ar
    26    19    26    1
    27    20    28    1
    28    21    31    1
    29    22    32    1
    30    23    24   ar
    31    23    32    1
    32    24    33    1
    33    25    34    1
    34    26    29   ar
    35    27    30    1
    36    27    31   ar
    37    28    30    2
    38    29    31   ar
    39     1    35    1
    40     2    36    1
    41     3    37    1
    42     4    38    1
    43     5    39    1
    44     6    40    1
    45     7    41    1
    46     8    42    1
    47     9    43    1
    48    10    44    1
    49    11    45    1
    50    12    46    1
    51    13    47    1
    52    14    48    1
    53    15    49    1
    54    16    50    1
    55    17    51    1
    56    18    52    1
    57    28    53    1
