@<TRIPOS>MOLECULE
AO-081/13877152
 53 57 0 0 0
SMALL
USER_CHARGES

@<TRIPOS>ATOM
      1 C          -1.2052    2.0298    1.1890 C.ar    1  LIG1       -0.0999
      2 C           1.7158    0.0171    6.5492 C.ar    1  LIG1       -0.1011
      3 C          -0.4625    0.8612    1.0207 C.ar    1  LIG1       -0.0908
      4 C          -0.7623    3.2253    0.6231 C.ar    1  LIG1       -0.0898
      5 C           3.0767   -0.2038    6.3382 C.ar    1  LIG1       -0.0952
      6 C           0.7712   -0.7801    5.9025 C.ar    1  LIG1       -0.0952
      7 C           5.1760    2.8917   -4.4442 C.ar    1  LIG1       -0.0647
      8 C           3.8686    4.8107   -3.7766 C.ar    1  LIG1       -0.0634
      9 C           5.9746   -2.1469    1.2653 C.ar    1  LIG1       -0.0588
     10 C           0.7233    0.8881    0.2866 C.ar    1  LIG1       -0.0517
     11 C           0.4235    3.2523   -0.1110 C.ar    1  LIG1       -0.0501
     12 C           3.4933   -1.2218    5.4803 C.ar    1  LIG1       -0.0610
     13 C           1.1878   -1.7981    5.0446 C.ar    1  LIG1       -0.0610
     14 C           6.1600   -3.1578    2.2083 C.ar    1  LIG1       -0.0245
     15 C           5.7002    3.6204   -5.5119 C.ar    1  LIG1       -0.0660
     16 C           4.3929    5.5393   -4.8442 C.ar    1  LIG1       -0.0655
     17 C           3.7645   -1.7293    2.1473 C.ar    1  LIG1       -0.0261
     18 C           4.3580    1.6965   -1.7752 C.ar    1  LIG1       -0.0137
     19 C           4.2601    3.4869   -3.5766 C.ar    1  LIG1       -0.0284
     20 C           4.7769   -1.4325    1.2348 C.ar    1  LIG1       -0.0203
     21 C           1.1663    2.0836   -0.2792 C.ar    1  LIG1        0.0047
     22 C           2.5487   -2.0189    4.8335 C.ar    1  LIG1        0.0087
     23 C           3.9497   -2.7402    3.0902 C.ar    1  LIG1        0.0721
     24 C           5.1475   -3.4545    3.1207 C.ar    1  LIG1        0.1195
     25 C           5.3087    4.9441   -5.7119 C.ar    1  LIG1       -0.0139
     26 C           3.7206    2.7370   -2.4772 C.ar    1  LIG1        0.0144
     27 C           3.4415    1.3092   -0.8284 C.ar    1  LIG1        0.0338
     28 C           4.5821   -0.3658    0.2384 C.2     1  LIG1        0.0063
     29 N           2.4938    2.9942   -2.0158 N.ar    1  LIG1       -0.2996
     30 N           3.4855    0.3606    0.1328 N.2     1  LIG1       -0.3461
     31 N           2.3530    2.1098   -1.0138 N.ar    1  LIG1       -0.2582
     32 O           2.9617   -3.0287    3.9804 O.3     1  LIG1       -0.3630
     33 F           5.3320   -4.4260    4.0251 F       1  LIG1       -0.2498
     34 CL          5.9540    5.8436   -7.0295 Cl      1  LIG1       -0.1416
     35 H          -2.1294    2.0090    1.7589 H       1  LIG1        0.1219
     36 H           1.3911    0.8093    7.2174 H       1  LIG1        0.1229
     37 H          -0.8079   -0.0701    1.4601 H       1  LIG1        0.1270
     38 H          -1.3420    4.1345    0.7534 H       1  LIG1        0.1280
     39 H           3.8124    0.4169    6.8415 H       1  LIG1        0.1260
     40 H          -0.2884   -0.6075    6.0674 H       1  LIG1        0.1261
     41 H           5.4919    1.8607   -4.3024 H       1  LIG1        0.1407
     42 H           3.1556    5.2887   -3.1088 H       1  LIG1        0.1441
     43 H           6.7700   -1.9238    0.5587 H       1  LIG1        0.1524
     44 H           1.2924   -0.0301    0.1624 H       1  LIG1        0.1370
     45 H           0.7569    4.1907   -0.5473 H       1  LIG1        0.1411
     46 H           4.5549   -1.3878    5.3191 H       1  LIG1        0.1311
     47 H           0.4475   -2.4147    4.5421 H       1  LIG1        0.1311
     48 H           7.0925   -3.7138    2.2328 H       1  LIG1        0.1496
     49 H           6.4129    3.1439   -6.1799 H       1  LIG1        0.1365
     50 H           4.0777    6.5696   -4.9884 H       1  LIG1        0.1361
     51 H           2.8290   -1.1751    2.1270 H       1  LIG1        0.1438
     52 H           5.3445    1.2824   -1.9299 H       1  LIG1        0.1342
     53 H           5.4210   -0.1776   -0.4584 H       1  LIG1        0.2107
@<TRIPOS>BOND
     1     1     3   ar
     2     1     4   ar
     3     2     5   ar
     4     2     6   ar
     5     3    10   ar
     6     4    11   ar
     7     5    12   ar
     8     6    13   ar
     9     7    15   ar
    10     7    19   ar
    11     8    16   ar
    12     8    19   ar
    13     9    14   ar
    14     9    20   ar
    15    10    21   ar
    16    11    21   ar
    17    12    22   ar
    18    13    22   ar
    19    14    24   ar
    20    15    25   ar
    21    16    25   ar
    22    17    20   ar
    23    17    23   ar
    24    18    26   ar
    25    18    27   ar
    26    19    26    1
    27    20    28    1
    28    21    31    1
    29    22    32    1
    30    23    24   ar
    31    23    32    1
    32    24    33    1
    33    25    34    1
    34    26    29   ar
    35    27    30    1
    36    27    31   ar
    37    28    30    2
    38    29    31   ar
    39     1    35    1
    40     2    36    1
    41     3    37    1
    42     4    38    1
    43     5    39    1
    44     6    40    1
    45     7    41    1
    46     8    42    1
    47     9    43    1
    48    10    44    1
    49    11    45    1
    50    12    46    1
    51    13    47    1
    52    14    48    1
    53    15    49    1
    54    16    50    1
    55    17    51    1
    56    18    52    1
    57    28    53    1
