@<TRIPOS>MOLECULE
AO-638/40907341
 40 44 0 0 0
SMALL
USER_CHARGES

@<TRIPOS>ATOM
      1 C           5.3520    4.9114   -5.7040 C.ar    1  LIG1       -0.0998
      2 C          -1.2670    2.0953    1.1444 C.ar    1  LIG1       -0.0989
      3 C           5.1933    3.5293   -5.8042 C.ar    1  LIG1       -0.0939
      4 C           4.9719    5.5743   -4.5370 C.ar    1  LIG1       -0.0955
      5 C          -0.5328    0.9193    0.9906 C.ar    1  LIG1       -0.0892
      6 C          -0.8068    3.2840    0.5778 C.ar    1  LIG1       -0.0904
      7 C           4.6543    2.8101   -4.7375 C.ar    1  LIG1       -0.0723
      8 C           4.4330    4.8551   -3.4703 C.ar    1  LIG1       -0.0751
      9 C           0.6616    0.9320    0.2704 C.ar    1  LIG1       -0.0514
     10 C           0.3877    3.2965   -0.1424 C.ar    1  LIG1       -0.0524
     11 C           5.5487    0.9976   -1.7513 C.ar    1  LIG1       -0.0195
     12 C           5.7223   -0.0190   -0.7975 C.ar    1  LIG1        0.0529
     13 C           4.3340    1.6880   -1.7496 C.ar    1  LIG1        0.0513
     14 C           4.2742    3.4729   -3.5705 C.ar    1  LIG1       -0.0236
     15 C           4.6718   -0.2962    0.1128 C.ar    1  LIG1        0.0778
     16 C           1.1219    2.1206   -0.2962 C.ar    1  LIG1        0.0038
     17 C           6.9185   -0.7527   -0.7434 C.ar    1  LIG1        0.1663
     18 C           4.8735   -1.3083    1.0453 C.ar    1  LIG1        0.2061
     19 C           7.0885   -1.7593    0.2023 C.ar    1  LIG1        0.2037
     20 C           6.0644   -2.0371    1.0976 C.ar    1  LIG1        0.2169
     21 C           3.7174    2.7304   -2.4687 C.ar    1  LIG1        0.0534
     22 C           3.3914    1.3201   -0.8090 C.ar    1  LIG1        0.0753
     23 N           3.5007    0.3618    0.1226 N.ar    1  LIG1       -0.3220
     24 N           2.4862    3.0058   -2.0256 N.ar    1  LIG1       -0.2716
     25 N           2.3159    2.1324   -1.0161 N.ar    1  LIG1       -0.2396
     26 F           7.9166   -0.4948   -1.6022 F       1  LIG1       -0.2265
     27 F           3.9036   -1.6026    1.9252 F       1  LIG1       -0.2156
     28 F           8.2317   -2.4549    0.2481 F       1  LIG1       -0.2353
     29 F           6.2170   -3.0038    2.0122 F       1  LIG1       -0.2218
     30 H           5.7727    5.4715   -6.5341 H       1  LIG1        0.1247
     31 H          -2.1980    2.0856    1.7036 H       1  LIG1        0.1226
     32 H           5.4903    3.0128   -6.7121 H       1  LIG1        0.1239
     33 H           5.0968    6.6503   -4.4589 H       1  LIG1        0.1245
     34 H          -0.8917   -0.0066    1.4305 H       1  LIG1        0.1299
     35 H          -1.3798    4.1990    0.6967 H       1  LIG1        0.1282
     36 H           4.5369    1.7328   -4.8309 H       1  LIG1        0.1349
     37 H           4.1416    5.3867   -2.5675 H       1  LIG1        0.1293
     38 H           1.2238    0.0081    0.1574 H       1  LIG1        0.1382
     39 H           0.7345    4.2299   -0.5796 H       1  LIG1        0.1368
     40 H           6.3262    1.2439   -2.4683 H       1  LIG1        0.1938
@<TRIPOS>BOND
     1     1     3   ar
     2     1     4   ar
     3     2     5   ar
     4     2     6   ar
     5     3     7   ar
     6     4     8   ar
     7     5     9   ar
     8     6    10   ar
     9     7    14   ar
    10     8    14   ar
    11     9    16   ar
    12    10    16   ar
    13    11    12   ar
    14    11    13   ar
    15    12    15   ar
    16    12    17   ar
    17    13    21   ar
    18    13    22   ar
    19    14    21    1
    20    15    18   ar
    21    15    23   ar
    22    16    25    1
    23    17    19   ar
    24    17    26    1
    25    18    20   ar
    26    18    27    1
    27    19    20   ar
    28    19    28    1
    29    20    29    1
    30    21    24   ar
    31    22    23   ar
    32    22    25   ar
    33    24    25   ar
    34     1    30    1
    35     2    31    1
    36     3    32    1
    37     4    33    1
    38     5    34    1
    39     6    35    1
    40     7    36    1
    41     8    37    1
    42     9    38    1
    43    10    39    1
    44    11    40    1
