@<TRIPOS>MOLECULE
AE-842/31985041
 42 46 0 0 0
SMALL
USER_CHARGES

@<TRIPOS>ATOM
      1 C           5.2900    4.9447   -5.9150 C.ar    1  LIG1       -0.1032
      2 C          -1.1510    1.8694    0.9357 C.ar    1  LIG1       -0.1083
      3 C           4.5056    3.7963   -6.0227 C.ar    1  LIG1       -0.0971
      4 C           5.5969    5.4642   -4.6573 C.ar    1  LIG1       -0.0976
      5 C          -0.4401    0.7670    0.4615 C.ar    1  LIG1       -0.0991
      6 C          -0.5944    3.1459    0.8535 C.ar    1  LIG1       -0.0988
      7 C           4.0281    3.1674   -4.8728 C.ar    1  LIG1       -0.0745
      8 C           5.1194    4.8353   -3.5076 C.ar    1  LIG1       -0.0757
      9 C           0.8271    0.9409   -0.0948 C.ar    1  LIG1       -0.0596
     10 C           0.6728    3.3198    0.2972 C.ar    1  LIG1       -0.0592
     11 C           4.3350    3.6869   -3.6152 C.ar    1  LIG1       -0.0311
     12 C           1.3836    2.2173   -0.1770 C.ar    1  LIG1       -0.0336
     13 C           3.8399    3.0348   -2.4231 C.2     1  LIG1        0.0082
     14 C           4.9824   -0.4334   -2.6090 C.3     1  LIG1       -0.0653
     15 C           4.0283   -1.0638   -1.5560 C.3     1  LIG1       -0.0629
     16 C           5.4861    0.3213   -0.4077 C.3     1  LIG1       -0.0574
     17 C           4.6059    1.9552   -1.7165 C.3     1  LIG1        0.0104
     18 C           5.5694    0.7978   -1.8827 C.3     1  LIG1       -0.0523
     19 C           3.9707    0.0434   -0.4690 C.3     1  LIG1       -0.0461
     20 C           3.3504    1.2319   -1.2102 C.3     1  LIG1       -0.0105
     21 N           2.7694    3.3654   -1.7365 N.2     1  LIG1       -0.3298
     22 N           2.6383    2.3899   -0.7278 N.pl3   1  LIG1       -0.3443
     23 H           5.6616    5.4343   -6.8103 H       1  LIG1        0.1208
     24 H          -2.1377    1.7339    1.3690 H       1  LIG1        0.1088
     25 H           4.2665    3.3920   -7.0020 H       1  LIG1        0.1195
     26 H           6.2078    6.3582   -4.5735 H       1  LIG1        0.1200
     27 H          -0.8734   -0.2266    0.5256 H       1  LIG1        0.1215
     28 H          -1.1482    4.0044    1.2228 H       1  LIG1        0.1207
     29 H           3.4178    2.2730   -4.9684 H       1  LIG1        0.1340
     30 H           5.3648    5.2490   -2.5328 H       1  LIG1        0.1310
     31 H           1.3728    0.0752   -0.4614 H       1  LIG1        0.1198
     32 H           1.0962    4.3193    0.2382 H       1  LIG1        0.1192
     33 H           5.7682   -1.1510   -2.8684 H       1  LIG1        0.0531
     34 H           4.4561   -0.1510   -3.5265 H       1  LIG1        0.0471
     35 H           3.0507   -1.3119   -1.9822 H       1  LIG1        0.0501
     36 H           4.4601   -1.9878   -1.1526 H       1  LIG1        0.0462
     37 H           6.0909   -0.5721   -0.2125 H       1  LIG1        0.0528
     38 H           5.7506    1.0832    0.3337 H       1  LIG1        0.0573
     39 H           5.0719    2.5796   -0.9272 H       1  LIG1        0.0825
     40 H           6.5646    1.0878   -2.2240 H       1  LIG1        0.0785
     41 H           3.4873   -0.2629    0.4588 H       1  LIG1        0.0866
     42 H           2.7376    0.8467   -2.0440 H       1  LIG1        0.1186
@<TRIPOS>BOND
     1     1     3   ar
     2     1     4   ar
     3     2     5   ar
     4     2     6   ar
     5     3     7   ar
     6     4     8   ar
     7     5     9   ar
     8     6    10   ar
     9     7    11   ar
    10     8    11   ar
    11     9    12   ar
    12    10    12   ar
    13    11    13    1
    14    12    22    1
    15    13    17    1
    16    13    21    2
    17    14    15    1
    18    14    18    1
    19    15    19    1
    20    16    18    1
    21    16    19    1
    22    17    18    1
    23    17    20    1
    24    19    20    1
    25    20    22    1
    26    21    22    1
    27     1    23    1
    28     2    24    1
    29     3    25    1
    30     4    26    1
    31     5    27    1
    32     6    28    1
    33     7    29    1
    34     8    30    1
    35     9    31    1
    36    10    32    1
    37    14    33    1
    38    14    34    1
    39    15    35    1
    40    15    36    1
    41    16    37    1
    42    16    38    1
    43    17    39    1
    44    18    40    1
    45    19    41    1
    46    20    42    1
