@<TRIPOS>MOLECULE
AG-205/33125019
 40 42 0 0 0
SMALL
USER_CHARGES

@<TRIPOS>ATOM
      1 C           6.2900    1.2450   -2.4419 C.1     1  LIG1        0.0763
      2 C          -1.2704    2.1498    1.0918 C.ar    1  LIG1       -0.1028
      3 C          -0.3908    3.2323    1.0761 C.ar    1  LIG1       -0.0988
      4 C          -0.9026    0.9437    0.4955 C.ar    1  LIG1       -0.0965
      5 C           0.8564    3.1086    0.4642 C.ar    1  LIG1       -0.0791
      6 C           0.3447    0.8200   -0.1165 C.ar    1  LIG1       -0.0748
      7 C           3.7722    3.2488   -4.6721 C.ar    1  LIG1       -0.0748
      8 C           5.6357    4.0889   -3.3842 C.ar    1  LIG1       -0.0734
      9 C           4.1424    4.0653   -5.7406 C.ar    1  LIG1       -0.0740
     10 C           6.0060    4.9055   -4.4527 C.ar    1  LIG1       -0.0737
     11 C           2.8743    2.5906   -1.8261 C.ar    1  LIG1       -0.0179
     12 C           4.9855    1.4396   -1.8748 C.ar    1  LIG1        0.1156
     13 C           4.5189    3.2605   -3.4938 C.ar    1  LIG1       -0.0514
     14 C           1.2242    1.9025   -0.1322 C.ar    1  LIG1       -0.0318
     15 C           4.1347    2.4135   -2.3858 C.ar    1  LIG1       -0.0054
     16 C           5.2594    4.8937   -5.6308 C.ar    1  LIG1       -0.0363
     17 C           2.5152    1.7748   -0.7652 C.ar    1  LIG1       -0.0025
     18 C           4.5320    0.6754   -0.8117 C.ar    1  LIG1        0.0588
     19 C           4.5037   -3.5233    2.0657 C.2     1  LIG1       -0.1272
     20 C           5.0102   -2.2871    1.9928 C.2     1  LIG1       -0.1221
     21 C           4.3926   -1.1789    1.2020 C.3     1  LIG1        0.0145
     22 N           7.3445    1.0880   -2.9003 N.1     1  LIG1       -0.3580
     23 N           3.3145    0.8184   -0.2418 N.ar    1  LIG1       -0.3596
     24 S           5.5393   -0.6073   -0.0686 S.3     1  LIG1       -0.1152
     25 BR          5.7621    5.9997   -7.0785 Br      1  LIG1       -0.1051
     26 H          -2.2408    2.2459    1.5699 H       1  LIG1        0.1220
     27 H          -0.6764    4.1710    1.5419 H       1  LIG1        0.1203
     28 H          -1.5864    0.1000    0.5086 H       1  LIG1        0.1194
     29 H           1.5311    3.9616    0.4606 H       1  LIG1        0.1297
     30 H           0.6178   -0.1266   -0.5767 H       1  LIG1        0.1381
     31 H           2.8990    2.6086   -4.7727 H       1  LIG1        0.1345
     32 H           6.2284    4.1087   -2.4727 H       1  LIG1        0.1410
     33 H           3.5504    4.0438   -6.6519 H       1  LIG1        0.1397
     34 H           6.8788    5.5451   -4.3510 H       1  LIG1        0.1403
     35 H           2.1907    3.3448   -2.2065 H       1  LIG1        0.1514
     36 H           4.9833   -4.2997    2.6514 H       1  LIG1        0.0919
     37 H           3.5933   -3.7760    1.5333 H       1  LIG1        0.0874
     38 H           5.9375   -2.0768    2.5206 H       1  LIG1        0.0992
     39 H           4.1213   -0.3277    1.8348 H       1  LIG1        0.0982
     40 H           3.4800   -1.5393    0.7174 H       1  LIG1        0.1020
@<TRIPOS>BOND
     1     1    12    1
     2     1    22    3
     3     2     3   ar
     4     2     4   ar
     5     3     5   ar
     6     4     6   ar
     7     5    14   ar
     8     6    14   ar
     9     7     9   ar
    10     7    13   ar
    11     8    10   ar
    12     8    13   ar
    13     9    16   ar
    14    10    16   ar
    15    11    15   ar
    16    11    17   ar
    17    12    15   ar
    18    12    18   ar
    19    13    15    1
    20    14    17    1
    21    16    25    1
    22    17    23   ar
    23    18    23   ar
    24    18    24    1
    25    19    20    2
    26    20    21    1
    27    21    24    1
    28     2    26    1
    29     3    27    1
    30     4    28    1
    31     5    29    1
    32     6    30    1
    33     7    31    1
    34     8    32    1
    35     9    33    1
    36    10    34    1
    37    11    35    1
    38    19    36    1
    39    19    37    1
    40    20    38    1
    41    21    39    1
    42    21    40    1
