@<TRIPOS>MOLECULE
AO-081/15246973
 43 46 0 0 0
SMALL
USER_CHARGES

@<TRIPOS>ATOM
      1 C          -1.2664    2.0952    1.1442 C.ar    1  LIG1       -0.1013
      2 C          -0.5319    0.9194    0.9902 C.ar    1  LIG1       -0.0912
      3 C          -0.8066    3.2840    0.5776 C.ar    1  LIG1       -0.0923
      4 C           4.0706    3.0409   -4.8815 C.ar    1  LIG1       -0.0728
      5 C           4.9879    4.6512   -3.3316 C.ar    1  LIG1       -0.0738
      6 C           4.6009    3.7658   -5.9487 C.ar    1  LIG1       -0.0951
      7 C           5.5184    5.3762   -4.3988 C.ar    1  LIG1       -0.0961
      8 C           0.6623    0.9324    0.2696 C.ar    1  LIG1       -0.0517
      9 C           0.3876    3.2970   -0.1430 C.ar    1  LIG1       -0.0530
     10 C           5.7304   -0.0043   -0.8172 C.ar    1  LIG1       -0.0578
     11 C           4.3369    1.6912   -1.7543 C.ar    1  LIG1        0.0228
     12 C           4.2640    3.4836   -3.5730 C.ar    1  LIG1       -0.0261
     13 C           5.3248    4.9334   -5.7073 C.ar    1  LIG1       -0.1145
     14 C           5.5577    1.0052   -1.7642 C.ar    1  LIG1       -0.0798
     15 C           1.1221    2.1212   -0.2970 C.ar    1  LIG1        0.0022
     16 C           3.7165    2.7339   -2.4708 C.ar    1  LIG1        0.0395
     17 C           4.6977   -0.2741    0.0746 C.ar    1  LIG1       -0.0411
     18 C           3.3917    1.3213   -0.8102 C.ar    1  LIG1        0.0519
     19 C           5.8926    5.7070   -6.8489 C.3     1  LIG1       -0.0418
     20 C           6.6640    1.2982   -2.7232 C.3     1  LIG1       -0.0263
     21 C           4.8974   -1.3597    1.0837 C.3     1  LIG1        0.0009
     22 N           2.4855    3.0074   -2.0260 N.ar    1  LIG1       -0.2836
     23 N           3.5014    0.3604    0.1237 N.ar    1  LIG1       -0.3612
     24 N           2.3160    2.1334   -1.0174 N.ar    1  LIG1       -0.2501
     25 H          -2.1971    2.0852    1.7037 H       1  LIG1        0.1196
     26 H          -0.8904   -0.0066    1.4302 H       1  LIG1        0.1274
     27 H          -1.3798    4.1989    0.6968 H       1  LIG1        0.1262
     28 H           3.5080    2.1331   -5.0867 H       1  LIG1        0.1324
     29 H           5.1475    5.0094   -2.3173 H       1  LIG1        0.1328
     30 H           4.4462    3.4135   -6.9650 H       1  LIG1        0.1217
     31 H           6.0813    6.2848   -4.2023 H       1  LIG1        0.1219
     32 H           1.2246    0.0088    0.1563 H       1  LIG1        0.1372
     33 H           0.7341    4.2304   -0.5800 H       1  LIG1        0.1347
     34 H           6.6575   -0.5694   -0.7770 H       1  LIG1        0.1275
     35 H           5.1710    6.4549   -7.2001 H       1  LIG1        0.0585
     36 H           6.8166    6.2243   -6.5596 H       1  LIG1        0.0550
     37 H           6.1474    5.0480   -7.6893 H       1  LIG1        0.0548
     38 H           6.5555    0.6873   -3.6270 H       1  LIG1        0.0699
     39 H           6.6667    2.3558   -3.0147 H       1  LIG1        0.0641
     40 H           7.6434    1.0884   -2.2752 H       1  LIG1        0.0677
     41 H           5.3387   -0.9489    1.9982 H       1  LIG1        0.0821
     42 H           3.9462   -1.8414    1.3382 H       1  LIG1        0.0790
     43 H           5.5596   -2.1423    0.6949 H       1  LIG1        0.0800
@<TRIPOS>BOND
     1     1     2   ar
     2     1     3   ar
     3     2     8   ar
     4     3     9   ar
     5     4     6   ar
     6     4    12   ar
     7     5     7   ar
     8     5    12   ar
     9     6    13   ar
    10     7    13   ar
    11     8    15   ar
    12     9    15   ar
    13    10    14   ar
    14    10    17   ar
    15    11    14   ar
    16    11    16   ar
    17    11    18   ar
    18    12    16    1
    19    13    19    1
    20    14    20    1
    21    15    24    1
    22    16    22   ar
    23    17    21    1
    24    17    23   ar
    25    18    23   ar
    26    18    24   ar
    27    22    24   ar
    28     1    25    1
    29     2    26    1
    30     3    27    1
    31     4    28    1
    32     5    29    1
    33     6    30    1
    34     7    31    1
    35     8    32    1
    36     9    33    1
    37    10    34    1
    38    19    35    1
    39    19    36    1
    40    19    37    1
    41    20    38    1
    42    20    39    1
    43    20    40    1
    44    21    41    1
    45    21    42    1
    46    21    43    1
