@<TRIPOS>MOLECULE
AG-664/14116010
 47 50 0 0 0
SMALL
USER_CHARGES

@<TRIPOS>ATOM
      1 C           6.2416    1.1750   -2.3454 C.1     1  LIG1        0.0683
      2 C           5.2578    4.8294   -5.5626 C.ar    1  LIG1       -0.1027
      3 C          -1.3364    2.1521    1.1277 C.ar    1  LIG1       -0.1037
      4 C           4.9289    5.4044   -4.3351 C.ar    1  LIG1       -0.0991
      5 C           5.2031    3.4447   -5.7213 C.ar    1  LIG1       -0.0996
      6 C          -0.7190    3.2613    0.5497 C.ar    1  LIG1       -0.0994
      7 C          -0.7031    0.9095    1.1027 C.ar    1  LIG1       -0.0969
      8 C           4.5452    4.5945   -3.2662 C.ar    1  LIG1       -0.0859
      9 C           4.8196    2.6349   -4.6524 C.ar    1  LIG1       -0.0875
     10 C           0.5316    3.1280   -0.0535 C.ar    1  LIG1       -0.0781
     11 C           0.5475    0.7761    0.4995 C.ar    1  LIG1       -0.0734
     12 C           5.6141   -3.4226    1.8722 C.ar    1  LIG1       -0.0996
     13 C           4.1552   -1.8560    2.9925 C.ar    1  LIG1       -0.0946
     14 C           5.7844   -2.5158    0.8260 C.ar    1  LIG1       -0.0725
     15 C           4.3255   -0.9494    1.9461 C.ar    1  LIG1       -0.0636
     16 C           2.8299    2.5573   -1.7645 C.ar    1  LIG1       -0.0229
     17 C           4.9341    1.3930   -1.7961 C.ar    1  LIG1        0.1321
     18 C           4.4906    3.2097   -3.4248 C.ar    1  LIG1       -0.0592
     19 C           1.1649    1.8854   -0.0785 C.ar    1  LIG1       -0.0286
     20 C           4.0925    2.3701   -2.3159 C.ar    1  LIG1       -0.0101
     21 C           4.7995   -3.0927    2.9554 C.ar    1  LIG1       -0.1175
     22 C           5.1400   -1.2793    0.8630 C.ar    1  LIG1       -0.0534
     23 C           2.4593    1.7478   -0.7027 C.ar    1  LIG1        0.0008
     24 C           4.4694    0.6358   -0.7328 C.ar    1  LIG1        0.0569
     25 C           4.6165   -4.0615    4.0743 C.3     1  LIG1       -0.0460
     26 N           7.2991    0.9987   -2.7897 N.1     1  LIG1       -0.3738
     27 N           3.2494    0.7884   -0.1707 N.ar    1  LIG1       -0.3383
     28 N           5.3126   -0.3662   -0.1884 N.pl3   1  LIG1       -0.3241
     29 H           5.5549    5.4604   -6.3953 H       1  LIG1        0.1213
     30 H          -2.3094    2.2566    1.5988 H       1  LIG1        0.1207
     31 H           4.9697    6.4827   -4.2119 H       1  LIG1        0.1213
     32 H           5.4579    2.9965   -6.6772 H       1  LIG1        0.1202
     33 H          -1.2112    4.2292    0.5706 H       1  LIG1        0.1189
     34 H          -1.1826    0.0458    1.5538 H       1  LIG1        0.1184
     35 H           4.2915    5.0579   -2.3156 H       1  LIG1        0.1295
     36 H           4.7810    1.5570   -4.7911 H       1  LIG1        0.1225
     37 H           1.0000    4.0022   -0.4996 H       1  LIG1        0.1302
     38 H           1.0293   -0.1986    0.4882 H       1  LIG1        0.1400
     39 H           6.1190   -4.3840    1.8347 H       1  LIG1        0.1212
     40 H           3.5173   -1.5910    3.8313 H       1  LIG1        0.1218
     41 H           6.4202   -2.7835   -0.0139 H       1  LIG1        0.1201
     42 H           3.8181    0.0111    1.9850 H       1  LIG1        0.1389
     43 H           2.1536    3.3145   -2.1519 H       1  LIG1        0.1394
     44 H           5.3797   -3.9025    4.8460 H       1  LIG1        0.0546
     45 H           3.6267   -3.9542    4.5366 H       1  LIG1        0.0523
     46 H           4.6908   -5.0981    3.7199 H       1  LIG1        0.0518
     47 H           6.2098   -0.4290   -0.6538 H       1  LIG1        0.3295
@<TRIPOS>BOND
     1     1    17    1
     2     1    26    3
     3     2     4   ar
     4     2     5   ar
     5     3     6   ar
     6     3     7   ar
     7     4     8   ar
     8     5     9   ar
     9     6    10   ar
    10     7    11   ar
    11     8    18   ar
    12     9    18   ar
    13    10    19   ar
    14    11    19   ar
    15    12    14   ar
    16    12    21   ar
    17    13    15   ar
    18    13    21   ar
    19    14    22   ar
    20    15    22   ar
    21    16    20   ar
    22    16    23   ar
    23    17    20   ar
    24    17    24   ar
    25    18    20    1
    26    19    23    1
    27    21    25    1
    28    22    28    1
    29    23    27   ar
    30    24    27   ar
    31    24    28    1
    32     2    29    1
    33     3    30    1
    34     4    31    1
    35     5    32    1
    36     6    33    1
    37     7    34    1
    38     8    35    1
    39     9    36    1
    40    10    37    1
    41    11    38    1
    42    12    39    1
    43    13    40    1
    44    14    41    1
    45    15    42    1
    46    16    43    1
    47    25    44    1
    48    25    45    1
    49    25    46    1
    50    28    47    1
