@<TRIPOS>MOLECULE
AG-219/34246017
 41 44 0 0 0
SMALL
USER_CHARGES

@<TRIPOS>ATOM
      1 C           4.8689    4.9912   -5.5020 C.ar    1  LIG1       -0.1020
      2 C           4.1264   -2.6370    2.8835 C.ar    1  LIG1       -0.1007
      3 C           4.2702    3.7552   -5.7454 C.ar    1  LIG1       -0.0952
      4 C           5.1905    5.3656   -4.1973 C.ar    1  LIG1       -0.0980
      5 C           3.8831   -3.0534    1.5747 C.ar    1  LIG1       -0.0932
      6 C           4.8023   -1.4400    3.1203 C.ar    1  LIG1       -0.0939
      7 C           3.9929    2.8935   -4.6842 C.ar    1  LIG1       -0.0723
      8 C           4.9132    4.5039   -3.1360 C.ar    1  LIG1       -0.0774
      9 C           0.1708    1.0867   -0.5507 C.ar    1  LIG1       -0.0500
     10 C           1.0818    2.6996    1.0003 C.ar    1  LIG1       -0.0504
     11 C           4.3161   -2.2731    0.5026 C.ar    1  LIG1       -0.0549
     12 C           5.2352   -0.6597    2.0483 C.ar    1  LIG1       -0.0563
     13 C          -1.0815    1.2168    0.0496 C.ar    1  LIG1       -0.0700
     14 C          -0.1705    2.8296    1.6006 C.ar    1  LIG1       -0.0702
     15 C           4.9518    1.4400   -1.8579 C.ar    1  LIG1        0.0298
     16 C           4.3144    3.2678   -3.3794 C.ar    1  LIG1       -0.0281
     17 C           1.2525    1.8281   -0.0754 C.ar    1  LIG1        0.0175
     18 C           4.9921   -1.0761    0.7394 C.ar    1  LIG1        0.0292
     19 C          -1.2522    2.0881    1.1252 C.ar    1  LIG1       -0.0374
     20 C           4.0269    2.3736   -2.2790 C.ar    1  LIG1        0.0066
     21 C           4.5590    0.6456   -0.8001 C.ar    1  LIG1        0.0970
     22 C           2.5448    1.6939   -0.6951 C.ar    1  LIG1        0.0564
     23 N           2.8095    2.5284   -1.7184 N.ar    1  LIG1       -0.3418
     24 N           3.3586    0.7458   -0.1926 N.ar    1  LIG1       -0.3198
     25 O           5.4223   -0.3042   -0.3214 O.3     1  LIG1       -0.3210
     26 BR         -2.9489    2.2655    1.9385 Br      1  LIG1       -0.1063
     27 H           5.0863    5.6612   -6.3286 H       1  LIG1        0.1232
     28 H           3.7889   -3.2441    3.7184 H       1  LIG1        0.1218
     29 H           4.0213    3.4629   -6.7613 H       1  LIG1        0.1207
     30 H           5.6580    6.3273   -4.0071 H       1  LIG1        0.1207
     31 H           3.3569   -3.9856    1.3901 H       1  LIG1        0.1260
     32 H           4.9912   -1.1164    4.1398 H       1  LIG1        0.1245
     33 H           3.5261    1.9331   -4.8903 H       1  LIG1        0.1415
     34 H           5.1701    4.8090   -2.1244 H       1  LIG1        0.1307
     35 H           0.2880    0.4032   -1.3885 H       1  LIG1        0.1541
     36 H           1.9150    3.2850    1.3817 H       1  LIG1        0.1523
     37 H           4.1248   -2.6038   -0.5145 H       1  LIG1        0.1324
     38 H           5.7630    0.2709    2.2388 H       1  LIG1        0.1272
     39 H          -1.9143    0.6323   -0.3333 H       1  LIG1        0.1378
     40 H          -0.2867    3.5129    2.4377 H       1  LIG1        0.1370
     41 H           5.9244    1.3313   -2.3229 H       1  LIG1        0.1527
@<TRIPOS>BOND
     1     1     3   ar
     2     1     4   ar
     3     2     5   ar
     4     2     6   ar
     5     3     7   ar
     6     4     8   ar
     7     5    11   ar
     8     6    12   ar
     9     7    16   ar
    10     8    16   ar
    11     9    13   ar
    12     9    17   ar
    13    10    14   ar
    14    10    17   ar
    15    11    18   ar
    16    12    18   ar
    17    13    19   ar
    18    14    19   ar
    19    15    20   ar
    20    15    21   ar
    21    16    20    1
    22    17    22    1
    23    18    25    1
    24    19    26    1
    25    20    23   ar
    26    21    24   ar
    27    21    25    1
    28    22    23   ar
    29    22    24   ar
    30     1    27    1
    31     2    28    1
    32     3    29    1
    33     4    30    1
    34     5    31    1
    35     6    32    1
    36     7    33    1
    37     8    34    1
    38     9    35    1
    39    10    36    1
    40    11    37    1
    41    12    38    1
    42    13    39    1
    43    14    40    1
    44    15    41    1
