@<TRIPOS>MOLECULE
AG-690/11481222
 39 41 0 0 0
SMALL
USER_CHARGES

@<TRIPOS>ATOM
      1 C           6.2292    1.2096   -2.3748 C.1     1  LIG1        0.0802
      2 C          -1.3415    2.1686    1.1130 C.ar    1  LIG1       -0.1028
      3 C          -0.4589    3.2487    1.0984 C.ar    1  LIG1       -0.0986
      4 C          -0.9747    0.9602    0.5207 C.ar    1  LIG1       -0.0963
      5 C           0.7903    3.1205    0.4912 C.ar    1  LIG1       -0.0782
      6 C           0.2746    0.8320   -0.0865 C.ar    1  LIG1       -0.0739
      7 C           5.1182    4.4627   -3.2153 C.ar    1  LIG1       -0.0740
      8 C           4.2006    2.8521   -4.7648 C.ar    1  LIG1       -0.0726
      9 C           5.4980    5.2746   -4.2841 C.ar    1  LIG1       -0.0738
     10 C           4.5803    3.6640   -5.8336 C.ar    1  LIG1       -0.0736
     11 C           2.8148    2.5925   -1.7904 C.ar    1  LIG1       -0.0200
     12 C           4.9216    1.4331   -1.8327 C.ar    1  LIG1        0.1493
     13 C           4.4696    3.2515   -3.4556 C.ar    1  LIG1       -0.0498
     14 C           1.1571    1.9121   -0.1012 C.ar    1  LIG1       -0.0299
     15 C           4.0759    2.4096   -2.3470 C.ar    1  LIG1       -0.0014
     16 C           5.2289    4.8753   -5.5932 C.ar    1  LIG1       -0.0364
     17 C           2.4501    1.7797   -0.7292 C.ar    1  LIG1       -0.0022
     18 C           4.4627    0.6723   -0.7695 C.ar    1  LIG1        0.1208
     19 C           5.7239   -2.0721    1.3142 C.3     1  LIG1       -0.0313
     20 C           4.7135   -1.0395    0.8623 C.3     1  LIG1        0.0317
     21 N           7.2881    1.0287   -2.8138 N.1     1  LIG1       -0.3655
     22 N           3.2444    0.8209   -0.2026 N.ar    1  LIG1       -0.3380
     23 O           5.2582   -0.3035   -0.2259 O.3     1  LIG1       -0.3621
     24 BR          5.7422    5.9752   -7.0418 Br      1  LIG1       -0.1053
     25 H          -2.3134    2.2681    1.5873 H       1  LIG1        0.1221
     26 H          -0.7437    4.1891    1.5611 H       1  LIG1        0.1203
     27 H          -1.6607    0.1183    0.5329 H       1  LIG1        0.1193
     28 H           1.4672    3.9716    0.4883 H       1  LIG1        0.1308
     29 H           0.5468   -0.1164   -0.5437 H       1  LIG1        0.1393
     30 H           5.3350    4.7878   -2.2005 H       1  LIG1        0.1353
     31 H           3.6950    1.9112   -4.9684 H       1  LIG1        0.1418
     32 H           6.0020    6.2158   -4.0797 H       1  LIG1        0.1396
     33 H           4.3633    3.3382   -6.8475 H       1  LIG1        0.1402
     34 H           2.1352    3.3488   -2.1743 H       1  LIG1        0.1462
     35 H           5.9587   -2.7688    0.5046 H       1  LIG1        0.0601
     36 H           6.6492   -1.5884    1.6438 H       1  LIG1        0.0478
     37 H           5.3399   -2.6398    2.1683 H       1  LIG1        0.0478
     38 H           4.4831   -0.3460    1.6766 H       1  LIG1        0.1065
     39 H           3.7899   -1.5246    0.5325 H       1  LIG1        0.1065
@<TRIPOS>BOND
     1     1    12    1
     2     1    21    3
     3     2     3   ar
     4     2     4   ar
     5     3     5   ar
     6     4     6   ar
     7     5    14   ar
     8     6    14   ar
     9     7     9   ar
    10     7    13   ar
    11     8    10   ar
    12     8    13   ar
    13     9    16   ar
    14    10    16   ar
    15    11    15   ar
    16    11    17   ar
    17    12    15   ar
    18    12    18   ar
    19    13    15    1
    20    14    17    1
    21    16    24    1
    22    17    22   ar
    23    18    22   ar
    24    18    23    1
    25    19    20    1
    26    20    23    1
    27     2    25    1
    28     3    26    1
    29     4    27    1
    30     5    28    1
    31     6    29    1
    32     7    30    1
    33     8    31    1
    34     9    32    1
    35    10    33    1
    36    11    34    1
    37    19    35    1
    38    19    36    1
    39    19    37    1
    40    20    38    1
    41    20    39    1
