@<TRIPOS>MOLECULE
AO-476/15509074
 45 48 0 0 0
SMALL
USER_CHARGES

@<TRIPOS>ATOM
      1 C           1.6912    3.6735   -2.2521 C.1     1  LIG1        0.0874
      2 C          -0.7141    1.4540    1.4377 C.1     1  LIG1        0.0704
      3 C           4.9777   -2.9567    2.6977 C.ar    1  LIG1       -0.0985
      4 C           4.2673   -1.7619    2.8140 C.ar    1  LIG1       -0.0896
      5 C           5.7483   -3.2022    1.5612 C.ar    1  LIG1       -0.0893
      6 C           5.0455    4.4744   -3.1839 C.ar    1  LIG1       -0.0528
      7 C           4.1322    2.8607   -4.7328 C.ar    1  LIG1       -0.0534
      8 C           4.3274   -0.8127    1.7937 C.ar    1  LIG1       -0.0518
      9 C           5.8083   -2.2530    0.5409 C.ar    1  LIG1       -0.0511
     10 C           5.5238    5.2306   -4.2539 C.ar    1  LIG1       -0.0351
     11 C           4.6106    3.6170   -5.8028 C.ar    1  LIG1       -0.0351
     12 C           2.5913    2.6768   -1.7490 C.ar    1  LIG1        0.1705
     13 C           4.6737    1.5113   -1.7637 C.ar    1  LIG1        0.0509
     14 C           4.3497    3.2894   -3.4233 C.ar    1  LIG1       -0.0274
     15 C           3.8546    2.5046   -2.3148 C.ar    1  LIG1        0.0299
     16 C           5.0979   -1.0582    0.6572 C.ar    1  LIG1        0.0054
     17 C           5.3064    4.8020   -5.5633 C.ar    1  LIG1        0.0721
     18 C           5.9628    0.9825   -1.9733 C.ar    1  LIG1        0.0139
     19 C           4.1747    0.7736   -0.7014 C.ar    1  LIG1        0.0722
     20 C           2.2151    1.8661   -0.6832 C.ar    1  LIG1        0.1505
     21 C           6.9618    1.3827   -2.9810 C.3     1  LIG1        0.0082
     22 C           0.6413    1.1783    0.9617 C.3     1  LIG1        0.1780
     23 N           0.9629    4.4801   -2.6594 N.1     1  LIG1       -0.3570
     24 N          -1.7890    1.6721    1.8160 N.1     1  LIG1       -0.3624
     25 N           6.2626   -0.0046   -1.1225 N.ar    1  LIG1       -0.2913
     26 N           2.9702    0.8940   -0.1165 N.ar    1  LIG1       -0.3023
     27 N           5.1576   -0.1088   -0.3623 N.ar    1  LIG1       -0.2420
     28 N           5.7916    5.5736   -6.6518 N.pl3   1  LIG1       -0.0459
     29 O           6.4132    6.6373   -6.4139 O.2     1  LIG1       -0.1530
     30 O           5.5858    5.1708   -7.8223 O.2     1  LIG1       -0.2446
     31 O           0.9704    2.0340   -0.1232 O.3     1  LIG1       -0.3036
     32 H           4.9326   -3.6953    3.4926 H       1  LIG1        0.1232
     33 H           3.6684   -1.5700    3.6994 H       1  LIG1        0.1296
     34 H           6.3022   -4.1322    1.4721 H       1  LIG1        0.1289
     35 H           5.2230    4.8220   -2.1688 H       1  LIG1        0.1567
     36 H           3.5914    1.9393   -4.9356 H       1  LIG1        0.1538
     37 H           3.7695    0.1148    1.8973 H       1  LIG1        0.1379
     38 H           6.4134   -2.4568   -0.3392 H       1  LIG1        0.1388
     39 H           6.0651    6.1520   -4.0532 H       1  LIG1        0.1708
     40 H           4.4347    3.2715   -6.8185 H       1  LIG1        0.1704
     41 H           7.6212    2.1783   -2.5951 H       1  LIG1        0.0909
     42 H           7.6027    0.5382   -3.2890 H       1  LIG1        0.0885
     43 H           6.4909    1.7591   -3.9061 H       1  LIG1        0.0834
     44 H           1.3714    1.3502    1.7581 H       1  LIG1        0.2022
     45 H           0.7427    0.1409    0.6289 H       1  LIG1        0.2013
@<TRIPOS>BOND
     1     1    12    1
     2     1    23    3
     3     2    22    1
     4     2    24    3
     5     3     4   ar
     6     3     5   ar
     7     4     8   ar
     8     5     9   ar
     9     6    10   ar
    10     6    14   ar
    11     7    11   ar
    12     7    14   ar
    13     8    16   ar
    14     9    16   ar
    15    10    17   ar
    16    11    17   ar
    17    12    15   ar
    18    12    20   ar
    19    13    15   ar
    20    13    18   ar
    21    13    19   ar
    22    14    15    1
    23    16    27    1
    24    17    28    1
    25    18    21    1
    26    18    25   ar
    27    19    26   ar
    28    19    27   ar
    29    20    26   ar
    30    20    31    1
    31    22    31    1
    32    25    27   ar
    33    28    29    1
    34    28    30    2
    35     3    32    1
    36     4    33    1
    37     5    34    1
    38     6    35    1
    39     7    36    1
    40     8    37    1
    41     9    38    1
    42    10    39    1
    43    11    40    1
    44    21    41    1
    45    21    42    1
    46    21    43    1
    47    22    44    1
    48    22    45    1
