@<TRIPOS>MOLECULE
AG-690/40749446
 42 44 0 0 0
SMALL
USER_CHARGES

@<TRIPOS>ATOM
      1 C           6.2898    1.2453   -2.4419 C.1     1  LIG1        0.0761
      2 C          -1.2705    2.1496    1.0920 C.ar    1  LIG1       -0.1030
      3 C          -0.3910    3.2322    1.0763 C.ar    1  LIG1       -0.0990
      4 C          -0.9026    0.9435    0.4958 C.ar    1  LIG1       -0.0968
      5 C           0.8563    3.1086    0.4642 C.ar    1  LIG1       -0.0792
      6 C           0.3447    0.8199   -0.1163 C.ar    1  LIG1       -0.0749
      7 C           5.1611    4.4752   -3.2536 C.ar    1  LIG1       -0.0756
      8 C           4.2468    2.8627   -4.8031 C.ar    1  LIG1       -0.0742
      9 C           5.5320    5.2917   -4.3220 C.ar    1  LIG1       -0.0662
     10 C           4.6175    3.6791   -5.8715 C.ar    1  LIG1       -0.0660
     11 C           2.8742    2.5906   -1.8260 C.ar    1  LIG1       -0.0187
     12 C           4.9854    1.4398   -1.8748 C.ar    1  LIG1        0.1157
     13 C           4.5186    3.2607   -3.4941 C.ar    1  LIG1       -0.0529
     14 C           1.2241    1.9024   -0.1320 C.ar    1  LIG1       -0.0320
     15 C           4.1345    2.4135   -2.3858 C.ar    1  LIG1       -0.0068
     16 C           5.2601    4.8937   -5.6309 C.ar    1  LIG1       -0.0111
     17 C           2.5151    1.7749   -0.7652 C.ar    1  LIG1       -0.0021
     18 C           4.5319    0.6756   -0.8117 C.ar    1  LIG1        0.0580
     19 C           3.3449   -2.0910    0.5762 C.3     1  LIG1       -0.0520
     20 C           5.1635   -1.8922    2.3065 C.3     1  LIG1       -0.0503
     21 C           4.3928   -1.1787    1.2022 C.3     1  LIG1       -0.0098
     22 N           7.3443    1.0882   -2.9003 N.1     1  LIG1       -0.3588
     23 N           3.3145    0.8185   -0.2417 N.ar    1  LIG1       -0.3580
     24 S           5.5394   -0.6070   -0.0685 S.3     1  LIG1       -0.1256
     25 CL          5.7192    5.9009   -6.9488 Cl      1  LIG1       -0.1373
     26 H          -2.2409    2.2456    1.5701 H       1  LIG1        0.1216
     27 H          -0.6765    4.1709    1.5419 H       1  LIG1        0.1200
     28 H          -1.5863    0.0997    0.5089 H       1  LIG1        0.1191
     29 H           1.5309    3.9616    0.4605 H       1  LIG1        0.1295
     30 H           0.6179   -0.1267   -0.5765 H       1  LIG1        0.1387
     31 H           5.3801    4.7991   -2.2389 H       1  LIG1        0.1352
     32 H           3.7473    1.9184   -5.0069 H       1  LIG1        0.1417
     33 H           6.0337    6.2348   -4.1204 H       1  LIG1        0.1380
     34 H           4.4004    3.3558   -6.8865 H       1  LIG1        0.1386
     35 H           2.1904    3.3447   -2.2064 H       1  LIG1        0.1505
     36 H           3.8210   -2.9812    0.1500 H       1  LIG1        0.0385
     37 H           2.6193   -2.4351    1.3218 H       1  LIG1        0.0424
     38 H           2.7981   -1.5917   -0.2318 H       1  LIG1        0.0516
     39 H           5.6675   -2.7794    1.9069 H       1  LIG1        0.0445
     40 H           4.4943   -2.2300    3.1056 H       1  LIG1        0.0536
     41 H           5.9321   -1.2489    2.7500 H       1  LIG1        0.0444
     42 H           3.8974   -0.2965    1.6216 H       1  LIG1        0.0923
@<TRIPOS>BOND
     1     1    12    1
     2     1    22    3
     3     2     3   ar
     4     2     4   ar
     5     3     5   ar
     6     4     6   ar
     7     5    14   ar
     8     6    14   ar
     9     7     9   ar
    10     7    13   ar
    11     8    10   ar
    12     8    13   ar
    13     9    16   ar
    14    10    16   ar
    15    11    15   ar
    16    11    17   ar
    17    12    15   ar
    18    12    18   ar
    19    13    15    1
    20    14    17    1
    21    16    25    1
    22    17    23   ar
    23    18    23   ar
    24    18    24    1
    25    19    21    1
    26    20    21    1
    27    21    24    1
    28     2    26    1
    29     3    27    1
    30     4    28    1
    31     5    29    1
    32     6    30    1
    33     7    31    1
    34     8    32    1
    35     9    33    1
    36    10    34    1
    37    11    35    1
    38    19    36    1
    39    19    37    1
    40    19    38    1
    41    20    39    1
    42    20    40    1
    43    20    41    1
    44    21    42    1
