@<TRIPOS>MOLECULE
AO-476/43421045
 47 50 0 0 0
SMALL
USER_CHARGES

@<TRIPOS>ATOM
      1 C           5.4471   -3.3731    2.8548 C.ar    1  LIG1       -0.0961
      2 C           5.4456   -3.6202    1.4820 C.ar    1  LIG1       -0.0892
      3 C           5.1505   -2.0971    3.3341 C.ar    1  LIG1       -0.0869
      4 C           5.1476   -2.5914    0.5885 C.ar    1  LIG1       -0.0548
      5 C           4.8525   -1.0683    2.4406 C.ar    1  LIG1       -0.0513
      6 C           4.6515    1.1773   -1.4065 C.ar    1  LIG1        0.0149
      7 C           3.3808    1.2479   -0.7281 C.ar    1  LIG1        0.0855
      8 C           4.8511   -1.3153    1.0678 C.ar    1  LIG1       -0.0021
      9 C           5.0606    1.9676   -2.4699 C.ar    1  LIG1       -0.0053
     10 C           5.3760    0.1882   -0.8071 C.ar    1  LIG1       -0.0136
     11 C           2.4190    2.1847   -1.1329 C.ar    1  LIG1        0.0953
     12 C          -0.3904    3.7237    0.7683 C.3     1  LIG1       -0.0474
     13 C          -1.2031    1.6478   -0.3678 C.3     1  LIG1       -0.0461
     14 C           1.0520    3.2451    0.6054 C.3     1  LIG1       -0.0202
     15 C           0.2414    1.1735   -0.5315 C.3     1  LIG1       -0.0195
     16 C          -1.3986    2.5710    0.8395 C.3     1  LIG1       -0.0678
     17 C           6.3504    1.9424   -3.2038 C.3     1  LIG1       -0.0012
     18 C           6.7306   -0.3489   -1.0504 C.3     1  LIG1        0.0036
     19 C          -1.3094    1.8100    2.1639 C.3     1  LIG1       -0.0710
     20 N           3.3531    0.3244    0.2481 N.ar    1  LIG1       -0.2941
     21 N           4.1080    2.8651   -2.8388 N.ar    1  LIG1       -0.2981
     22 N           2.8072    2.9694   -2.1779 N.ar    1  LIG1       -0.2604
     23 N           4.5528   -0.2863    0.1730 N.ar    1  LIG1       -0.2789
     24 N           1.1639    2.3136   -0.5253 N.pl3   1  LIG1       -0.3642
     25 H           5.6773   -4.1741    3.5510 H       1  LIG1        0.1273
     26 H           5.6751   -4.6139    1.1087 H       1  LIG1        0.1318
     27 H           5.1505   -1.9059    4.4033 H       1  LIG1        0.1312
     28 H           5.1492   -2.7976   -0.4790 H       1  LIG1        0.1360
     29 H           4.6224   -0.0786    2.8278 H       1  LIG1        0.1404
     30 H          -0.4643    4.3340    1.6850 H       1  LIG1        0.0512
     31 H          -0.6449    4.3957   -0.0674 H       1  LIG1        0.0589
     32 H          -1.5212    2.1613   -1.2910 H       1  LIG1        0.0525
     33 H          -1.8612    0.7658   -0.2685 H       1  LIG1        0.0600
     34 H           1.7143    4.1057    0.4448 H       1  LIG1        0.1230
     35 H           1.3667    2.7534    1.5344 H       1  LIG1        0.0972
     36 H           0.4794    0.4863    0.2908 H       1  LIG1        0.0992
     37 H           0.3450    0.6137   -1.4706 H       1  LIG1        0.1238
     38 H          -2.4205    3.0073    0.7738 H       1  LIG1        0.0504
     39 H           6.2998    1.2496   -4.0559 H       1  LIG1        0.0771
     40 H           6.6179    2.9382   -3.5882 H       1  LIG1        0.0733
     41 H           7.1805    1.6259   -2.5544 H       1  LIG1        0.0790
     42 H           7.4840    0.1926   -0.4561 H       1  LIG1        0.0884
     43 H           6.8030   -1.4184   -0.7910 H       1  LIG1        0.0792
     44 H           7.0205   -0.2716   -2.1118 H       1  LIG1        0.0921
     45 H          -0.3210    1.3654    2.2688 H       1  LIG1        0.0323
     46 H          -2.0593    1.0208    2.1878 H       1  LIG1        0.0334
     47 H          -1.4834    2.4922    2.9947 H       1  LIG1        0.0314
@<TRIPOS>BOND
     1     1     2   ar
     2     1     3   ar
     3     2     4   ar
     4     3     5   ar
     5     4     8   ar
     6     5     8   ar
     7     6     7   ar
     8     6     9   ar
     9     6    10   ar
    10     7    11   ar
    11     7    20   ar
    12     8    23    1
    13     9    17    1
    14     9    21   ar
    15    10    18    1
    16    10    23   ar
    17    11    22   ar
    18    11    24    1
    19    12    14    1
    20    12    16    1
    21    13    15    1
    22    13    16    1
    23    14    24    1
    24    15    24    1
    25    16    19    1
    26    20    23   ar
    27    21    22   ar
    28     1    25    1
    29     2    26    1
    30     3    27    1
    31     4    28    1
    32     5    29    1
    33    12    30    1
    34    12    31    1
    35    13    32    1
    36    13    33    1
    37    14    34    1
    38    14    35    1
    39    15    36    1
    40    15    37    1
    41    16    38    1
    42    17    39    1
    43    17    40    1
    44    17    41    1
    45    18    42    1
    46    18    43    1
    47    18    44    1
    48    19    45    1
    49    19    46    1
    50    19    47    1
