@<TRIPOS>MOLECULE
AG-205/37022139
 35 37 0 0 0
SMALL
USER_CHARGES

@<TRIPOS>ATOM
      1 C           5.3932   -3.1144    2.7454 C.1     1  LIG1       -0.1809
      2 C           4.9312   -2.2333    2.0732 C.1     1  LIG1       -0.1956
      3 C           6.2697    1.2742   -2.3737 C.1     1  LIG1        0.0778
      4 C          -0.9674    1.3930    0.6571 C.ar    1  LIG1       -0.1018
      5 C           5.0997    4.4805   -3.2229 C.ar    1  LIG1       -0.0752
      6 C           4.2347    2.8424   -4.7739 C.ar    1  LIG1       -0.0738
      7 C           5.4718    5.2958   -4.2917 C.ar    1  LIG1       -0.0657
      8 C           4.6069    3.6577   -5.8427 C.ar    1  LIG1       -0.0654
      9 C           0.1833    0.8981   -0.0220 C.ar    1  LIG1       -0.0833
     10 C           2.8243    2.5675   -1.8150 C.ar    1  LIG1       -0.0108
     11 C          -0.8193    2.7095    1.0344 C.ar    1  LIG1       -0.0420
     12 C           4.9546    1.4512   -1.8260 C.ar    1  LIG1        0.1187
     13 C           4.4810    3.2537   -3.4640 C.ar    1  LIG1       -0.0516
     14 C           4.0955    2.4077   -2.3554 C.ar    1  LIG1       -0.0027
     15 C           5.2255    4.8845   -5.6015 C.ar    1  LIG1       -0.0105
     16 C           2.4634    1.7525   -0.7543 C.ar    1  LIG1        0.0092
     17 C           1.1671    1.8555   -0.1380 C.ar    1  LIG1        0.0148
     18 C           4.4983    0.6861   -0.7647 C.ar    1  LIG1        0.0691
     19 C           4.3603   -1.1585    1.2580 C.3     1  LIG1        0.0600
     20 N           7.3329    1.1313   -2.8164 N.1     1  LIG1       -0.3560
     21 N           3.2705    0.8125   -0.2133 N.ar    1  LIG1       -0.3517
     22 S           0.7022    3.3436    0.5701 S.2     1  LIG1       -0.1149
     23 S           5.5154   -0.5764   -0.0002 S.3     1  LIG1       -0.0850
     24 CL          5.6865    5.8904   -6.9198 Cl      1  LIG1       -0.1366
     25 H           5.8035   -3.8956    3.3414 H       1  LIG1        0.2403
     26 H          -1.8589    0.8134    0.8583 H       1  LIG1        0.1168
     27 H           5.2985    4.8149   -2.2076 H       1  LIG1        0.1360
     28 H           3.7542    1.8884   -4.9781 H       1  LIG1        0.1424
     29 H           5.9549    6.2486   -4.0896 H       1  LIG1        0.1386
     30 H           4.4098    3.3239   -6.8583 H       1  LIG1        0.1393
     31 H           0.2761   -0.1110   -0.4045 H       1  LIG1        0.1355
     32 H           2.1335    3.3076   -2.2098 H       1  LIG1        0.1533
     33 H          -1.5319    3.3295    1.5598 H       1  LIG1        0.1736
     34 H           4.0820   -0.3090    1.8891 H       1  LIG1        0.1391
     35 H           3.4534   -1.5072    0.7540 H       1  LIG1        0.1391
@<TRIPOS>BOND
     1     1     2    3
     2     2    19    1
     3     3    12    1
     4     3    20    3
     5     4     9   ar
     6     4    11   ar
     7     5     7   ar
     8     5    13   ar
     9     6     8   ar
    10     6    13   ar
    11     7    15   ar
    12     8    15   ar
    13     9    17   ar
    14    10    14   ar
    15    10    16   ar
    16    11    22   ar
    17    12    14   ar
    18    12    18   ar
    19    13    14    1
    20    15    24    1
    21    16    17    1
    22    16    21   ar
    23    17    22   ar
    24    18    21   ar
    25    18    23    1
    26    19    23    1
    27     1    25    1
    28     4    26    1
    29     5    27    1
    30     6    28    1
    31     7    29    1
    32     8    30    1
    33     9    31    1
    34    10    32    1
    35    11    33    1
    36    19    34    1
    37    19    35    1
