@<TRIPOS>MOLECULE
AG-690/40082566
 45 48 0 0 0
SMALL
USER_CHARGES

@<TRIPOS>ATOM
      1 C          -1.1905    2.0659    1.2186 C.ar    1  LIG1       -0.1055
      2 C           5.2998    4.9908   -5.7141 C.ar    1  LIG1       -0.1001
      3 C          -0.8353    0.9502    0.4607 C.ar    1  LIG1       -0.0932
      4 C          -0.3793    3.2007    1.2119 C.ar    1  LIG1       -0.1008
      5 C           5.6426    3.6460   -5.5739 C.ar    1  LIG1       -0.0936
      6 C           4.4274    5.5868   -4.8034 C.ar    1  LIG1       -0.0902
      7 C           0.3312    0.9692   -0.3040 C.ar    1  LIG1       -0.0641
      8 C           0.7871    3.2196    0.4473 C.ar    1  LIG1       -0.0745
      9 C           4.3633   -2.3280    3.3133 C.ar    1  LIG1       -0.0957
     10 C           5.7332   -3.5199    1.7197 C.ar    1  LIG1       -0.1036
     11 C           4.2930   -1.2421    2.4406 C.ar    1  LIG1       -0.0688
     12 C           5.6628   -2.4341    0.8470 C.ar    1  LIG1       -0.0797
     13 C           5.1129    2.8971   -4.5230 C.ar    1  LIG1       -0.0582
     14 C           3.8977    4.8379   -3.7526 C.ar    1  LIG1       -0.0522
     15 C           4.3228    1.6896   -1.9515 C.ar    1  LIG1        0.0059
     16 C           1.1424    2.1039   -0.3108 C.ar    1  LIG1       -0.0184
     17 C           3.4487    1.2593   -0.9833 C.ar    1  LIG1        0.0272
     18 C           5.0834   -3.4668    2.9528 C.ar    1  LIG1       -0.1182
     19 C           4.9427   -1.2952    1.2075 C.ar    1  LIG1       -0.0488
     20 C           4.2404    3.4931   -3.6124 C.ar    1  LIG1       -0.0085
     21 C           2.3434    2.1236   -1.0978 C.ar    1  LIG1        0.0351
     22 C           3.6757    0.1646   -0.0879 C.2     1  LIG1       -0.0084
     23 C           5.1596   -4.6276    3.8862 C.3     1  LIG1       -0.0452
     24 N           2.4988    3.0342   -2.0626 N.ar    1  LIG1       -0.3046
     25 N           4.8704   -0.2017    0.3278 N.2     1  LIG1       -0.3869
     26 N           3.7118    2.7445   -2.5630 N.ar    1  LIG1       -0.2848
     27 H          -2.0992    2.0517    1.8132 H       1  LIG1        0.1161
     28 H           5.7133    5.5747   -6.5311 H       1  LIG1        0.1206
     29 H          -1.4673    0.0670    0.4647 H       1  LIG1        0.1150
     30 H          -0.6568    4.0697    1.8011 H       1  LIG1        0.1137
     31 H           6.3229    3.1821   -6.2820 H       1  LIG1        0.1300
     32 H           4.1620    6.6344   -4.9125 H       1  LIG1        0.1298
     33 H           0.5946    0.0914   -0.8896 H       1  LIG1        0.1401
     34 H           1.4087    4.1120    0.4527 H       1  LIG1        0.1259
     35 H           3.8544   -2.2779    4.2722 H       1  LIG1        0.1218
     36 H           6.2976   -4.4028    1.4313 H       1  LIG1        0.1176
     37 H           3.7301   -0.3583    2.7303 H       1  LIG1        0.1318
     38 H           6.1723   -2.4846   -0.1116 H       1  LIG1        0.1148
     39 H           5.3889    1.8500   -4.4247 H       1  LIG1        0.1290
     40 H           3.2193    5.3151   -3.0495 H       1  LIG1        0.1411
     41 H           5.3037    1.3400   -2.2468 H       1  LIG1        0.2287
     42 H           2.7880   -0.4190    0.2829 H       1  LIG1        0.1992
     43 H           4.3337   -5.3243    3.6976 H       1  LIG1        0.0556
     44 H           6.1064   -5.1710    3.7698 H       1  LIG1        0.0530
     45 H           5.1074   -4.3013    4.9331 H       1  LIG1        0.0523
@<TRIPOS>BOND
     1     1     3   ar
     2     1     4   ar
     3     2     5   ar
     4     2     6   ar
     5     3     7   ar
     6     4     8   ar
     7     5    13   ar
     8     6    14   ar
     9     7    16   ar
    10     8    16   ar
    11     9    11   ar
    12     9    18   ar
    13    10    12   ar
    14    10    18   ar
    15    11    19   ar
    16    12    19   ar
    17    13    20   ar
    18    14    20   ar
    19    15    17   ar
    20    15    26   ar
    21    16    21    1
    22    17    21   ar
    23    17    22    1
    24    18    23    1
    25    19    25    1
    26    20    26    1
    27    21    24   ar
    28    22    25    2
    29    24    26   ar
    30     1    27    1
    31     2    28    1
    32     3    29    1
    33     4    30    1
    34     5    31    1
    35     6    32    1
    36     7    33    1
    37     8    34    1
    38     9    35    1
    39    10    36    1
    40    11    37    1
    41    12    38    1
    42    13    39    1
    43    14    40    1
    44    15    41    1
    45    22    42    1
    46    23    43    1
    47    23    44    1
    48    23    45    1
