@<TRIPOS>MOLECULE
AG-690/40749963
 48 50 0 0 0
SMALL
USER_CHARGES

@<TRIPOS>ATOM
      1 C           6.2891    1.2436   -2.4405 C.1     1  LIG1        0.0757
      2 C           0.5833    3.1408   -0.0964 C.ar    1  LIG1       -0.0736
      3 C           0.6163    0.7868    0.4465 C.ar    1  LIG1       -0.0780
      4 C           5.1625    4.4766   -3.2559 C.ar    1  LIG1       -0.0756
      5 C           4.2478    2.8643   -4.8054 C.ar    1  LIG1       -0.0743
      6 C          -0.6642    3.2644    0.5152 C.ar    1  LIG1       -0.0951
      7 C          -0.6312    0.9104    1.0581 C.ar    1  LIG1       -0.0975
      8 C           5.5335    5.2930   -4.3243 C.ar    1  LIG1       -0.0662
      9 C           4.6187    3.6807   -5.8738 C.ar    1  LIG1       -0.0660
     10 C           2.8737    2.5898   -1.8246 C.ar    1  LIG1       -0.0189
     11 C           4.9848    1.4384   -1.8734 C.ar    1  LIG1        0.1147
     12 C           4.5197    3.2623   -3.4964 C.ar    1  LIG1       -0.0529
     13 C           1.2236    1.9020   -0.1307 C.ar    1  LIG1       -0.0314
     14 C           4.1341    2.4124   -2.3844 C.ar    1  LIG1       -0.0072
     15 C          -1.2714    2.1492    1.0925 C.ar    1  LIG1       -0.1147
     16 C           5.2616    4.8951   -5.6333 C.ar    1  LIG1       -0.0111
     17 C           2.5145    1.7741   -0.7638 C.ar    1  LIG1       -0.0032
     18 C           4.5311    0.6744   -0.8102 C.ar    1  LIG1        0.0565
     19 C          -2.6054    2.2813    1.7461 C.3     1  LIG1       -0.0414
     20 C           5.7748   -3.4424    1.5451 C.3     1  LIG1       -0.0672
     21 C           4.6951   -1.6858    2.9863 C.3     1  LIG1       -0.0682
     22 C           4.2137   -1.7246    0.4771 C.3     1  LIG1        0.0011
     23 C           4.5461   -2.5498    1.7322 C.3     1  LIG1       -0.0632
     24 N           7.3435    1.0861   -2.8989 N.1     1  LIG1       -0.3592
     25 N           3.3136    0.8176   -0.2403 N.ar    1  LIG1       -0.3600
     26 S           5.5233   -0.5893   -0.0781 S.3     1  LIG1       -0.1231
     27 CL          5.7210    5.9023   -6.9511 Cl      1  LIG1       -0.1374
     28 H           1.0434    4.0193   -0.5424 H       1  LIG1        0.1396
     29 H           1.1029   -0.1855    0.4284 H       1  LIG1        0.1309
     30 H           5.3815    4.8006   -2.2412 H       1  LIG1        0.1352
     31 H           3.7482    1.9201   -5.0092 H       1  LIG1        0.1416
     32 H          -1.1563    4.2332    0.5364 H       1  LIG1        0.1198
     33 H          -1.0969    0.0364    1.5059 H       1  LIG1        0.1207
     34 H           6.0356    6.2360   -4.1227 H       1  LIG1        0.1380
     35 H           4.4016    3.3575   -6.8888 H       1  LIG1        0.1386
     36 H           2.1903    3.3440   -2.2051 H       1  LIG1        0.1501
     37 H          -3.4067    2.1022    1.0188 H       1  LIG1        0.0589
     38 H          -2.7178    1.5654    2.5708 H       1  LIG1        0.0551
     39 H          -2.7418    3.2829    2.1745 H       1  LIG1        0.0550
     40 H           6.6838   -2.8588    1.3684 H       1  LIG1        0.0367
     41 H           5.9439   -4.0524    2.4391 H       1  LIG1        0.0394
     42 H           5.6354   -4.1242    0.6996 H       1  LIG1        0.0364
     43 H           5.5321   -0.9851    2.9058 H       1  LIG1        0.0356
     44 H           4.8760   -2.3150    3.8647 H       1  LIG1        0.0359
     45 H           3.7826   -1.1098    3.1727 H       1  LIG1        0.0348
     46 H           3.9864   -2.3987   -0.3560 H       1  LIG1        0.0887
     47 H           3.3139   -1.1266    0.6586 H       1  LIG1        0.0888
     48 H           3.6894   -3.2159    1.9022 H       1  LIG1        0.0576
@<TRIPOS>BOND
     1     1    11    1
     2     1    24    3
     3     2     6   ar
     4     2    13   ar
     5     3     7   ar
     6     3    13   ar
     7     4     8   ar
     8     4    12   ar
     9     5     9   ar
    10     5    12   ar
    11     6    15   ar
    12     7    15   ar
    13     8    16   ar
    14     9    16   ar
    15    10    14   ar
    16    10    17   ar
    17    11    14   ar
    18    11    18   ar
    19    12    14    1
    20    13    17    1
    21    15    19    1
    22    16    27    1
    23    17    25   ar
    24    18    25   ar
    25    18    26    1
    26    20    23    1
    27    21    23    1
    28    22    23    1
    29    22    26    1
    30     2    28    1
    31     3    29    1
    32     4    30    1
    33     5    31    1
    34     6    32    1
    35     7    33    1
    36     8    34    1
    37     9    35    1
    38    10    36    1
    39    19    37    1
    40    19    38    1
    41    19    39    1
    42    20    40    1
    43    20    41    1
    44    20    42    1
    45    21    43    1
    46    21    44    1
    47    21    45    1
    48    22    46    1
    49    22    47    1
    50    23    48    1
