@<TRIPOS>MOLECULE
AK-968/11986551
 54 57 0 0 0
SMALL
USER_CHARGES

@<TRIPOS>ATOM
      1 C           4.4943   -1.6143    3.1622 C.ar    1  LIG1       -0.0902
      2 C           4.4951   -3.0031    3.0327 C.ar    1  LIG1       -0.0865
      3 C           4.8963   -0.8139    2.0928 C.ar    1  LIG1       -0.0761
      4 C          -0.8729    1.2158   -0.0670 C.ar    1  LIG1       -0.0886
      5 C           0.1156    2.6824    1.5790 C.ar    1  LIG1       -0.0957
      6 C           4.2603    3.6627   -5.6381 C.ar    1  LIG1       -0.0862
      7 C           5.1924    5.2580   -4.0813 C.ar    1  LIG1       -0.0867
      8 C           0.1389    1.5457   -0.9686 C.ar    1  LIG1       -0.0614
      9 C           1.1275    3.0123    0.6773 C.ar    1  LIG1       -0.0714
     10 C           4.1139    2.7387   -4.6037 C.ar    1  LIG1       -0.0576
     11 C           5.0459    4.3339   -3.0468 C.ar    1  LIG1       -0.0583
     12 C           4.8980   -3.5916    1.8340 C.ar    1  LIG1       -0.0402
     13 C           5.2993   -1.4024    0.8941 C.ar    1  LIG1       -0.0125
     14 C          -0.8846    1.7842    1.2068 C.ar    1  LIG1       -0.1109
     15 C           4.7996    4.9224   -5.3770 C.ar    1  LIG1       -0.1078
     16 C           1.1392    2.4439   -0.5965 C.ar    1  LIG1       -0.0299
     17 C           4.5067    3.0742   -3.3080 C.ar    1  LIG1       -0.0105
     18 C           5.3000   -2.7912    0.7647 C.ar    1  LIG1        0.0815
     19 C           4.9423    0.3691   -0.7747 C.2     1  LIG1        0.0973
     20 C           5.3738    1.2133   -1.9196 C.2     1  LIG1        0.1674
     21 C           3.2086    2.0272   -1.4678 C.2     1  LIG1        0.1121
     22 C           5.7175   -0.5632   -0.2178 C.2     1  LIG1       -0.0225
     23 C          -3.1692    2.3666    2.0601 C.3     1  LIG1       -0.0634
     24 C           6.3112    5.7955   -7.1769 C.3     1  LIG1       -0.0628
     25 C          -1.9669    1.4326    2.1707 C.3     1  LIG1       -0.0487
     26 C           4.9562    5.9103   -6.4833 C.3     1  LIG1       -0.0469
     27 N           2.1599    2.7750   -1.5051 N.2     1  LIG1       -0.3329
     28 N           4.3556    2.1222   -2.2414 N.am    1  LIG1       -0.2251
     29 O           6.4493    1.0380   -2.4786 O.2     1  LIG1       -0.4343
     30 F           5.6846   -3.3721   -0.3814 F       1  LIG1       -0.2554
     31 S           3.3419    0.7436   -0.2929 S.3     1  LIG1       -0.0309
     32 H           4.1809   -1.1561    4.0961 H       1  LIG1        0.1291
     33 H           4.1821   -3.6265    3.8652 H       1  LIG1        0.1405
     34 H           4.8906    0.2670    2.2099 H       1  LIG1        0.1451
     35 H          -1.6485    0.5155   -0.3653 H       1  LIG1        0.1270
     36 H           0.1137    3.1310    2.5688 H       1  LIG1        0.1245
     37 H           3.9538    3.3920   -6.6451 H       1  LIG1        0.1273
     38 H           5.6142    6.2369   -3.8690 H       1  LIG1        0.1271
     39 H           0.1395    1.0984   -1.9594 H       1  LIG1        0.1376
     40 H           1.9027    3.7130    0.9761 H       1  LIG1        0.1237
     41 H           3.6921    1.7601   -4.8185 H       1  LIG1        0.1349
     42 H           5.3562    4.6055   -2.0409 H       1  LIG1        0.1335
     43 H           4.8987   -4.6729    1.7327 H       1  LIG1        0.1370
     44 H           6.7229   -0.6979   -0.5813 H       1  LIG1        0.1921
     45 H          -2.8719    3.4095    2.2141 H       1  LIG1        0.0338
     46 H          -3.9255    2.1153    2.8102 H       1  LIG1        0.0364
     47 H          -3.6344    2.2924    1.0712 H       1  LIG1        0.0341
     48 H           7.1308    5.9207   -6.4610 H       1  LIG1        0.0343
     49 H           6.4167    6.5625   -7.9504 H       1  LIG1        0.0345
     50 H           6.4272    4.8157   -7.6525 H       1  LIG1        0.0370
     51 H          -2.3014    0.3949    2.0108 H       1  LIG1        0.0610
     52 H          -1.5845    1.4591    3.2040 H       1  LIG1        0.0612
     53 H           4.1572    5.7798   -7.2307 H       1  LIG1        0.0624
     54 H           4.8330    6.9367   -6.1018 H       1  LIG1        0.0623
@<TRIPOS>BOND
     1     1     2   ar
     2     1     3   ar
     3     2    12   ar
     4     3    13   ar
     5     4     8   ar
     6     4    14   ar
     7     5     9   ar
     8     5    14   ar
     9     6    10   ar
    10     6    15   ar
    11     7    11   ar
    12     7    15   ar
    13     8    16   ar
    14     9    16   ar
    15    10    17   ar
    16    11    17   ar
    17    12    18   ar
    18    13    18   ar
    19    13    22    1
    20    14    25    1
    21    15    26    1
    22    16    27    1
    23    17    28    1
    24    18    30    1
    25    19    20    1
    26    19    22    2
    27    19    31    1
    28    20    28   am
    29    20    29    2
    30    21    27    2
    31    21    28    1
    32    21    31    1
    33    23    25    1
    34    24    26    1
    35     1    32    1
    36     2    33    1
    37     3    34    1
    38     4    35    1
    39     5    36    1
    40     6    37    1
    41     7    38    1
    42     8    39    1
    43     9    40    1
    44    10    41    1
    45    11    42    1
    46    12    43    1
    47    22    44    1
    48    23    45    1
    49    23    46    1
    50    23    47    1
    51    24    48    1
    52    24    49    1
    53    24    50    1
    54    25    51    1
    55    25    52    1
    56    26    53    1
    57    26    54    1
