@<TRIPOS>MOLECULE
AG-205/14141010
 50 54 0 0 0
SMALL
USER_CHARGES

@<TRIPOS>ATOM
      1 C           5.0937   -3.2988    2.9803 C.ar    1  LIG1       -0.1021
      2 C          -0.8479   -1.6746   -0.4542 C.ar    1  LIG1       -0.1062
      3 C           5.7579   -3.4058    1.7584 C.ar    1  LIG1       -0.0979
      4 C           4.2906   -2.1890    3.2427 C.ar    1  LIG1       -0.0957
      5 C          -0.8831   -0.8385   -1.5702 C.ar    1  LIG1       -0.1039
      6 C          -0.1920   -1.2623    0.7057 C.ar    1  LIG1       -0.1040
      7 C           5.6192   -2.4028    0.7990 C.ar    1  LIG1       -0.0772
      8 C           4.1518   -1.1860    2.2833 C.ar    1  LIG1       -0.0729
      9 C           4.0962    3.0526   -4.9025 C.ar    1  LIG1       -0.0625
     10 C           5.0087    4.6621   -3.3488 C.ar    1  LIG1       -0.0637
     11 C          -0.2623    0.4097   -1.5263 C.ar    1  LIG1       -0.0962
     12 C           0.4288   -0.0139    0.7497 C.ar    1  LIG1       -0.0961
     13 C           4.6373    3.7735   -5.9670 C.ar    1  LIG1       -0.0632
     14 C           5.5500    5.3829   -4.4133 C.ar    1  LIG1       -0.0654
     15 C           5.7120    0.0084   -0.8195 C.ar    1  LIG1       -0.0110
     16 C           4.3334    1.7084   -1.7703 C.ar    1  LIG1        0.0477
     17 C           4.8161   -1.2929    1.0615 C.ar    1  LIG1       -0.0260
     18 C           4.2819    3.4970   -3.5934 C.ar    1  LIG1       -0.0209
     19 C           0.3937    0.8221   -0.3664 C.ar    1  LIG1       -0.0741
     20 C           5.5506    1.0161   -1.7704 C.ar    1  LIG1        0.0685
     21 C           5.3643    4.9385   -5.7224 C.ar    1  LIG1       -0.0117
     22 C           4.6723   -0.2535    0.0665 C.ar    1  LIG1        0.0103
     23 C           3.7230    2.7523   -2.4936 C.ar    1  LIG1        0.0460
     24 C           3.3802    1.3461   -0.8311 C.ar    1  LIG1        0.0583
     25 C           1.0638    2.1686   -0.3184 C.3     1  LIG1        0.0436
     26 C           6.6639    1.3007   -2.7237 C.3     1  LIG1        0.3660
     27 N           3.4790    0.3873    0.1062 N.ar    1  LIG1       -0.3312
     28 N           2.4906    3.0334   -2.0574 N.ar    1  LIG1       -0.2843
     29 N           2.3101    2.1632   -1.0474 N.ar    1  LIG1       -0.2685
     30 F           7.7566    0.5027   -2.5409 F       1  LIG1       -0.1815
     31 F           6.3158    1.1353   -4.0334 F       1  LIG1       -0.1774
     32 F           7.1235    2.5814   -2.6245 F       1  LIG1       -0.1766
     33 CL          6.0314    5.8292   -7.0352 Cl      1  LIG1       -0.1391
     34 H           5.2006   -4.0806    3.7264 H       1  LIG1        0.1226
     35 H          -1.3325   -2.6459   -0.4881 H       1  LIG1        0.1182
     36 H           6.3819   -4.2707    1.5533 H       1  LIG1        0.1215
     37 H           3.7719   -2.1056    4.1933 H       1  LIG1        0.1199
     38 H          -1.3947   -1.1590   -2.4731 H       1  LIG1        0.1163
     39 H          -0.1654   -1.9124    1.5751 H       1  LIG1        0.1159
     40 H           6.1433   -2.5009   -0.1488 H       1  LIG1        0.1306
     41 H           3.5219   -0.3270    2.5018 H       1  LIG1        0.1393
     42 H           3.5323    2.1462   -5.1107 H       1  LIG1        0.1428
     43 H           5.1620    5.0215   -2.3339 H       1  LIG1        0.1498
     44 H          -0.2947    1.0545   -2.4008 H       1  LIG1        0.1233
     45 H           0.9376    0.2989    1.6577 H       1  LIG1        0.1240
     46 H           4.4848    3.4154   -6.9819 H       1  LIG1        0.1374
     47 H           6.1130    6.2896   -4.2076 H       1  LIG1        0.1373
     48 H           6.6379   -0.5595   -0.7768 H       1  LIG1        0.1562
     49 H           0.4199    2.9470   -0.7456 H       1  LIG1        0.1575
     50 H           1.2727    2.4706    0.7152 H       1  LIG1        0.1569
@<TRIPOS>BOND
     1     1     3   ar
     2     1     4   ar
     3     2     5   ar
     4     2     6   ar
     5     3     7   ar
     6     4     8   ar
     7     5    11   ar
     8     6    12   ar
     9     7    17   ar
    10     8    17   ar
    11     9    13   ar
    12     9    18   ar
    13    10    14   ar
    14    10    18   ar
    15    11    19   ar
    16    12    19   ar
    17    13    21   ar
    18    14    21   ar
    19    15    20   ar
    20    15    22   ar
    21    16    20   ar
    22    16    23   ar
    23    16    24   ar
    24    17    22    1
    25    18    23    1
    26    19    25    1
    27    20    26    1
    28    21    33    1
    29    22    27   ar
    30    23    28   ar
    31    24    27   ar
    32    24    29   ar
    33    25    29    1
    34    26    30    1
    35    26    31    1
    36    26    32    1
    37    28    29   ar
    38     1    34    1
    39     2    35    1
    40     3    36    1
    41     4    37    1
    42     5    38    1
    43     6    39    1
    44     7    40    1
    45     8    41    1
    46     9    42    1
    47    10    43    1
    48    11    44    1
    49    12    45    1
    50    13    46    1
    51    14    47    1
    52    15    48    1
    53    25    49    1
    54    25    50    1
