@<TRIPOS>MOLECULE
AO-476/43421055
 44 47 0 0 0
SMALL
USER_CHARGES

@<TRIPOS>ATOM
      1 C           5.4463   -3.6204    1.4829 C.ar    1  LIG1       -0.0860
      2 C           5.1493   -2.0963    3.3339 C.ar    1  LIG1       -0.0890
      3 C           5.1486   -2.5923    0.5886 C.ar    1  LIG1       -0.0501
      4 C           4.8517   -1.0681    2.4395 C.ar    1  LIG1       -0.0544
      5 C           4.6518    1.1775   -1.4066 C.ar    1  LIG1        0.0151
      6 C           5.4466   -3.3724    2.8556 C.ar    1  LIG1       -0.1094
      7 C           3.3808    1.2474   -0.7286 C.ar    1  LIG1        0.0890
      8 C           4.8513   -1.3161    1.0668 C.ar    1  LIG1       -0.0018
      9 C           5.0610    1.9684   -2.4695 C.ar    1  LIG1       -0.0051
     10 C           5.3765    0.1883   -0.8074 C.ar    1  LIG1       -0.0140
     11 C           2.4189    2.1841   -1.1333 C.ar    1  LIG1        0.0980
     12 C          -0.9870    1.7817    0.3330 C.3     1  LIG1       -0.0387
     13 C          -0.7229    3.2552    0.5679 C.3     1  LIG1       -0.0383
     14 C           0.4130    1.2194    0.1148 C.3     1  LIG1       -0.0256
     15 C           0.3892    3.5607   -0.4290 C.3     1  LIG1       -0.0231
     16 C           5.7648   -4.4717    3.8119 C.3     1  LIG1       -0.0402
     17 C           6.3509    1.9439   -3.2031 C.3     1  LIG1       -0.0011
     18 C           6.7313   -0.3483   -1.0505 C.3     1  LIG1        0.0033
     19 N           3.3531    0.3234    0.2473 N.ar    1  LIG1       -0.2911
     20 N           4.1081    2.8656   -2.8383 N.ar    1  LIG1       -0.2970
     21 N           2.8071    2.9693   -2.1777 N.ar    1  LIG1       -0.2570
     22 N           4.5532   -0.2869    0.1723 N.ar    1  LIG1       -0.2782
     23 N           1.1568    2.3130   -0.5227 N.pl3   1  LIG1       -0.3664
     24 H           5.6768   -4.6118    1.1022 H       1  LIG1        0.1318
     25 H           5.1470   -1.8940    4.4017 H       1  LIG1        0.1324
     26 H           5.1511   -2.7992   -0.4790 H       1  LIG1        0.1423
     27 H           4.6216   -0.0784    2.8265 H       1  LIG1        0.1378
     28 H          -1.5055    1.3018    1.1675 H       1  LIG1        0.0649
     29 H          -1.5926    1.6481   -0.5714 H       1  LIG1        0.0604
     30 H          -1.6077    3.8784    0.4118 H       1  LIG1        0.0589
     31 H          -0.3659    3.4146    1.5926 H       1  LIG1        0.0666
     32 H           0.8845    0.9624    1.0700 H       1  LIG1        0.0974
     33 H           0.3834    0.3260   -0.5180 H       1  LIG1        0.0967
     34 H          -0.0255    3.8113   -1.4120 H       1  LIG1        0.0988
     35 H           1.0094    4.3944   -0.0832 H       1  LIG1        0.1095
     36 H           6.8429   -4.5041    4.0117 H       1  LIG1        0.0605
     37 H           5.2383   -4.3352    4.7655 H       1  LIG1        0.0565
     38 H           5.4551   -5.4473    3.4149 H       1  LIG1        0.0567
     39 H           6.3009    1.2514   -4.0554 H       1  LIG1        0.0773
     40 H           6.6184    2.9398   -3.5869 H       1  LIG1        0.0792
     41 H           7.1811    1.6273   -2.5535 H       1  LIG1        0.0735
     42 H           7.4842    0.1932   -0.4557 H       1  LIG1        0.0882
     43 H           6.8039   -1.4179   -0.7914 H       1  LIG1        0.0916
     44 H           7.0214   -0.2704   -2.1118 H       1  LIG1        0.0801
@<TRIPOS>BOND
     1     1     3   ar
     2     1     6   ar
     3     2     4   ar
     4     2     6   ar
     5     3     8   ar
     6     4     8   ar
     7     5     7   ar
     8     5     9   ar
     9     5    10   ar
    10     6    16    1
    11     7    11   ar
    12     7    19   ar
    13     8    22    1
    14     9    17    1
    15     9    20   ar
    16    10    18    1
    17    10    22   ar
    18    11    21   ar
    19    11    23    1
    20    12    13    1
    21    12    14    1
    22    13    15    1
    23    14    23    1
    24    15    23    1
    25    19    22   ar
    26    20    21   ar
    27     1    24    1
    28     2    25    1
    29     3    26    1
    30     4    27    1
    31    12    28    1
    32    12    29    1
    33    13    30    1
    34    13    31    1
    35    14    32    1
    36    14    33    1
    37    15    34    1
    38    15    35    1
    39    16    36    1
    40    16    37    1
    41    16    38    1
    42    17    39    1
    43    17    40    1
    44    17    41    1
    45    18    42    1
    46    18    43    1
    47    18    44    1
