@<TRIPOS>MOLECULE
AG-690/13705949
 62 66 0 0 0
SMALL
USER_CHARGES

@<TRIPOS>ATOM
      1 C          -1.2246    2.0338    1.1833 C.ar    1  LIG1       -0.1013
      2 C          -0.4758    0.8699    1.0097 C.ar    1  LIG1       -0.0910
      3 C          -0.7900    3.2333    0.6192 C.ar    1  LIG1       -0.0920
      4 C           5.0600   -2.6113    0.6599 C.ar    1  LIG1       -0.0673
      5 C           4.7432   -0.9542    2.3892 C.ar    1  LIG1       -0.0723
      6 C           0.7076    0.9054    0.2722 C.ar    1  LIG1       -0.0509
      7 C           0.3933    3.2689   -0.1185 C.ar    1  LIG1       -0.0521
      8 C           5.1636   -3.6062    1.6321 C.ar    1  LIG1       -0.0616
      9 C           4.8467   -1.9491    3.3614 C.ar    1  LIG1       -0.0654
     10 C           6.5960    1.3613   -2.7508 C.ar    1  LIG1       -0.0330
     11 C           6.9985   -0.6759   -0.8682 C.ar    1  LIG1       -0.0310
     12 C           5.5833    1.0478   -1.8237 C.ar    1  LIG1       -0.0465
     13 C           5.7804    0.0223   -0.8727 C.ar    1  LIG1       -0.0115
     14 C           4.3434    1.7289   -1.7979 C.ar    1  LIG1        0.0149
     15 C           4.8499   -1.2854    1.0384 C.ar    1  LIG1       -0.0183
     16 C           1.1422    2.1048   -0.2919 C.ar    1  LIG1        0.0037
     17 C           5.0569   -3.2750    2.9828 C.ar    1  LIG1       -0.0701
     18 C           7.7980    0.6548   -2.7282 C.ar    1  LIG1        0.0462
     19 C           7.9984   -0.3593   -1.7912 C.ar    1  LIG1        0.0446
     20 C           4.7422   -0.2500    0.0266 C.ar    1  LIG1        0.0166
     21 C           3.6941    2.7699   -2.4971 C.ar    1  LIG1       -0.0004
     22 C           3.4152    1.3412   -0.8437 C.ar    1  LIG1        0.0526
     23 C           5.1949    4.6513   -3.2000 C.3     1  LIG1       -0.0494
     24 C           5.3801   -5.6616    3.5832 C.3     1  LIG1       -0.0354
     25 C           5.0661   -3.9448    5.3728 C.3     1  LIG1       -0.0354
     26 C           8.4901    2.0130   -4.5535 C.3     1  LIG1        0.0290
     27 C           9.3016   -2.0723   -0.7797 C.3     1  LIG1        0.0255
     28 C           4.1955    3.5707   -3.6287 C.3     1  LIG1       -0.0056
     29 N           3.5424    0.3780    0.0842 N.ar    1  LIG1       -0.3367
     30 N           2.4664    3.0226   -2.0331 N.ar    1  LIG1       -0.3044
     31 N           2.3252    2.1395   -1.0293 N.ar    1  LIG1       -0.2542
     32 N           5.1616   -4.2808    3.9660 N.pl3   1  LIG1       -0.4228
     33 O           8.7723    0.9645   -3.6292 O.3     1  LIG1       -0.4000
     34 O           9.1726   -1.0511   -1.7665 O.3     1  LIG1       -0.4066
     35 H          -2.1469    2.0065    1.7560 H       1  LIG1        0.1196
     36 H          -0.8147   -0.0644    1.4477 H       1  LIG1        0.1269
     37 H          -1.3745    4.1390    0.7536 H       1  LIG1        0.1260
     38 H           5.1452   -2.8853   -0.3890 H       1  LIG1        0.1421
     39 H           4.5795    0.0749    2.7000 H       1  LIG1        0.1363
     40 H           1.2814   -0.0093    0.1438 H       1  LIG1        0.1378
     41 H           0.7200    4.2103   -0.5534 H       1  LIG1        0.1358
     42 H           5.3273   -4.6365    1.3263 H       1  LIG1        0.1168
     43 H           4.7622   -1.6797    4.4112 H       1  LIG1        0.1163
     44 H           6.4620    2.1468   -3.4884 H       1  LIG1        0.1364
     45 H           7.1920   -1.4712   -0.1519 H       1  LIG1        0.1457
     46 H           4.7528    5.3107   -2.4453 H       1  LIG1        0.0453
     47 H           5.5036    5.2679   -4.0500 H       1  LIG1        0.0382
     48 H           6.0927    4.1983   -2.7658 H       1  LIG1        0.0402
     49 H           5.4343   -6.2941    4.4731 H       1  LIG1        0.0799
     50 H           6.3167   -5.7559    3.0269 H       1  LIG1        0.0925
     51 H           4.5600   -6.0128    2.9511 H       1  LIG1        0.0938
     52 H           5.1694   -4.8463    5.9822 H       1  LIG1        0.0801
     53 H           4.0976   -3.4847    5.5865 H       1  LIG1        0.0924
     54 H           5.8566   -3.2414    5.6480 H       1  LIG1        0.0940
     55 H           9.3483    2.1582   -5.2142 H       1  LIG1        0.1249
     56 H           8.2780    2.9350   -4.0064 H       1  LIG1        0.0914
     57 H           7.6171    1.7363   -5.1494 H       1  LIG1        0.0908
     58 H          10.2829   -2.5447   -0.8692 H       1  LIG1        0.0889
     59 H           8.5131   -2.8163   -0.9187 H       1  LIG1        0.0896
     60 H           9.2051   -1.6230    0.2115 H       1  LIG1        0.1232
     61 H           4.6827    2.9293   -4.3896 H       1  LIG1        0.0895
     62 H           3.3642    4.0624   -4.1719 H       1  LIG1        0.0877
@<TRIPOS>BOND
     1     1     2   ar
     2     1     3   ar
     3     2     6   ar
     4     3     7   ar
     5     4     8   ar
     6     4    15   ar
     7     5     9   ar
     8     5    15   ar
     9     6    16   ar
    10     7    16   ar
    11     8    17   ar
    12     9    17   ar
    13    10    12   ar
    14    10    18   ar
    15    11    13   ar
    16    11    19   ar
    17    12    13   ar
    18    12    14   ar
    19    13    20   ar
    20    14    21   ar
    21    14    22   ar
    22    15    20    1
    23    16    31    1
    24    17    32    1
    25    18    19   ar
    26    18    33    1
    27    19    34    1
    28    20    29   ar
    29    21    28    1
    30    21    30   ar
    31    22    29   ar
    32    22    31   ar
    33    23    28    1
    34    24    32    1
    35    25    32    1
    36    26    33    1
    37    27    34    1
    38    30    31   ar
    39     1    35    1
    40     2    36    1
    41     3    37    1
    42     4    38    1
    43     5    39    1
    44     6    40    1
    45     7    41    1
    46     8    42    1
    47     9    43    1
    48    10    44    1
    49    11    45    1
    50    23    46    1
    51    23    47    1
    52    23    48    1
    53    24    49    1
    54    24    50    1
    55    24    51    1
    56    25    52    1
    57    25    53    1
    58    25    54    1
    59    26    55    1
    60    26    56    1
    61    26    57    1
    62    27    58    1
    63    27    59    1
    64    27    60    1
    65    28    61    1
    66    28    62    1
