@<TRIPOS>MOLECULE
AO-476/43250043
 41 44 0 0 0
SMALL
USER_CHARGES

@<TRIPOS>ATOM
      1 C           5.1478   -2.5917    0.5885 C.ar    1  LIG1       -0.0431
      2 C           4.8522   -1.0683    2.4403 C.ar    1  LIG1       -0.0381
      3 C           5.4459   -3.6202    1.4823 C.ar    1  LIG1       -0.0572
      4 C           5.1502   -2.0969    3.3341 C.ar    1  LIG1       -0.0537
      5 C           4.6516    1.1774   -1.4065 C.ar    1  LIG1        0.0189
      6 C           3.3808    1.2477   -0.7283 C.ar    1  LIG1        0.0826
      7 C           4.8510   -1.3156    1.0675 C.ar    1  LIG1        0.0062
      8 C           5.4471   -3.3728    2.8550 C.ar    1  LIG1       -0.0046
      9 C           5.0608    1.9679   -2.4697 C.ar    1  LIG1       -0.0008
     10 C           5.3761    0.1882   -0.8072 C.ar    1  LIG1       -0.0112
     11 C           2.4190    2.1845   -1.1331 C.ar    1  LIG1        0.1003
     12 C          -0.9868    1.7833    0.3338 C.3     1  LIG1       -0.0441
     13 C          -0.7224    3.2567    0.5683 C.3     1  LIG1       -0.0458
     14 C           0.4130    1.2206    0.1155 C.3     1  LIG1       -0.0197
     15 C           0.3896    3.5618   -0.4289 C.3     1  LIG1       -0.0183
     16 C           6.3506    1.9429   -3.2034 C.3     1  LIG1        0.0051
     17 C           6.7309   -0.3487   -1.0503 C.3     1  LIG1        0.0056
     18 N           3.3530    0.3240    0.2478 N.ar    1  LIG1       -0.2872
     19 N           4.1081    2.8652   -2.8386 N.ar    1  LIG1       -0.2949
     20 N           2.8072    2.9694   -2.1778 N.ar    1  LIG1       -0.2571
     21 N           4.5529   -0.2865    0.1728 N.ar    1  LIG1       -0.2729
     22 N           1.1570    2.3138   -0.5224 N.pl3   1  LIG1       -0.3572
     23 CL          5.8123   -4.6427    3.9576 Cl      1  LIG1       -0.1319
     24 H           5.1503   -2.7986   -0.4789 H       1  LIG1        0.1483
     25 H           4.6222   -0.0784    2.8271 H       1  LIG1        0.1549
     26 H           5.6758   -4.6097    1.0952 H       1  LIG1        0.1488
     27 H           5.1477   -1.8895    4.4012 H       1  LIG1        0.1486
     28 H          -1.5053    1.3037    1.1685 H       1  LIG1        0.0605
     29 H          -1.5926    1.6495   -0.5705 H       1  LIG1        0.0606
     30 H          -1.6070    3.8802    0.4121 H       1  LIG1        0.0531
     31 H          -0.3652    3.4164    1.5928 H       1  LIG1        0.0568
     32 H           0.8846    0.9638    1.0708 H       1  LIG1        0.1050
     33 H           0.3832    0.3270   -0.5170 H       1  LIG1        0.0769
     34 H          -0.0251    3.8122   -1.4119 H       1  LIG1        0.0963
     35 H           1.0101    4.3954   -0.0835 H       1  LIG1        0.0988
     36 H           6.3003    1.2502   -4.0556 H       1  LIG1        0.0831
     37 H           6.6182    2.9387   -3.5876 H       1  LIG1        0.0832
     38 H           7.1808    1.6264   -2.5539 H       1  LIG1        0.0778
     39 H           7.4840    0.1928   -0.4558 H       1  LIG1        0.0911
     40 H           6.8033   -1.4182   -0.7910 H       1  LIG1        0.0933
     41 H           7.0208   -0.2712   -2.1117 H       1  LIG1        0.0819
@<TRIPOS>BOND
     1     1     3   ar
     2     1     7   ar
     3     2     4   ar
     4     2     7   ar
     5     3     8   ar
     6     4     8   ar
     7     5     6   ar
     8     5     9   ar
     9     5    10   ar
    10     6    11   ar
    11     6    18   ar
    12     7    21    1
    13     8    23    1
    14     9    16    1
    15     9    19   ar
    16    10    17    1
    17    10    21   ar
    18    11    20   ar
    19    11    22    1
    20    12    13    1
    21    12    14    1
    22    13    15    1
    23    14    22    1
    24    15    22    1
    25    18    21   ar
    26    19    20   ar
    27     1    24    1
    28     2    25    1
    29     3    26    1
    30     4    27    1
    31    12    28    1
    32    12    29    1
    33    13    30    1
    34    13    31    1
    35    14    32    1
    36    14    33    1
    37    15    34    1
    38    15    35    1
    39    16    36    1
    40    16    37    1
    41    16    38    1
    42    17    39    1
    43    17    40    1
    44    17    41    1
