@<TRIPOS>MOLECULE
AK-968/11841141
 62 65 0 0 0
SMALL
USER_CHARGES

@<TRIPOS>ATOM
      1 C           5.3939   -2.7109    0.6439 C.ar    1  LIG1       -0.0850
      2 C           4.9684   -0.7187    1.9429 C.ar    1  LIG1       -0.0842
      3 C          -0.7309    1.3106   -0.4215 C.ar    1  LIG1       -0.0896
      4 C           0.2128    2.7872    1.2417 C.ar    1  LIG1       -0.0963
      5 C           4.5856    3.6848   -5.8505 C.ar    1  LIG1       -0.0871
      6 C           5.4762    5.2895   -4.2792 C.ar    1  LIG1       -0.0868
      7 C           0.3102    1.6279   -1.2939 C.ar    1  LIG1       -0.0619
      8 C           1.2539    3.1044    0.3693 C.ar    1  LIG1       -0.0712
      9 C           4.4025    2.7706   -4.8131 C.ar    1  LIG1       -0.0581
     10 C           5.2931    4.3753   -3.2418 C.ar    1  LIG1       -0.0577
     11 C           4.9588   -3.4986    1.7096 C.ar    1  LIG1       -0.0645
     12 C           4.5333   -1.5065    3.0086 C.ar    1  LIG1       -0.0640
     13 C           5.3987   -1.3210    0.7606 C.ar    1  LIG1       -0.0672
     14 C          -0.7796    1.8903    0.8463 C.ar    1  LIG1       -0.1118
     15 C           5.1225    4.9443   -5.5836 C.ar    1  LIG1       -0.1084
     16 C           1.3027    2.5247   -0.8985 C.ar    1  LIG1       -0.0309
     17 C           4.7562    3.1158   -3.5088 C.ar    1  LIG1       -0.0102
     18 C           4.5285   -2.8966    2.8920 C.ar    1  LIG1       -0.0682
     19 C           5.0995    0.4313   -0.9396 C.2     1  LIG1        0.0911
     20 C           5.5706    1.2633   -2.0778 C.2     1  LIG1        0.1613
     21 C           3.3962    2.0910   -1.7010 C.2     1  LIG1        0.1099
     22 C           5.8524   -0.4996   -0.3507 C.2     1  LIG1       -0.0361
     23 C          -3.0869    2.4906    1.6227 C.3     1  LIG1       -0.0636
     24 C           6.6938    5.7946   -7.3428 C.3     1  LIG1       -0.0629
     25 C           4.0796   -5.1380    3.8586 C.3     1  LIG1       -0.0342
     26 C           3.6526   -3.0771    5.2073 C.3     1  LIG1       -0.0342
     27 C          -1.8931    1.5521    1.7790 C.3     1  LIG1       -0.0492
     28 C           5.3183    5.9216   -6.6930 C.3     1  LIG1       -0.0473
     29 N           2.3529    2.8432   -1.7776 N.2     1  LIG1       -0.3352
     30 N           4.5673    2.1739   -2.4392 N.am    1  LIG1       -0.2260
     31 N           4.0885   -3.6929    3.9696 N.pl3   1  LIG1       -0.4210
     32 O           6.6622    1.0782   -2.6014 O.2     1  LIG1       -0.4406
     33 S           3.4866    0.8172   -0.5115 S.3     1  LIG1       -0.0369
     34 H           5.7268   -3.1949   -0.2711 H       1  LIG1        0.1408
     35 H           4.9661    0.3636    2.0483 H       1  LIG1        0.1410
     36 H          -1.5002    0.6111   -0.7378 H       1  LIG1        0.1258
     37 H           0.1822    3.2445    2.2271 H       1  LIG1        0.1234
     38 H           4.3093    3.4065   -6.8641 H       1  LIG1        0.1264
     39 H           5.8959    6.2684   -4.0624 H       1  LIG1        0.1264
     40 H           0.3396    1.1719   -2.2802 H       1  LIG1        0.1364
     41 H           2.0228    3.8042    0.6861 H       1  LIG1        0.1237
     42 H           3.9829    1.7921   -5.0325 H       1  LIG1        0.1333
     43 H           5.5731    4.6543   -2.2291 H       1  LIG1        0.1338
     44 H           4.9594   -4.5811    1.6084 H       1  LIG1        0.1174
     45 H           4.1997   -1.0264    3.9250 H       1  LIG1        0.1170
     46 H           6.8659   -0.6468   -0.6861 H       1  LIG1        0.1898
     47 H          -2.7895    3.5334    1.7768 H       1  LIG1        0.0340
     48 H          -3.8674    2.2493    2.3510 H       1  LIG1        0.0337
     49 H          -3.5214    2.4097    0.6204 H       1  LIG1        0.0360
     50 H           7.4912    5.9223   -6.6029 H       1  LIG1        0.0366
     51 H           6.8271    6.5542   -8.1193 H       1  LIG1        0.0345
     52 H           6.8198    4.8101   -7.8060 H       1  LIG1        0.0343
     53 H           3.7096   -5.5837    4.7857 H       1  LIG1        0.0813
     54 H           5.0906   -5.5087    3.6689 H       1  LIG1        0.0934
     55 H           3.4317   -5.4499    3.0351 H       1  LIG1        0.0947
     56 H           3.3496   -3.8457    5.9229 H       1  LIG1        0.0813
     57 H           2.8027   -2.4149    5.0211 H       1  LIG1        0.0934
     58 H           4.4651   -2.4903    5.6440 H       1  LIG1        0.0946
     59 H          -2.2275    0.5146    1.6177 H       1  LIG1        0.0603
     60 H          -1.5431    1.5859    2.8234 H       1  LIG1        0.0606
     61 H           4.5424    5.7882   -7.4639 H       1  LIG1        0.0620
     62 H           5.1882    6.9519   -6.3244 H       1  LIG1        0.0619
@<TRIPOS>BOND
     1     1    11   ar
     2     1    13   ar
     3     2    12   ar
     4     2    13   ar
     5     3     7   ar
     6     3    14   ar
     7     4     8   ar
     8     4    14   ar
     9     5     9   ar
    10     5    15   ar
    11     6    10   ar
    12     6    15   ar
    13     7    16   ar
    14     8    16   ar
    15     9    17   ar
    16    10    17   ar
    17    11    18   ar
    18    12    18   ar
    19    13    22    1
    20    14    27    1
    21    15    28    1
    22    16    29    1
    23    17    30    1
    24    18    31    1
    25    19    20    1
    26    19    22    2
    27    19    33    1
    28    20    30   am
    29    20    32    2
    30    21    29    2
    31    21    30    1
    32    21    33    1
    33    23    27    1
    34    24    28    1
    35    25    31    1
    36    26    31    1
    37     1    34    1
    38     2    35    1
    39     3    36    1
    40     4    37    1
    41     5    38    1
    42     6    39    1
    43     7    40    1
    44     8    41    1
    45     9    42    1
    46    10    43    1
    47    11    44    1
    48    12    45    1
    49    22    46    1
    50    23    47    1
    51    23    48    1
    52    23    49    1
    53    24    50    1
    54    24    51    1
    55    24    52    1
    56    25    53    1
    57    25    54    1
    58    25    55    1
    59    26    56    1
    60    26    57    1
    61    26    58    1
    62    27    59    1
    63    27    60    1
    64    28    61    1
    65    28    62    1
