@<TRIPOS>MOLECULE
AO-729/15184001
 48 52 0 0 0
SMALL
USER_CHARGES

@<TRIPOS>ATOM
      1 C           5.1247   -3.3131    2.9829 C.ar    1  LIG1       -0.1023
      2 C          -1.2569    1.9174    1.3051 C.ar    1  LIG1       -0.1005
      3 C           5.2183   -3.6322    1.6282 C.ar    1  LIG1       -0.0951
      4 C           4.9005   -1.9933    3.3747 C.ar    1  LIG1       -0.0990
      5 C          -0.8321    0.8001    0.5861 C.ar    1  LIG1       -0.0906
      6 C          -0.5081    3.0938    1.2726 C.ar    1  LIG1       -0.0914
      7 C           5.0875   -2.6315    0.6654 C.ar    1  LIG1       -0.0709
      8 C           4.7698   -0.9926    2.4119 C.ar    1  LIG1       -0.0761
      9 C           0.3417    0.8593   -0.1652 C.ar    1  LIG1       -0.0513
     10 C           0.6656    3.1529    0.5213 C.ar    1  LIG1       -0.0521
     11 C           6.5214    1.3887   -2.7336 C.ar    1  LIG1       -0.0315
     12 C           6.9769   -0.6580   -0.8735 C.ar    1  LIG1       -0.0312
     13 C           3.6041    2.7552   -2.4297 C.ar    1  LIG1        0.0193
     14 C           5.5256    1.0538   -1.7957 C.ar    1  LIG1       -0.0467
     15 C           5.7493    0.0234   -0.8559 C.ar    1  LIG1       -0.0115
     16 C           4.2770    1.7176   -1.7477 C.ar    1  LIG1        0.0145
     17 C           4.8633   -1.3116    1.0572 C.ar    1  LIG1       -0.0179
     18 C           1.0906    2.0357   -0.1976 C.ar    1  LIG1        0.0032
     19 C           7.7331    0.6986   -2.7328 C.ar    1  LIG1        0.0481
     20 C           7.9598   -0.3201   -1.8069 C.ar    1  LIG1        0.0457
     21 C           4.7272   -0.2704    0.0548 C.ar    1  LIG1        0.0216
     22 C           3.3670    1.3093   -0.7846 C.ar    1  LIG1        0.0519
     23 C           8.3813    2.0814   -4.5559 C.3     1  LIG1        0.0294
     24 C           9.2989   -2.0237   -0.8268 C.3     1  LIG1        0.0261
     25 N           2.3794    2.9871   -1.9472 N.ar    1  LIG1       -0.3038
     26 N           3.5197    0.3405    0.1335 N.ar    1  LIG1       -0.3346
     27 N           2.2638    2.0940   -0.9490 N.ar    1  LIG1       -0.2549
     28 O           8.6906    1.0294   -3.6442 O.3     1  LIG1       -0.3992
     29 O           9.1432   -0.9965   -1.8034 O.3     1  LIG1       -0.4057
     30 H           5.2248   -4.0928    3.7323 H       1  LIG1        0.1221
     31 H          -2.1716    1.8724    1.8888 H       1  LIG1        0.1207
     32 H           5.3912   -4.6599    1.3229 H       1  LIG1        0.1215
     33 H           4.8261   -1.7444    4.4293 H       1  LIG1        0.1209
     34 H          -1.4155   -0.1155    0.6102 H       1  LIG1        0.1276
     35 H          -0.8405    3.9638    1.8316 H       1  LIG1        0.1268
     36 H           5.1626   -2.8962   -0.3867 H       1  LIG1        0.1342
     37 H           4.5945    0.0317    2.7323 H       1  LIG1        0.1285
     38 H           0.6613   -0.0185   -0.7216 H       1  LIG1        0.1375
     39 H           1.2393    4.0764    0.5041 H       1  LIG1        0.1365
     40 H           6.3557    2.1814   -3.4594 H       1  LIG1        0.1366
     41 H           7.1903   -1.4576   -0.1678 H       1  LIG1        0.1452
     42 H           3.9545    3.3528   -3.2595 H       1  LIG1        0.2364
     43 H           9.2282    2.2439   -5.2268 H       1  LIG1        0.0918
     44 H           8.1638    2.9958   -3.9981 H       1  LIG1        0.0918
     45 H           7.5041    1.7974   -5.1421 H       1  LIG1        0.1251
     46 H          10.2851   -2.4823   -0.9332 H       1  LIG1        0.0899
     47 H           8.5185   -2.7769   -0.9614 H       1  LIG1        0.1241
     48 H           9.2099   -1.5836    0.1692 H       1  LIG1        0.0893
@<TRIPOS>BOND
     1     1     3   ar
     2     1     4   ar
     3     2     5   ar
     4     2     6   ar
     5     3     7   ar
     6     4     8   ar
     7     5     9   ar
     8     6    10   ar
     9     7    17   ar
    10     8    17   ar
    11     9    18   ar
    12    10    18   ar
    13    11    14   ar
    14    11    19   ar
    15    12    15   ar
    16    12    20   ar
    17    13    16   ar
    18    13    25   ar
    19    14    15   ar
    20    14    16   ar
    21    15    21   ar
    22    16    22   ar
    23    17    21    1
    24    18    27    1
    25    19    20   ar
    26    19    28    1
    27    20    29    1
    28    21    26   ar
    29    22    26   ar
    30    22    27   ar
    31    23    28    1
    32    24    29    1
    33    25    27   ar
    34     1    30    1
    35     2    31    1
    36     3    32    1
    37     4    33    1
    38     5    34    1
    39     6    35    1
    40     7    36    1
    41     8    37    1
    42     9    38    1
    43    10    39    1
    44    11    40    1
    45    12    41    1
    46    13    42    1
    47    23    43    1
    48    23    44    1
    49    23    45    1
    50    24    46    1
    51    24    47    1
    52    24    48    1
