@<TRIPOS>MOLECULE
AH-487/40652387
 43 46 0 0 0
SMALL
USER_CHARGES

@<TRIPOS>ATOM
      1 C           5.3223    4.9333   -5.7086 C.ar    1  LIG1       -0.1026
      2 C          -0.8186   -1.7213   -0.4094 C.ar    1  LIG1       -0.1066
      3 C           4.5987    3.7654   -5.9498 C.ar    1  LIG1       -0.0964
      4 C           5.5163    5.3758   -4.4000 C.ar    1  LIG1       -0.0984
      5 C          -0.8660   -0.8833   -1.5235 C.ar    1  LIG1       -0.1041
      6 C          -0.1565   -1.3080    0.7466 C.ar    1  LIG1       -0.1044
      7 C           4.0692    3.0400   -4.8824 C.ar    1  LIG1       -0.0751
      8 C           4.9869    4.6504   -3.3327 C.ar    1  LIG1       -0.0760
      9 C          -0.2511    0.3680   -1.4815 C.ar    1  LIG1       -0.0963
     10 C           0.4583   -0.0567    0.7887 C.ar    1  LIG1       -0.0962
     11 C           5.7302   -0.0047   -0.8176 C.ar    1  LIG1       -0.0272
     12 C           4.3367    1.6908   -1.7547 C.ar    1  LIG1        0.0449
     13 C           4.2633    3.4825   -3.5739 C.ar    1  LIG1       -0.0283
     14 C           0.4111    0.7813   -0.3254 C.ar    1  LIG1       -0.0742
     15 C           5.5574    1.0048   -1.7647 C.ar    1  LIG1        0.0638
     16 C           3.7162    2.7335   -2.4711 C.ar    1  LIG1        0.0426
     17 C           4.6977   -0.2743    0.0745 C.ar    1  LIG1       -0.0278
     18 C           3.3916    1.3211   -0.8103 C.ar    1  LIG1        0.0528
     19 C           4.8981   -1.3594    1.0837 C.3     1  LIG1        0.0053
     20 C           1.0749    2.1311   -0.2795 C.3     1  LIG1        0.0427
     21 C           6.6633    1.2974   -2.7243 C.3     1  LIG1        0.3648
     22 N           2.4854    3.0072   -2.0261 N.ar    1  LIG1       -0.2869
     23 N           3.5014    0.3603    0.1237 N.ar    1  LIG1       -0.3486
     24 N           2.3160    2.1333   -1.0174 N.ar    1  LIG1       -0.2711
     25 F           7.7611    0.5046   -2.5503 F       1  LIG1       -0.1826
     26 F           6.3078    1.1337   -4.0322 F       1  LIG1       -0.1779
     27 F           7.1170    2.5802   -2.6245 F       1  LIG1       -0.1771
     28 H           5.7354    5.4976   -6.5395 H       1  LIG1        0.1211
     29 H          -1.2986   -2.6950   -0.4419 H       1  LIG1        0.1179
     30 H           4.4486    3.4200   -6.9684 H       1  LIG1        0.1203
     31 H           6.0808    6.2844   -4.2125 H       1  LIG1        0.1201
     32 H          -1.3824   -1.2045   -2.4233 H       1  LIG1        0.1162
     33 H          -0.1205   -1.9598    1.6145 H       1  LIG1        0.1156
     34 H           3.5074    2.1315   -5.0868 H       1  LIG1        0.1301
     35 H           5.1470    5.0087   -2.3185 H       1  LIG1        0.1371
     36 H          -0.2928    1.0142   -2.3543 H       1  LIG1        0.1231
     37 H           0.9720    0.2569    1.6936 H       1  LIG1        0.1245
     38 H           6.6570   -0.5704   -0.7786 H       1  LIG1        0.1498
     39 H           5.3395   -0.9480    1.9982 H       1  LIG1        0.0858
     40 H           3.9471   -1.8414    1.3388 H       1  LIG1        0.0834
     41 H           5.5605   -2.1419    0.6952 H       1  LIG1        0.0830
     42 H           0.4240    2.9070   -0.7005 H       1  LIG1        0.1571
     43 H           1.2897    2.4320    0.7532 H       1  LIG1        0.1560
@<TRIPOS>BOND
     1     1     3   ar
     2     1     4   ar
     3     2     5   ar
     4     2     6   ar
     5     3     7   ar
     6     4     8   ar
     7     5     9   ar
     8     6    10   ar
     9     7    13   ar
    10     8    13   ar
    11     9    14   ar
    12    10    14   ar
    13    11    15   ar
    14    11    17   ar
    15    12    15   ar
    16    12    16   ar
    17    12    18   ar
    18    13    16    1
    19    14    20    1
    20    15    21    1
    21    16    22   ar
    22    17    19    1
    23    17    23   ar
    24    18    23   ar
    25    18    24   ar
    26    20    24    1
    27    21    25    1
    28    21    26    1
    29    21    27    1
    30    22    24   ar
    31     1    28    1
    32     2    29    1
    33     3    30    1
    34     4    31    1
    35     5    32    1
    36     6    33    1
    37     7    34    1
    38     8    35    1
    39     9    36    1
    40    10    37    1
    41    11    38    1
    42    19    39    1
    43    19    40    1
    44    19    41    1
    45    20    42    1
    46    20    43    1
