@<TRIPOS>MOLECULE
AG-690/40749469
 49 51 0 0 0
SMALL
USER_CHARGES

@<TRIPOS>ATOM
      1 C           6.1632    1.2162   -2.3375 C.1     1  LIG1        0.0750
      2 C           0.7195    3.1466    0.5061 C.ar    1  LIG1       -0.0767
      3 C           0.1926    0.8596   -0.0673 C.ar    1  LIG1       -0.0630
      4 C           5.0744    4.4550   -3.1812 C.ar    1  LIG1       -0.0755
      5 C           4.1596    2.8427   -4.7307 C.ar    1  LIG1       -0.0743
      6 C          -0.5325    3.2850    1.1052 C.ar    1  LIG1       -0.0646
      7 C          -1.0594    0.9978    0.5319 C.ar    1  LIG1       -0.0496
      8 C           5.4631    5.2620   -4.2504 C.ar    1  LIG1       -0.0663
      9 C           4.5483    3.6497   -5.7999 C.ar    1  LIG1       -0.0662
     10 C           2.7547    2.5972   -1.7618 C.ar    1  LIG1       -0.0198
     11 C           4.8553    1.4261   -1.7840 C.ar    1  LIG1        0.1143
     12 C           4.4227    3.2454   -3.4213 C.ar    1  LIG1       -0.0529
     13 C           1.0821    1.9340   -0.0801 C.ar    1  LIG1       -0.0290
     14 C           4.0186    2.4051   -2.3085 C.ar    1  LIG1       -0.0078
     15 C          -1.4220    2.2105    1.1181 C.ar    1  LIG1       -0.0115
     16 C           5.2001    4.8594   -5.5598 C.ar    1  LIG1       -0.0113
     17 C           2.3778    1.7907   -0.7000 C.ar    1  LIG1       -0.0054
     18 C           4.3844    0.6722   -0.7211 C.ar    1  LIG1        0.0562
     19 C           5.0450   -3.5705    1.4041 C.3     1  LIG1       -0.0672
     20 C           5.8784   -1.8915    3.0819 C.3     1  LIG1       -0.0682
     21 C          -3.5034    1.2073    1.6808 C.3     1  LIG1        0.0250
     22 C           4.1925   -1.1639    1.3050 C.3     1  LIG1        0.0012
     23 C           4.7009   -2.3086    2.1981 C.3     1  LIG1       -0.0633
     24 N           7.2204    1.0465   -2.7849 N.1     1  LIG1       -0.3600
     25 N           3.1629    0.8298   -0.1637 N.ar    1  LIG1       -0.3609
     26 O          -2.6433    2.3454    1.7032 O.3     1  LIG1       -0.4155
     27 S           5.3578   -0.5965    0.0273 S.3     1  LIG1       -0.1231
     28 CL          5.6814    5.8550   -6.8786 Cl      1  LIG1       -0.1376
     29 H           1.4019    3.9933    0.5042 H       1  LIG1        0.1390
     30 H           0.4606   -0.0921   -0.5199 H       1  LIG1        0.1529
     31 H           5.2867    4.7825   -2.1662 H       1  LIG1        0.1353
     32 H           3.6533    1.9020   -4.9341 H       1  LIG1        0.1415
     33 H          -0.8093    4.2319    1.5605 H       1  LIG1        0.1154
     34 H          -1.7481    0.1574    0.5391 H       1  LIG1        0.1313
     35 H           5.9720    6.2015   -4.0491 H       1  LIG1        0.1379
     36 H           4.3379    3.3229   -6.8152 H       1  LIG1        0.1383
     37 H           2.0819    3.3556   -2.1529 H       1  LIG1        0.1486
     38 H           5.8677   -3.4028    0.7019 H       1  LIG1        0.0369
     39 H           5.3490   -4.3768    2.0805 H       1  LIG1        0.0392
     40 H           4.1768   -3.9225    0.8372 H       1  LIG1        0.0365
     41 H           6.7566   -1.6118    2.4916 H       1  LIG1        0.0356
     42 H           6.1731   -2.7162    3.7401 H       1  LIG1        0.0357
     43 H           5.6067   -1.0413    3.7164 H       1  LIG1        0.0349
     44 H          -4.4442    1.4507    2.1806 H       1  LIG1        0.0904
     45 H          -3.0155    0.3706    2.1870 H       1  LIG1        0.0904
     46 H          -3.7054    0.9347    0.6422 H       1  LIG1        0.1228
     47 H           3.2725   -1.4746    0.7978 H       1  LIG1        0.0889
     48 H           3.9376   -0.2985    1.9265 H       1  LIG1        0.0891
     49 H           3.8724   -2.5695    2.8706 H       1  LIG1        0.0575
@<TRIPOS>BOND
     1     1    11    1
     2     1    24    3
     3     2     6   ar
     4     2    13   ar
     5     3     7   ar
     6     3    13   ar
     7     4     8   ar
     8     4    12   ar
     9     5     9   ar
    10     5    12   ar
    11     6    15   ar
    12     7    15   ar
    13     8    16   ar
    14     9    16   ar
    15    10    14   ar
    16    10    17   ar
    17    11    14   ar
    18    11    18   ar
    19    12    14    1
    20    13    17    1
    21    15    26    1
    22    16    28    1
    23    17    25   ar
    24    18    25   ar
    25    18    27    1
    26    19    23    1
    27    20    23    1
    28    21    26    1
    29    22    23    1
    30    22    27    1
    31     2    29    1
    32     3    30    1
    33     4    31    1
    34     5    32    1
    35     6    33    1
    36     7    34    1
    37     8    35    1
    38     9    36    1
    39    10    37    1
    40    19    38    1
    41    19    39    1
    42    19    40    1
    43    20    41    1
    44    20    42    1
    45    20    43    1
    46    21    44    1
    47    21    45    1
    48    21    46    1
    49    22    47    1
    50    22    48    1
    51    23    49    1
