@<TRIPOS>MOLECULE
AE-848/09038034
 46 49 0 0 0
SMALL
USER_CHARGES

@<TRIPOS>ATOM
      1 C           3.9809    3.0116   -4.8018 C.ar    1  LIG1       -0.0774
      2 C           4.8795    4.6289   -3.2481 C.ar    1  LIG1       -0.0742
      3 C           0.5405    3.3291   -0.2672 C.ar    1  LIG1       -0.0646
      4 C           0.4794    0.9860    0.3188 C.ar    1  LIG1       -0.0648
      5 C           4.2708    3.8697   -5.8625 C.ar    1  LIG1       -0.0980
      6 C           5.1694    5.4869   -4.3089 C.ar    1  LIG1       -0.0955
      7 C          -0.7211    3.5042    0.3014 C.ar    1  LIG1       -0.0952
      8 C          -0.7822    1.1612    0.8874 C.ar    1  LIG1       -0.0953
      9 C           4.2851    3.3913   -3.4945 C.ar    1  LIG1       -0.0313
     10 C           1.1408    2.0700   -0.2585 C.ar    1  LIG1        0.0023
     11 C           4.8831    1.5542   -1.9283 C.ar    1  LIG1       -0.0307
     12 C           4.8652    5.1072   -5.6161 C.ar    1  LIG1       -0.1151
     13 C          -1.3825    2.4203    0.8787 C.ar    1  LIG1       -0.1158
     14 C           3.9840    2.5011   -2.3938 C.ar    1  LIG1       -0.0017
     15 C           4.4357    0.7677   -0.8707 C.ar    1  LIG1       -0.0338
     16 C           2.4426    1.8893   -0.8454 C.ar    1  LIG1        0.0445
     17 C           6.2182    1.3582   -2.5817 C.3     1  LIG1       -0.0333
     18 C           5.3254   -0.2773   -0.2516 C.3     1  LIG1       -0.0048
     19 C           7.1824    0.5341   -1.7281 C.3     1  LIG1       -0.0606
     20 C           6.4811   -0.6954   -1.1598 C.3     1  LIG1       -0.0506
     21 C           5.1751    6.0247   -6.7503 C.3     1  LIG1       -0.0420
     22 C          -2.7315    2.6074    1.4864 C.3     1  LIG1       -0.0420
     23 N           2.7565    2.6978   -1.8722 N.ar    1  LIG1       -0.3452
     24 N           3.2158    0.9278   -0.3063 N.ar    1  LIG1       -0.3604
     25 H           3.5168    2.0505   -5.0100 H       1  LIG1        0.1302
     26 H           5.1232    4.9389   -2.2346 H       1  LIG1        0.1331
     27 H           1.0429    4.1838   -0.7140 H       1  LIG1        0.1419
     28 H           0.9344   -0.0016    0.3340 H       1  LIG1        0.1414
     29 H           4.0294    3.5661   -6.8778 H       1  LIG1        0.1205
     30 H           5.6332    6.4491   -4.1078 H       1  LIG1        0.1205
     31 H          -1.1817    4.4885    0.2890 H       1  LIG1        0.1189
     32 H          -1.2901    0.3112    1.3356 H       1  LIG1        0.1187
     33 H           6.1072    0.8538   -3.5487 H       1  LIG1        0.0705
     34 H           6.6603    2.3452   -2.7673 H       1  LIG1        0.0700
     35 H           5.7273    0.0956    0.6975 H       1  LIG1        0.0906
     36 H           4.7064   -1.1539   -0.0239 H       1  LIG1        0.0907
     37 H           8.0397    0.2165   -2.3355 H       1  LIG1        0.0463
     38 H           7.5779    1.1542   -0.9159 H       1  LIG1        0.0521
     39 H           7.2016   -1.2993   -0.5935 H       1  LIG1        0.0557
     40 H           6.1018   -1.3231   -1.9737 H       1  LIG1        0.0488
     41 H           4.3242    6.6880   -6.9485 H       1  LIG1        0.0584
     42 H           6.0554    6.6435   -6.5333 H       1  LIG1        0.0547
     43 H           5.3996    5.4636   -7.6669 H       1  LIG1        0.0548
     44 H          -3.5146    2.4402    0.7368 H       1  LIG1        0.0584
     45 H          -2.8932    1.9114    2.3198 H       1  LIG1        0.0548
     46 H          -2.8486    3.6209    1.8920 H       1  LIG1        0.0547
@<TRIPOS>BOND
     1     1     5   ar
     2     1     9   ar
     3     2     6   ar
     4     2     9   ar
     5     3     7   ar
     6     3    10   ar
     7     4     8   ar
     8     4    10   ar
     9     5    12   ar
    10     6    12   ar
    11     7    13   ar
    12     8    13   ar
    13     9    14    1
    14    10    16    1
    15    11    14   ar
    16    11    15   ar
    17    11    17    1
    18    12    21    1
    19    13    22    1
    20    14    23   ar
    21    15    18    1
    22    15    24   ar
    23    16    23   ar
    24    16    24   ar
    25    17    19    1
    26    18    20    1
    27    19    20    1
    28     1    25    1
    29     2    26    1
    30     3    27    1
    31     4    28    1
    32     5    29    1
    33     6    30    1
    34     7    31    1
    35     8    32    1
    36    17    33    1
    37    17    34    1
    38    18    35    1
    39    18    36    1
    40    19    37    1
    41    19    38    1
    42    20    39    1
    43    20    40    1
    44    21    41    1
    45    21    42    1
    46    21    43    1
    47    22    44    1
    48    22    45    1
    49    22    46    1
