@<TRIPOS>MOLECULE
AG-205/33681014
 54 59 0 0 0
SMALL
USER_CHARGES

@<TRIPOS>ATOM
      1 C          -1.1454    2.0152    1.2191 C.ar    1  LIG1       -0.1000
      2 C           7.0652   -4.6312    0.0139 C.ar    1  LIG1       -0.0983
      3 C           3.0541   -1.0844    5.0015 C.ar    1  LIG1       -0.1024
      4 C           6.8767   -3.5840   -0.8823 C.ar    1  LIG1       -0.0980
      5 C           2.8659   -0.0371    4.1053 C.ar    1  LIG1       -0.1018
      6 C           0.1073    2.1595    1.8155 C.ar    1  LIG1       -0.0906
      7 C          -1.2492    1.9057   -0.1677 C.ar    1  LIG1       -0.0909
      8 C           6.4973   -4.5705    1.2867 C.ar    1  LIG1       -0.0861
      9 C           3.8108   -2.1949    4.6272 C.ar    1  LIG1       -0.0894
     10 C           6.1201   -2.4734   -0.5081 C.ar    1  LIG1       -0.0824
     11 C           3.4338   -0.0977    2.8326 C.ar    1  LIG1       -0.0760
     12 C           4.4393    3.0663   -4.9274 C.ar    1  LIG1       -0.0638
     13 C           4.3829    4.9888   -3.4652 C.ar    1  LIG1       -0.0626
     14 C           1.2561    2.1944    1.0252 C.ar    1  LIG1       -0.0515
     15 C          -0.1004    1.9406   -0.9580 C.ar    1  LIG1       -0.0512
     16 C           4.9489    3.8618   -5.9537 C.ar    1  LIG1       -0.0740
     17 C           4.8925    5.7843   -4.4915 C.ar    1  LIG1       -0.0735
     18 C           5.1542   -3.3833    2.9574 C.ar    1  LIG1       -0.0627
     19 C           4.2447    1.6808   -2.0493 C.ar    1  LIG1       -0.0157
     20 C           5.7325   -3.4595    1.6794 C.ar    1  LIG1       -0.0606
     21 C           4.3895   -2.2719    3.3495 C.ar    1  LIG1       -0.0622
     22 C           5.5413   -2.3965    0.7697 C.ar    1  LIG1       -0.0513
     23 C           4.1983   -1.2088    2.4398 C.ar    1  LIG1       -0.0510
     24 C           4.1564    3.6299   -3.6831 C.ar    1  LIG1       -0.0271
     25 C           4.7768   -1.2850    1.1618 C.ar    1  LIG1       -0.0037
     26 C           1.1523    2.0850   -0.3616 C.ar    1  LIG1        0.0035
     27 C           5.1755    5.2208   -5.7357 C.ar    1  LIG1       -0.0396
     28 C           3.6299    2.8093   -2.6240 C.ar    1  LIG1        0.0142
     29 C           3.3552    1.2547   -1.0934 C.ar    1  LIG1        0.0300
     30 C           4.5758   -0.1814    0.2152 C.2     1  LIG1        0.0070
     31 N           2.4415    3.0827   -2.0790 N.ar    1  LIG1       -0.3011
     32 N           3.3968    0.1816   -0.1871 N.2     1  LIG1       -0.3516
     33 N           2.3025    2.1199   -1.1518 N.ar    1  LIG1       -0.2599
     34 BR          5.8645    6.2987   -7.1266 Br      1  LIG1       -0.1105
     35 H          -2.0400    1.9861    1.8340 H       1  LIG1        0.1218
     36 H           7.6540   -5.4963   -0.2764 H       1  LIG1        0.1177
     37 H           2.6115   -1.0384    5.9923 H       1  LIG1        0.1157
     38 H           7.3184   -3.6314   -1.8736 H       1  LIG1        0.1255
     39 H           2.2775    0.8282    4.3968 H       1  LIG1        0.1172
     40 H           0.1884    2.2434    2.8951 H       1  LIG1        0.1272
     41 H          -2.2250    1.7919   -0.6311 H       1  LIG1        0.1274
     42 H           6.6577   -5.4012    1.9710 H       1  LIG1        0.1323
     43 H           3.9460   -3.0017    5.3447 H       1  LIG1        0.1268
     44 H           5.9997   -1.6792   -1.2411 H       1  LIG1        0.1234
     45 H           3.2606    0.7441    2.1664 H       1  LIG1        0.1664
     46 H           4.2682    2.0087   -5.1131 H       1  LIG1        0.1399
     47 H           4.1660    5.4435   -2.5012 H       1  LIG1        0.1431
     48 H           2.2264    2.3066    1.5028 H       1  LIG1        0.1374
     49 H          -0.1955    1.8535   -2.0375 H       1  LIG1        0.1409
     50 H           5.1626    3.4071   -6.9173 H       1  LIG1        0.1379
     51 H           5.0616    6.8420   -4.3059 H       1  LIG1        0.1373
     52 H           5.3020   -4.2034    3.6602 H       1  LIG1        0.1528
     53 H           5.1997    1.2355   -2.2904 H       1  LIG1        0.1315
     54 H           5.4848    0.3380   -0.1500 H       1  LIG1        0.2121
@<TRIPOS>BOND
     1     1     6   ar
     2     1     7   ar
     3     2     4   ar
     4     2     8   ar
     5     3     5   ar
     6     3     9   ar
     7     4    10   ar
     8     5    11   ar
     9     6    14   ar
    10     7    15   ar
    11     8    20   ar
    12     9    21   ar
    13    10    22   ar
    14    11    23   ar
    15    12    16   ar
    16    12    24   ar
    17    13    17   ar
    18    13    24   ar
    19    14    26   ar
    20    15    26   ar
    21    16    27   ar
    22    17    27   ar
    23    18    20   ar
    24    18    21   ar
    25    19    28   ar
    26    19    29   ar
    27    20    22   ar
    28    21    23   ar
    29    22    25   ar
    30    23    25   ar
    31    24    28    1
    32    25    30    1
    33    26    33    1
    34    27    34    1
    35    28    31   ar
    36    29    32    1
    37    29    33   ar
    38    30    32    2
    39    31    33   ar
    40     1    35    1
    41     2    36    1
    42     3    37    1
    43     4    38    1
    44     5    39    1
    45     6    40    1
    46     7    41    1
    47     8    42    1
    48     9    43    1
    49    10    44    1
    50    11    45    1
    51    12    46    1
    52    13    47    1
    53    14    48    1
    54    15    49    1
    55    16    50    1
    56    17    51    1
    57    18    52    1
    58    19    53    1
    59    30    54    1
