@<TRIPOS>MOLECULE
AO-476/41610195
 50 54 0 0 0
SMALL
USER_CHARGES

@<TRIPOS>ATOM
      1 C           6.2966    1.2517   -2.5073 C.1     1  LIG1        0.0819
      2 C          -0.5635    1.0154    1.3450 C.ar    1  LIG1       -0.0957
      3 C          -1.3125    2.1664    1.1198 C.ar    1  LIG1       -0.1010
      4 C           0.6888    0.8629    0.7448 C.ar    1  LIG1       -0.0717
      5 C           4.2382    2.8854   -4.8180 C.ar    1  LIG1       -0.0724
      6 C           5.2089    4.4723   -3.2764 C.ar    1  LIG1       -0.0727
      7 C          -0.8133    3.1683    0.2914 C.ar    1  LIG1       -0.0948
      8 C           4.0274   -1.5195    2.2732 C.ar    1  LIG1       -0.0816
      9 C           6.1482   -2.5713    1.7904 C.ar    1  LIG1       -0.0817
     10 C           4.6209    3.6923   -5.8896 C.ar    1  LIG1       -0.0418
     11 C           5.5916    5.2791   -4.3480 C.ar    1  LIG1       -0.0416
     12 C           3.6077   -2.6712    2.9388 C.ar    1  LIG1       -0.0462
     13 C           5.7285   -3.7231    2.4559 C.ar    1  LIG1       -0.0463
     14 C           4.9996    1.4529   -1.9298 C.ar    1  LIG1        0.1510
     15 C           4.5321    3.2755   -3.5115 C.ar    1  LIG1       -0.0502
     16 C           1.2127    1.8581   -0.0972 C.ar    1  LIG1       -0.0239
     17 C           4.1327    2.4335   -2.3933 C.ar    1  LIG1        0.0004
     18 C           0.4358    3.0171   -0.3269 C.ar    1  LIG1       -0.0837
     19 C           2.8825    2.5946   -1.7937 C.ar    1  LIG1       -0.0281
     20 C           5.2977   -1.4695    1.6991 C.ar    1  LIG1       -0.0653
     21 C           5.2976    4.8891   -5.6545 C.ar    1  LIG1        0.0664
     22 C           4.4582   -3.7730    3.0301 C.ar    1  LIG1        0.0626
     23 C           2.5297    1.7337   -0.7463 C.ar    1  LIG1        0.0040
     24 C           4.5732    0.6556   -0.8831 C.ar    1  LIG1        0.1249
     25 C           0.9941    4.1337   -1.1790 C.3     1  LIG1       -0.0280
     26 C           1.8952    3.6098   -2.3012 C.3     1  LIG1       -0.0207
     27 C           5.7501   -0.2306    0.9837 C.3     1  LIG1        0.0614
     28 N           7.3462    1.0888   -2.9747 N.1     1  LIG1       -0.3645
     29 N           3.3656    0.7702   -0.2855 N.ar    1  LIG1       -0.3349
     30 O           5.3897   -0.3290   -0.3884 O.3     1  LIG1       -0.3477
     31 F           5.6652    5.6639   -6.6836 F       1  LIG1       -0.2650
     32 F           4.0562   -4.8783    3.6715 F       1  LIG1       -0.2673
     33 H          -0.9520    0.2337    1.9916 H       1  LIG1        0.1188
     34 H          -2.2828    2.2851    1.5925 H       1  LIG1        0.1233
     35 H           1.2452   -0.0500    0.9447 H       1  LIG1        0.1395
     36 H           3.7112    1.9554   -5.0176 H       1  LIG1        0.1438
     37 H           5.4455    4.7901   -2.2638 H       1  LIG1        0.1403
     38 H          -1.4009    4.0688    0.1326 H       1  LIG1        0.1222
     39 H           3.3574   -0.6664    2.2066 H       1  LIG1        0.1385
     40 H           7.1398   -2.5414    1.3464 H       1  LIG1        0.1384
     41 H           4.3921    3.3889   -6.9069 H       1  LIG1        0.1368
     42 H           6.1186    6.2111   -4.1658 H       1  LIG1        0.1363
     43 H           2.6192   -2.7101    3.3863 H       1  LIG1        0.1322
     44 H           6.3902   -4.5812    2.5269 H       1  LIG1        0.1321
     45 H           0.1816    4.7212   -1.6229 H       1  LIG1        0.0746
     46 H           1.5653    4.8036   -0.5234 H       1  LIG1        0.0779
     47 H           2.3901    4.4743   -2.7566 H       1  LIG1        0.0786
     48 H           1.2830    3.1311   -3.0765 H       1  LIG1        0.0756
     49 H           5.2826    0.6623    1.4126 H       1  LIG1        0.1324
     50 H           6.8363   -0.1123    1.0622 H       1  LIG1        0.1328
@<TRIPOS>BOND
     1     1    14    1
     2     1    28    3
     3     2     3   ar
     4     2     4   ar
     5     3     7   ar
     6     4    16   ar
     7     5    10   ar
     8     5    15   ar
     9     6    11   ar
    10     6    15   ar
    11     7    18   ar
    12     8    12   ar
    13     8    20   ar
    14     9    13   ar
    15     9    20   ar
    16    10    21   ar
    17    11    21   ar
    18    12    22   ar
    19    13    22   ar
    20    14    17   ar
    21    14    24   ar
    22    15    17    1
    23    16    18   ar
    24    16    23    1
    25    17    19   ar
    26    18    25    1
    27    19    23   ar
    28    19    26    1
    29    20    27    1
    30    21    31    1
    31    22    32    1
    32    23    29   ar
    33    24    29   ar
    34    24    30    1
    35    25    26    1
    36    27    30    1
    37     2    33    1
    38     3    34    1
    39     4    35    1
    40     5    36    1
    41     6    37    1
    42     7    38    1
    43     8    39    1
    44     9    40    1
    45    10    41    1
    46    11    42    1
    47    12    43    1
    48    13    44    1
    49    25    45    1
    50    25    46    1
    51    26    47    1
    52    26    48    1
    53    27    49    1
    54    27    50    1
