@<TRIPOS>MOLECULE
AS-980/15246972
 40 43 0 0 0
SMALL
USER_CHARGES

@<TRIPOS>ATOM
      1 C           5.3223    4.9334   -5.7085 C.ar    1  LIG1       -0.1026
      2 C          -1.2647    2.0979    1.1471 C.ar    1  LIG1       -0.1012
      3 C           4.5987    3.7657   -5.9500 C.ar    1  LIG1       -0.0975
      4 C           5.5166    5.3757   -4.3999 C.ar    1  LIG1       -0.0965
      5 C          -0.5310    0.9217    0.9929 C.ar    1  LIG1       -0.0923
      6 C          -0.8047    3.2864    0.5800 C.ar    1  LIG1       -0.0911
      7 C           4.0691    3.0402   -4.8827 C.ar    1  LIG1       -0.0750
      8 C           4.9870    4.6502   -3.3328 C.ar    1  LIG1       -0.0739
      9 C           0.6627    0.9340    0.2714 C.ar    1  LIG1       -0.0531
     10 C           0.3891    3.2986   -0.1414 C.ar    1  LIG1       -0.0516
     11 C           5.7296   -0.0058   -0.8187 C.ar    1  LIG1       -0.0579
     12 C           4.3364    1.6903   -1.7551 C.ar    1  LIG1        0.0231
     13 C           4.2632    3.4824   -3.5741 C.ar    1  LIG1       -0.0265
     14 C           5.5568    1.0037   -1.7657 C.ar    1  LIG1       -0.0798
     15 C           1.1228    2.1224   -0.2957 C.ar    1  LIG1        0.0022
     16 C           3.7160    2.7333   -2.4713 C.ar    1  LIG1        0.0402
     17 C           4.6974   -0.2748    0.0740 C.ar    1  LIG1       -0.0415
     18 C           3.3916    1.3211   -0.8103 C.ar    1  LIG1        0.0521
     19 C           6.6626    1.2958   -2.7255 C.3     1  LIG1       -0.0261
     20 C           4.8972   -1.3603    1.0831 C.3     1  LIG1        0.0007
     21 N           2.4855    3.0075   -2.0258 N.ar    1  LIG1       -0.2832
     22 N           3.5014    0.3603    0.1237 N.ar    1  LIG1       -0.3615
     23 N           2.3162    2.1337   -1.0169 N.ar    1  LIG1       -0.2499
     24 H           5.7357    5.4978   -6.5393 H       1  LIG1        0.1215
     25 H          -2.1951    2.0886    1.7072 H       1  LIG1        0.1197
     26 H           4.4484    3.4205   -6.9686 H       1  LIG1        0.1212
     27 H           6.0812    6.2842   -4.2122 H       1  LIG1        0.1211
     28 H          -0.8897   -0.0040    1.4332 H       1  LIG1        0.1262
     29 H          -1.3773    4.2017    0.6994 H       1  LIG1        0.1275
     30 H           3.5072    2.1318   -5.0872 H       1  LIG1        0.1315
     31 H           5.1473    5.0083   -2.3184 H       1  LIG1        0.1311
     32 H           1.2245    0.0100    0.1579 H       1  LIG1        0.1346
     33 H           0.7358    4.2317   -0.5789 H       1  LIG1        0.1373
     34 H           6.6564   -0.5713   -0.7789 H       1  LIG1        0.1278
     35 H           6.5532    0.6848   -3.6291 H       1  LIG1        0.0704
     36 H           6.6657    2.3534   -3.0172 H       1  LIG1        0.0644
     37 H           7.6422    1.0856   -2.2781 H       1  LIG1        0.0677
     38 H           5.3393   -0.9495    1.9972 H       1  LIG1        0.0819
     39 H           3.9459   -1.8415    1.3383 H       1  LIG1        0.0799
     40 H           5.5587   -2.1433    0.6940 H       1  LIG1        0.0790
@<TRIPOS>BOND
     1     1     3   ar
     2     1     4   ar
     3     2     5   ar
     4     2     6   ar
     5     3     7   ar
     6     4     8   ar
     7     5     9   ar
     8     6    10   ar
     9     7    13   ar
    10     8    13   ar
    11     9    15   ar
    12    10    15   ar
    13    11    14   ar
    14    11    17   ar
    15    12    14   ar
    16    12    16   ar
    17    12    18   ar
    18    13    16    1
    19    14    19    1
    20    15    23    1
    21    16    21   ar
    22    17    20    1
    23    17    22   ar
    24    18    22   ar
    25    18    23   ar
    26    21    23   ar
    27     1    24    1
    28     2    25    1
    29     3    26    1
    30     4    27    1
    31     5    28    1
    32     6    29    1
    33     7    30    1
    34     8    31    1
    35     9    32    1
    36    10    33    1
    37    11    34    1
    38    19    35    1
    39    19    36    1
    40    19    37    1
    41    20    38    1
    42    20    39    1
    43    20    40    1
