@<TRIPOS>MOLECULE
AO-476/43421038
 41 44 0 0 0
SMALL
USER_CHARGES

@<TRIPOS>ATOM
      1 C           5.1259   -2.0754    3.3268 C.ar    1  LIG1       -0.0811
      2 C           5.4418   -3.3564    2.8742 C.ar    1  LIG1       -0.0848
      3 C           4.8313   -1.0651    2.4112 C.ar    1  LIG1       -0.0433
      4 C           5.4633   -3.6270    1.5060 C.ar    1  LIG1       -0.0556
      5 C           4.6561    1.1808   -1.4071 C.ar    1  LIG1        0.0167
      6 C           3.3794    1.2356   -0.7387 C.ar    1  LIG1        0.0932
      7 C           4.8527   -1.3357    1.0431 C.ar    1  LIG1        0.0283
      8 C           5.1687   -2.6167    0.5905 C.ar    1  LIG1        0.0409
      9 C           5.0684    1.9849   -2.4589 C.ar    1  LIG1       -0.0047
     10 C           5.3826    0.1907   -0.8119 C.ar    1  LIG1       -0.0125
     11 C           2.4144    2.1698   -1.1419 C.ar    1  LIG1        0.0992
     12 C          -0.8312    1.7455    0.6464 C.3     1  LIG1       -0.0387
     13 C          -0.9171    3.1881    0.1909 C.3     1  LIG1       -0.0383
     14 C           0.6640    1.4578    0.5730 C.3     1  LIG1       -0.0253
     15 C           0.1110    3.2478   -0.9330 C.3     1  LIG1       -0.0229
     16 C           6.3643    1.9763   -3.1823 C.3     1  LIG1       -0.0012
     17 C           6.7430   -0.3345   -1.0494 C.3     1  LIG1        0.0034
     18 N           3.3501    0.3018    0.2277 N.ar    1  LIG1       -0.2849
     19 N           4.1125    2.8794   -2.8265 N.ar    1  LIG1       -0.2970
     20 N           2.8056    2.9679   -2.1754 N.ar    1  LIG1       -0.2571
     21 N           4.5548   -0.2997    0.1564 N.ar    1  LIG1       -0.2705
     22 N           1.1467    2.2843   -0.5403 N.pl3   1  LIG1       -0.3658
     23 CL          5.2108   -3.0014   -1.0947 Cl      1  LIG1       -0.1107
     24 H           5.1101   -1.8651    4.3923 H       1  LIG1        0.1392
     25 H           5.6717   -4.1428    3.5871 H       1  LIG1        0.1393
     26 H           4.5868   -0.0719    2.7807 H       1  LIG1        0.1468
     27 H           5.7133   -4.6305    1.1712 H       1  LIG1        0.1451
     28 H          -1.2390    1.5884    1.6488 H       1  LIG1        0.0646
     29 H          -1.3749    1.0979   -0.0520 H       1  LIG1        0.0605
     30 H          -1.9188    3.4721   -0.1429 H       1  LIG1        0.0587
     31 H          -0.6233    3.8585    1.0076 H       1  LIG1        0.0666
     32 H           1.1662    1.7594    1.4991 H       1  LIG1        0.0974
     33 H           0.8512    0.3929    0.3987 H       1  LIG1        0.0971
     34 H          -0.3339    2.9403   -1.8861 H       1  LIG1        0.0991
     35 H           0.5171    4.2590   -1.0415 H       1  LIG1        0.1096
     36 H           6.3257    1.2919   -4.0418 H       1  LIG1        0.0770
     37 H           6.6281    2.9777   -3.5541 H       1  LIG1        0.0733
     38 H           7.1914    1.6589   -2.5292 H       1  LIG1        0.0790
     39 H           7.4875    0.2061   -0.4433 H       1  LIG1        0.0885
     40 H           6.8207   -1.4061   -0.8003 H       1  LIG1        0.0779
     41 H           7.0409   -0.2441   -2.1075 H       1  LIG1        0.0927
@<TRIPOS>BOND
     1     1     2   ar
     2     1     3   ar
     3     2     4   ar
     4     3     7   ar
     5     4     8   ar
     6     5     6   ar
     7     5     9   ar
     8     5    10   ar
     9     6    11   ar
    10     6    18   ar
    11     7     8   ar
    12     7    21    1
    13     8    23    1
    14     9    16    1
    15     9    19   ar
    16    10    17    1
    17    10    21   ar
    18    11    20   ar
    19    11    22    1
    20    12    13    1
    21    12    14    1
    22    13    15    1
    23    14    22    1
    24    15    22    1
    25    18    21   ar
    26    19    20   ar
    27     1    24    1
    28     2    25    1
    29     3    26    1
    30     4    27    1
    31    12    28    1
    32    12    29    1
    33    13    30    1
    34    13    31    1
    35    14    32    1
    36    14    33    1
    37    15    34    1
    38    15    35    1
    39    16    36    1
    40    16    37    1
    41    16    38    1
    42    17    39    1
    43    17    40    1
    44    17    41    1
