@<TRIPOS>MOLECULE
AO-476/43380568
 35 38 0 0 0
SMALL
USER_CHARGES

@<TRIPOS>ATOM
      1 C           1.7325    3.6097   -2.2126 C.1     1  LIG1        0.0708
      2 C           4.9994   -3.0322    2.7655 C.ar    1  LIG1       -0.1086
      3 C           4.2902   -1.8368    2.8819 C.ar    1  LIG1       -0.0947
      4 C           5.7680   -3.2792    1.6279 C.ar    1  LIG1       -0.0990
      5 C           5.4106    4.8403   -4.6401 C.ar    1  LIG1       -0.1118
      6 C           4.3494   -0.8885    1.8608 C.ar    1  LIG1       -0.0484
      7 C           5.8270   -2.3310    0.6067 C.ar    1  LIG1       -0.0541
      8 C           5.0918    4.3828   -3.3289 C.ar    1  LIG1       -0.0934
      9 C           4.9321    3.9924   -5.6145 C.ar    1  LIG1       -0.0534
     10 C           2.6109    2.6003   -1.6814 C.ar    1  LIG1        0.1482
     11 C           4.6930    1.4344   -1.6971 C.ar    1  LIG1        0.0273
     12 C           3.8742    2.4283   -2.2474 C.ar    1  LIG1        0.0086
     13 C           5.1178   -1.1356    0.7231 C.ar    1  LIG1        0.0032
     14 C           4.3815    3.2026   -3.3512 C.ar    1  LIG1       -0.0079
     15 C           5.9820    0.9054   -1.9072 C.ar    1  LIG1       -0.0102
     16 C           4.1940    0.6959   -0.6354 C.ar    1  LIG1        0.0503
     17 C           2.2346    1.7889   -0.6162 C.ar    1  LIG1        0.0611
     18 C           6.9821    1.3064   -2.9136 C.3     1  LIG1       -0.0001
     19 N           1.0244    4.4234   -2.6408 N.1     1  LIG1       -0.4024
     20 N           6.2816   -0.0825   -1.0573 N.ar    1  LIG1       -0.3195
     21 N           2.9895    0.8161   -0.0504 N.ar    1  LIG1       -0.3272
     22 N           5.1766   -0.1870   -0.2971 N.ar    1  LIG1       -0.2576
     23 O           1.0862    1.9017   -0.0565 O.3     1  LIG1       -0.5023
     24 S           4.1021    2.6510   -4.9480 S.2     1  LIG1       -0.1270
     25 H           4.9551   -3.7701    3.5611 H       1  LIG1        0.1084
     26 H           3.6929   -1.6436    3.7682 H       1  LIG1        0.1221
     27 H           6.3210   -4.2099    1.5387 H       1  LIG1        0.1172
     28 H           5.9623    5.7454   -4.8580 H       1  LIG1        0.1122
     29 H           3.7924    0.0396    1.9644 H       1  LIG1        0.1422
     30 H           6.4306   -2.5360   -0.2742 H       1  LIG1        0.1299
     31 H           5.3721    4.9005   -2.4197 H       1  LIG1        0.1199
     32 H           5.0298    4.0967   -6.6860 H       1  LIG1        0.1574
     33 H           7.6418    2.1007   -2.5261 H       1  LIG1        0.0781
     34 H           7.6225    0.4618   -3.2225 H       1  LIG1        0.0850
     35 H           6.5122    1.6845   -3.8385 H       1  LIG1        0.0755
@<TRIPOS>BOND
     1     1    10    1
     2     1    19    3
     3     2     3   ar
     4     2     4   ar
     5     3     6   ar
     6     4     7   ar
     7     5     8   ar
     8     5     9   ar
     9     6    13   ar
    10     7    13   ar
    11     8    14   ar
    12     9    24   ar
    13    10    12   ar
    14    10    17   ar
    15    11    12   ar
    16    11    15   ar
    17    11    16   ar
    18    12    14    1
    19    13    22    1
    20    14    24   ar
    21    15    18    1
    22    15    20   ar
    23    16    21   ar
    24    16    22   ar
    25    17    21   ar
    26    17    23    1
    27    20    22   ar
    28     2    25    1
    29     3    26    1
    30     4    27    1
    31     5    28    1
    32     6    29    1
    33     7    30    1
    34     8    31    1
    35     9    32    1
    36    18    33    1
    37    18    34    1
    38    18    35    1
