@<TRIPOS>MOLECULE
AG-219/34246016
 40 42 0 0 0
SMALL
USER_CHARGES

@<TRIPOS>ATOM
      1 C           4.9200    5.0864   -5.6317 C.ar    1  LIG1       -0.1024
      2 C           4.3000    3.8604   -5.8727 C.ar    1  LIG1       -0.0983
      3 C           5.2240    5.4694   -4.3252 C.ar    1  LIG1       -0.0955
      4 C           3.9839    3.0174   -4.8073 C.ar    1  LIG1       -0.0776
      5 C           4.9080    4.6263   -3.2599 C.ar    1  LIG1       -0.0726
      6 C           0.0446    1.3405   -0.7296 C.ar    1  LIG1       -0.0499
      7 C           0.9593    2.9521    0.8205 C.ar    1  LIG1       -0.0510
      8 C          -1.2161    1.5039   -0.1556 C.ar    1  LIG1       -0.0700
      9 C          -0.3014    3.1155    1.3945 C.ar    1  LIG1       -0.0707
     10 C           4.8565    1.5777   -1.9463 C.ar    1  LIG1        0.0256
     11 C           4.2879    3.4003   -3.5009 C.ar    1  LIG1       -0.0288
     12 C           1.1323    2.0645   -0.2416 C.ar    1  LIG1        0.0167
     13 C          -1.3892    2.3913    0.9064 C.ar    1  LIG1       -0.0376
     14 C           3.9600    2.5255   -2.3962 C.ar    1  LIG1        0.0046
     15 C           4.4265    0.8043   -0.8874 C.ar    1  LIG1        0.0763
     16 C           2.4333    1.8959   -0.8341 C.ar    1  LIG1        0.0529
     17 C           5.3692   -2.7835    2.2961 C.3     1  LIG1       -0.0632
     18 C           5.8346   -1.9162    1.1403 C.3     1  LIG1       -0.0388
     19 C           4.7644   -0.9247    0.7101 C.3     1  LIG1        0.0301
     20 N           2.7355    2.7125   -1.8615 N.ar    1  LIG1       -0.3442
     21 N           3.2169    0.9369   -0.3049 N.ar    1  LIG1       -0.3274
     22 O           5.2599   -0.1577   -0.3810 O.3     1  LIG1       -0.3704
     23 BR         -3.0972    2.6140    1.6841 Br      1  LIG1       -0.1066
     24 H           5.1676    5.7419   -6.4614 H       1  LIG1        0.1228
     25 H           4.0648    3.5614   -6.8899 H       1  LIG1        0.1204
     26 H           5.7081    6.4232   -4.1369 H       1  LIG1        0.1203
     27 H           3.5009    2.0647   -5.0117 H       1  LIG1        0.1305
     28 H           5.1515    4.9379   -2.2469 H       1  LIG1        0.1413
     29 H           0.1635    0.6447   -1.5570 H       1  LIG1        0.1543
     30 H           1.7972    3.5243    1.2116 H       1  LIG1        0.1513
     31 H          -2.0535    0.9326   -0.5481 H       1  LIG1        0.1379
     32 H          -0.4193    3.8110    2.2213 H       1  LIG1        0.1370
     33 H           5.8354    1.4430   -2.3908 H       1  LIG1        0.1497
     34 H           5.0855   -2.1701    3.1571 H       1  LIG1        0.0348
     35 H           4.4979   -3.3758    1.9994 H       1  LIG1        0.0400
     36 H           6.1580   -3.4740    2.6108 H       1  LIG1        0.0348
     37 H           6.1138   -2.5487    0.2891 H       1  LIG1        0.0557
     38 H           6.7450   -1.3747    1.4242 H       1  LIG1        0.0557
     39 H           3.8570   -1.4448    0.3867 H       1  LIG1        0.1062
     40 H           4.5113   -0.2432    1.5286 H       1  LIG1        0.1061
@<TRIPOS>BOND
     1     1     2   ar
     2     1     3   ar
     3     2     4   ar
     4     3     5   ar
     5     4    11   ar
     6     5    11   ar
     7     6     8   ar
     8     6    12   ar
     9     7     9   ar
    10     7    12   ar
    11     8    13   ar
    12     9    13   ar
    13    10    14   ar
    14    10    15   ar
    15    11    14    1
    16    12    16    1
    17    13    23    1
    18    14    20   ar
    19    15    21   ar
    20    15    22    1
    21    16    20   ar
    22    16    21   ar
    23    17    18    1
    24    18    19    1
    25    19    22    1
    26     1    24    1
    27     2    25    1
    28     3    26    1
    29     4    27    1
    30     5    28    1
    31     6    29    1
    32     7    30    1
    33     8    31    1
    34     9    32    1
    35    10    33    1
    36    17    34    1
    37    17    35    1
    38    17    36    1
    39    18    37    1
    40    18    38    1
    41    19    39    1
    42    19    40    1
