@<TRIPOS>MOLECULE
AO-476/40672205
 46 49 0 0 0
SMALL
USER_CHARGES

@<TRIPOS>ATOM
      1 C           1.9034    3.5509   -2.2520 C.1     1  LIG1        0.0850
      2 C           5.0531   -3.0815    2.7828 C.ar    1  LIG1       -0.0997
      3 C           3.9782   -2.2298    2.5286 C.ar    1  LIG1       -0.0905
      4 C           6.2116   -2.9918    2.0113 C.ar    1  LIG1       -0.0903
      5 C           5.2775    4.3070   -3.1477 C.ar    1  LIG1       -0.0704
      6 C           4.3647    2.6936   -4.6972 C.ar    1  LIG1       -0.0710
      7 C           4.0618   -1.2883    1.5028 C.ar    1  LIG1       -0.0518
      8 C           6.2953   -2.0503    0.9854 C.ar    1  LIG1       -0.0513
      9 C           5.7772    5.0508   -4.2166 C.ar    1  LIG1       -0.0642
     10 C           4.8644    3.4376   -5.7662 C.ar    1  LIG1       -0.0643
     11 C           2.7857    2.5476   -1.7310 C.ar    1  LIG1        0.1667
     12 C           4.8548    1.3585   -1.7122 C.ar    1  LIG1        0.0477
     13 C           4.5713    3.1283   -3.3880 C.ar    1  LIG1       -0.0394
     14 C           4.0539    2.3571   -2.2802 C.ar    1  LIG1        0.0215
     15 C           5.2203   -1.1986    0.7312 C.ar    1  LIG1        0.0048
     16 C           5.5706    4.6161   -5.5258 C.ar    1  LIG1       -0.0096
     17 C           6.1402    0.8137   -1.9025 C.ar    1  LIG1        0.0115
     18 C           4.3347    0.6341   -0.6511 C.ar    1  LIG1        0.0681
     19 C           2.3876    1.7487   -0.6643 C.ar    1  LIG1        0.1397
     20 C          -1.2488    2.3162    1.0968 C.2     1  LIG1       -0.1232
     21 C          -1.1754    1.4649    0.0676 C.2     1  LIG1       -0.0996
     22 C           7.1558    1.1955   -2.9007 C.3     1  LIG1        0.0079
     23 C           0.0804    1.1723   -0.6843 C.3     1  LIG1        0.0507
     24 N           1.1893    4.3627   -2.6736 N.1     1  LIG1       -0.3632
     25 N           6.4185   -0.1707   -1.0414 N.ar    1  LIG1       -0.2953
     26 N           3.1246    0.7721   -0.0817 N.ar    1  LIG1       -0.3076
     27 N           5.3031   -0.2570   -0.2939 N.ar    1  LIG1       -0.2451
     28 O           1.1382    1.9346   -0.1208 O.3     1  LIG1       -0.3434
     29 CL          6.1888    5.5338   -6.8442 Cl      1  LIG1       -0.1358
     30 H           4.9892   -3.8135    3.5825 H       1  LIG1        0.1217
     31 H           3.0765   -2.2986    3.1301 H       1  LIG1        0.1281
     32 H           7.0488   -3.6545    2.2107 H       1  LIG1        0.1280
     33 H           5.4469    4.6587   -2.1328 H       1  LIG1        0.1430
     34 H           3.8169    1.7765   -4.9008 H       1  LIG1        0.1401
     35 H           3.2170   -0.6299    1.3158 H       1  LIG1        0.1368
     36 H           7.2046   -1.9905    0.3922 H       1  LIG1        0.1380
     37 H           6.3276    5.9665   -4.0150 H       1  LIG1        0.1401
     38 H           4.6969    3.0862   -6.7812 H       1  LIG1        0.1396
     39 H          -2.1830    2.4998    1.6157 H       1  LIG1        0.0929
     40 H          -0.3650    2.8453    1.4361 H       1  LIG1        0.0864
     41 H          -2.0809    0.9570   -0.2540 H       1  LIG1        0.1051
     42 H           7.8195    1.9862   -2.5123 H       1  LIG1        0.0895
     43 H           7.7908    0.3416   -3.1951 H       1  LIG1        0.0862
     44 H           6.7005    1.5706   -3.8340 H       1  LIG1        0.0870
     45 H          -0.0050    1.4251   -1.7458 H       1  LIG1        0.1235
     46 H           0.3281    0.1101   -0.5929 H       1  LIG1        0.1260
@<TRIPOS>BOND
     1     1    11    1
     2     1    24    3
     3     2     3   ar
     4     2     4   ar
     5     3     7   ar
     6     4     8   ar
     7     5     9   ar
     8     5    13   ar
     9     6    10   ar
    10     6    13   ar
    11     7    15   ar
    12     8    15   ar
    13     9    16   ar
    14    10    16   ar
    15    11    14   ar
    16    11    19   ar
    17    12    14   ar
    18    12    17   ar
    19    12    18   ar
    20    13    14    1
    21    15    27    1
    22    16    29    1
    23    17    22    1
    24    17    25   ar
    25    18    26   ar
    26    18    27   ar
    27    19    26   ar
    28    19    28    1
    29    20    21    2
    30    21    23    1
    31    23    28    1
    32    25    27   ar
    33     2    30    1
    34     3    31    1
    35     4    32    1
    36     5    33    1
    37     6    34    1
    38     7    35    1
    39     8    36    1
    40     9    37    1
    41    10    38    1
    42    20    39    1
    43    20    40    1
    44    21    41    1
    45    22    42    1
    46    22    43    1
    47    22    44    1
    48    23    45    1
    49    23    46    1
