@<TRIPOS>MOLECULE
AG-690/40749964
 45 47 0 0 0
SMALL
USER_CHARGES

@<TRIPOS>ATOM
      1 C           6.2897    1.2451   -2.4421 C.1     1  LIG1        0.0757
      2 C           0.8564    3.1086    0.4646 C.ar    1  LIG1       -0.0737
      3 C           0.3449    0.8200   -0.1164 C.ar    1  LIG1       -0.0780
      4 C           5.1613    4.4751   -3.2536 C.ar    1  LIG1       -0.0756
      5 C           4.2466    2.8628   -4.8031 C.ar    1  LIG1       -0.0742
      6 C          -0.3912    3.2321    1.0763 C.ar    1  LIG1       -0.0953
      7 C          -0.9026    0.9435    0.4953 C.ar    1  LIG1       -0.0976
      8 C           5.5320    5.2916   -4.3220 C.ar    1  LIG1       -0.0662
      9 C           4.6173    3.6792   -5.8715 C.ar    1  LIG1       -0.0660
     10 C           2.8742    2.5907   -1.8259 C.ar    1  LIG1       -0.0188
     11 C           4.9854    1.4396   -1.8749 C.ar    1  LIG1        0.1154
     12 C           4.5185    3.2607   -3.4941 C.ar    1  LIG1       -0.0529
     13 C           1.2243    1.9026   -0.1318 C.ar    1  LIG1       -0.0315
     14 C           4.1345    2.4134   -2.3858 C.ar    1  LIG1       -0.0070
     15 C          -1.2706    2.1495    1.0917 C.ar    1  LIG1       -0.1148
     16 C           5.2600    4.8937   -5.6309 C.ar    1  LIG1       -0.0112
     17 C           2.5152    1.7749   -0.7651 C.ar    1  LIG1       -0.0026
     18 C           4.5319    0.6755   -0.8118 C.ar    1  LIG1        0.0577
     19 C          -2.6045    2.2815    1.7456 C.3     1  LIG1       -0.0414
     20 C           3.3448   -2.0911    0.5761 C.3     1  LIG1       -0.0520
     21 C           5.1635   -1.8925    2.3063 C.3     1  LIG1       -0.0503
     22 C           4.3928   -1.1789    1.2021 C.3     1  LIG1       -0.0099
     23 N           7.3442    1.0879   -2.9006 N.1     1  LIG1       -0.3592
     24 N           3.3145    0.8185   -0.2417 N.ar    1  LIG1       -0.3581
     25 S           5.5394   -0.6072   -0.0688 S.3     1  LIG1       -0.1257
     26 CL          5.7192    5.9009   -6.9488 Cl      1  LIG1       -0.1374
     27 H           1.5305    3.9618    0.4604 H       1  LIG1        0.1400
     28 H           0.6175   -0.1268   -0.5765 H       1  LIG1        0.1309
     29 H           5.3803    4.7989   -2.2388 H       1  LIG1        0.1352
     30 H           3.7471    1.9185   -5.0069 H       1  LIG1        0.1416
     31 H          -0.6699    4.1758    1.5376 H       1  LIG1        0.1196
     32 H          -1.5814    0.0946    0.5031 H       1  LIG1        0.1206
     33 H           6.0339    6.2347   -4.1204 H       1  LIG1        0.1379
     34 H           4.4001    3.3560   -6.8865 H       1  LIG1        0.1385
     35 H           2.1905    3.3448   -2.2062 H       1  LIG1        0.1501
     36 H          -3.3512    2.6318    1.0226 H       1  LIG1        0.0589
     37 H          -2.9428    1.3222    2.1580 H       1  LIG1        0.0551
     38 H          -2.5696    2.9921    2.5818 H       1  LIG1        0.0549
     39 H           3.8207   -2.9813    0.1499 H       1  LIG1        0.0423
     40 H           2.6192   -2.4352    1.3217 H       1  LIG1        0.0518
     41 H           2.7980   -1.5917   -0.2318 H       1  LIG1        0.0384
     42 H           5.6674   -2.7797    1.9066 H       1  LIG1        0.0445
     43 H           4.4943   -2.2302    3.1054 H       1  LIG1        0.0536
     44 H           5.9322   -1.2493    2.7497 H       1  LIG1        0.0444
     45 H           3.8975   -0.2967    1.6216 H       1  LIG1        0.0923
@<TRIPOS>BOND
     1     1    11    1
     2     1    23    3
     3     2     6   ar
     4     2    13   ar
     5     3     7   ar
     6     3    13   ar
     7     4     8   ar
     8     4    12   ar
     9     5     9   ar
    10     5    12   ar
    11     6    15   ar
    12     7    15   ar
    13     8    16   ar
    14     9    16   ar
    15    10    14   ar
    16    10    17   ar
    17    11    14   ar
    18    11    18   ar
    19    12    14    1
    20    13    17    1
    21    15    19    1
    22    16    26    1
    23    17    24   ar
    24    18    24   ar
    25    18    25    1
    26    20    22    1
    27    21    22    1
    28    22    25    1
    29     2    27    1
    30     3    28    1
    31     4    29    1
    32     5    30    1
    33     6    31    1
    34     7    32    1
    35     8    33    1
    36     9    34    1
    37    10    35    1
    38    19    36    1
    39    19    37    1
    40    19    38    1
    41    20    39    1
    42    20    40    1
    43    20    41    1
    44    21    42    1
    45    21    43    1
    46    21    44    1
    47    22    45    1
