@<TRIPOS>MOLECULE
AO-476/43380569
 37 40 0 0 0
SMALL
USER_CHARGES

@<TRIPOS>ATOM
      1 C           1.7321    3.6096   -2.2120 C.1     1  LIG1        0.0651
      2 C           4.9992   -3.0323    2.7656 C.ar    1  LIG1       -0.1086
      3 C           4.2901   -1.8367    2.8820 C.ar    1  LIG1       -0.0948
      4 C           5.7678   -3.2794    1.6281 C.ar    1  LIG1       -0.0990
      5 C           4.6615    3.5796   -5.7149 C.ar    1  LIG1       -0.0695
      6 C           4.1702    2.8052   -4.6697 C.ar    1  LIG1       -0.0705
      7 C           4.3493   -0.8885    1.8608 C.ar    1  LIG1       -0.0486
      8 C           5.8271   -2.3311    0.6069 C.ar    1  LIG1       -0.0541
      9 C           5.3439    4.7424   -5.3954 C.ar    1  LIG1       -0.0461
     10 C           5.0691    4.3907   -3.1417 C.ar    1  LIG1       -0.0200
     11 C           2.6113    2.6003   -1.6815 C.ar    1  LIG1        0.1396
     12 C           4.6933    1.4342   -1.6971 C.ar    1  LIG1        0.0213
     13 C           4.3735    3.2115   -3.3557 C.ar    1  LIG1       -0.0193
     14 C           3.8746    2.4282   -2.2474 C.ar    1  LIG1       -0.0010
     15 C           5.1178   -1.1357    0.7232 C.ar    1  LIG1        0.0030
     16 C           5.9823    0.9051   -1.9072 C.ar    1  LIG1       -0.0108
     17 C           4.1941    0.6958   -0.6354 C.ar    1  LIG1        0.0479
     18 C           2.2349    1.7889   -0.6164 C.ar    1  LIG1        0.0564
     19 C           6.9819    1.3066   -2.9137 C.3     1  LIG1       -0.0002
     20 N           1.0234    4.4230   -2.6398 N.1     1  LIG1       -0.4056
     21 N           5.5611    5.1694   -4.1312 N.ar    1  LIG1       -0.4008
     22 N           6.2818   -0.0827   -1.0572 N.ar    1  LIG1       -0.3196
     23 N           2.9896    0.8161   -0.0505 N.ar    1  LIG1       -0.3290
     24 N           5.1767   -0.1872   -0.2971 N.ar    1  LIG1       -0.2580
     25 O           1.0864    1.9017   -0.0565 O.3     1  LIG1       -0.5039
     26 H           4.9548   -3.7702    3.5613 H       1  LIG1        0.1085
     27 H           3.6927   -1.6435    3.7681 H       1  LIG1        0.1219
     28 H           6.3208   -4.2100    1.5390 H       1  LIG1        0.1173
     29 H           4.5159    3.2828   -6.7471 H       1  LIG1        0.1233
     30 H           3.6309    1.8883   -4.8942 H       1  LIG1        0.1410
     31 H           3.7924    0.0396    1.9644 H       1  LIG1        0.1419
     32 H           6.4306   -2.5363   -0.2740 H       1  LIG1        0.1301
     33 H           5.7465    5.3817   -6.1744 H       1  LIG1        0.1936
     34 H           5.2621    4.7623   -2.1394 H       1  LIG1        0.2086
     35 H           7.6416    2.1011   -2.5262 H       1  LIG1        0.0832
     36 H           7.6225    0.4623   -3.2229 H       1  LIG1        0.0782
     37 H           6.5117    1.6848   -3.8385 H       1  LIG1        0.0783
@<TRIPOS>BOND
     1     1    11    1
     2     1    20    3
     3     2     3   ar
     4     2     4   ar
     5     3     7   ar
     6     4     8   ar
     7     5     6   ar
     8     5     9   ar
     9     6    13   ar
    10     7    15   ar
    11     8    15   ar
    12     9    21   ar
    13    10    13   ar
    14    10    21   ar
    15    11    14   ar
    16    11    18   ar
    17    12    14   ar
    18    12    16   ar
    19    12    17   ar
    20    13    14    1
    21    15    24    1
    22    16    19    1
    23    16    22   ar
    24    17    23   ar
    25    17    24   ar
    26    18    23   ar
    27    18    25    1
    28    22    24   ar
    29     2    26    1
    30     3    27    1
    31     4    28    1
    32     5    29    1
    33     6    30    1
    34     7    31    1
    35     8    32    1
    36     9    33    1
    37    10    34    1
    38    19    35    1
    39    19    36    1
    40    19    37    1
