@<TRIPOS>MOLECULE
AG-205/36286009
 48 50 0 0 0
SMALL
USER_CHARGES

@<TRIPOS>ATOM
      1 C          -1.2533    2.0720    1.1498 C.ar    1  LIG1       -0.0961
      2 C          -0.8393    0.9338    0.4578 C.ar    1  LIG1       -0.0922
      3 C          -0.4740    3.2285    1.1197 C.ar    1  LIG1       -0.0865
      4 C           5.4336    4.2192   -3.4020 C.ar    1  LIG1       -0.0739
      5 C           3.6215    3.4735   -4.8153 C.ar    1  LIG1       -0.0742
      6 C           5.9686    4.9412   -4.4688 C.ar    1  LIG1       -0.0964
      7 C           4.1565    4.1956   -5.8821 C.ar    1  LIG1       -0.0962
      8 C           0.3540    0.9521   -0.2642 C.ar    1  LIG1       -0.0610
      9 C           0.7193    3.2468    0.3978 C.ar    1  LIG1       -0.0509
     10 C           4.3358    1.7000   -1.7635 C.ar    1  LIG1       -0.0078
     11 C           4.2602    3.4852   -3.5753 C.ar    1  LIG1       -0.0316
     12 C           5.3300    4.9295   -5.7088 C.ar    1  LIG1       -0.1152
     13 C           1.1334    2.1087   -0.2942 C.ar    1  LIG1       -0.0055
     14 C           3.7082    2.7408   -2.4739 C.ar    1  LIG1        0.0170
     15 C           3.4111    1.3211   -0.8214 C.ar    1  LIG1        0.0182
     16 C           4.4526   -0.5284    0.4777 C.2     1  LIG1       -0.0102
     17 C           4.5209   -1.4776    1.4257 C.2     1  LIG1        0.0666
     18 C           5.7746   -2.2923    1.5239 C.2     1  LIG1        0.0618
     19 C           3.3688   -1.7132    2.3568 C.2     1  LIG1        0.0565
     20 C           5.9020    5.7030   -6.8484 C.3     1  LIG1       -0.0423
     21 C           5.8367   -3.3532    2.5921 C.3     1  LIG1        0.0283
     22 C           2.2947   -2.7043    1.9828 C.3     1  LIG1        0.0281
     23 N           2.4796    3.0059   -2.0218 N.ar    1  LIG1       -0.3021
     24 N           2.3278    2.1262   -1.0173 N.ar    1  LIG1       -0.2666
     25 N           3.4466    0.3379    0.1775 N.pl3   1  LIG1       -0.3196
     26 O           6.7253   -2.0986    0.7681 O.2     1  LIG1       -0.4751
     27 O           3.2953   -1.0861    3.4144 O.2     1  LIG1       -0.4899
     28 H          -2.1833    2.0588    1.7106 H       1  LIG1        0.1263
     29 H          -1.4466    0.0337    0.4799 H       1  LIG1        0.1337
     30 H          -0.7978    4.1148    1.6577 H       1  LIG1        0.1335
     31 H           5.9441    4.2382   -2.4419 H       1  LIG1        0.1337
     32 H           2.7060    2.9064   -4.9663 H       1  LIG1        0.1327
     33 H           6.8827    5.5110   -4.3251 H       1  LIG1        0.1199
     34 H           3.6528    4.1815   -6.8450 H       1  LIG1        0.1215
     35 H           0.6648    0.0584   -0.7998 H       1  LIG1        0.1223
     36 H           1.3168    4.1552    0.3821 H       1  LIG1        0.1423
     37 H           5.3211    1.2809   -1.9112 H       1  LIG1        0.1409
     38 H           5.2819   -0.3525   -0.1981 H       1  LIG1        0.2537
     39 H           6.6033    5.0813   -7.4183 H       1  LIG1        0.0581
     40 H           5.1142    6.0517   -7.5287 H       1  LIG1        0.0543
     41 H           6.4354    6.5956   -6.4963 H       1  LIG1        0.0548
     42 H           5.4575   -4.2971    2.1931 H       1  LIG1        0.0779
     43 H           5.2245   -3.0396    3.4427 H       1  LIG1        0.0753
     44 H           6.8599   -3.4880    2.9532 H       1  LIG1        0.0740
     45 H           2.5569   -3.6977    2.3545 H       1  LIG1        0.0652
     46 H           1.3246   -2.3860    2.3737 H       1  LIG1        0.0789
     47 H           2.2112   -2.7481    0.8923 H       1  LIG1        0.0813
     48 H           2.6225    0.2511    0.7567 H       1  LIG1        0.3367
@<TRIPOS>BOND
     1     1     2   ar
     2     1     3   ar
     3     2     8   ar
     4     3     9   ar
     5     4     6   ar
     6     4    11   ar
     7     5     7   ar
     8     5    11   ar
     9     6    12   ar
    10     7    12   ar
    11     8    13   ar
    12     9    13   ar
    13    10    14   ar
    14    10    15   ar
    15    11    14    1
    16    12    20    1
    17    13    24    1
    18    14    23   ar
    19    15    24   ar
    20    15    25    1
    21    16    17    2
    22    16    25    1
    23    17    18    1
    24    17    19    1
    25    18    21    1
    26    18    26    2
    27    19    22    1
    28    19    27    2
    29    23    24   ar
    30     1    28    1
    31     2    29    1
    32     3    30    1
    33     4    31    1
    34     5    32    1
    35     6    33    1
    36     7    34    1
    37     8    35    1
    38     9    36    1
    39    10    37    1
    40    16    38    1
    41    20    39    1
    42    20    40    1
    43    20    41    1
    44    21    42    1
    45    21    43    1
    46    21    44    1
    47    22    45    1
    48    22    46    1
    49    22    47    1
    50    25    48    1
