@<TRIPOS>MOLECULE
AO-476/43201381
 42 45 0 0 0
SMALL
USER_CHARGES

@<TRIPOS>ATOM
      1 C           5.4471   -3.3730    2.8548 C.ar    1  LIG1       -0.0957
      2 C           5.4457   -3.6202    1.4820 C.ar    1  LIG1       -0.0889
      3 C           5.1504   -2.0972    3.3341 C.ar    1  LIG1       -0.0866
      4 C           5.1477   -2.5913    0.5885 C.ar    1  LIG1       -0.0548
      5 C           4.8524   -1.0683    2.4406 C.ar    1  LIG1       -0.0513
      6 C           4.6515    1.1773   -1.4064 C.ar    1  LIG1        0.0157
      7 C           3.3808    1.2479   -0.7282 C.ar    1  LIG1        0.0849
      8 C           4.8511   -1.3154    1.0677 C.ar    1  LIG1       -0.0020
      9 C           5.0607    1.9677   -2.4698 C.ar    1  LIG1       -0.0044
     10 C           5.3760    0.1883   -0.8071 C.ar    1  LIG1       -0.0128
     11 C           2.4190    2.1847   -1.1330 C.ar    1  LIG1        0.0941
     12 C           0.8200    3.6040    0.0852 C.3     1  LIG1        0.0046
     13 C           0.5231    1.1426    0.0812 C.3     1  LIG1        0.0053
     14 C          -0.6939    3.7203    0.2217 C.3     1  LIG1        0.0213
     15 C          -0.9750    1.3904    0.2185 C.3     1  LIG1        0.0224
     16 C           6.3504    1.9426   -3.2037 C.3     1  LIG1       -0.0003
     17 C           6.7307   -0.3488   -1.0503 C.3     1  LIG1        0.0043
     18 N           3.3531    0.3243    0.2480 N.ar    1  LIG1       -0.2945
     19 N           4.1079    2.8651   -2.8388 N.ar    1  LIG1       -0.2969
     20 N           2.8072    2.9694   -2.1779 N.ar    1  LIG1       -0.2596
     21 N           4.5528   -0.2863    0.1730 N.ar    1  LIG1       -0.2787
     22 N           1.1654    2.3133   -0.5262 N.pl3   1  LIG1       -0.3589
     23 O          -1.2182    2.6004    0.9350 O.3     1  LIG1       -0.4567
     24 H           5.6773   -4.1741    3.5510 H       1  LIG1        0.1279
     25 H           5.6753   -4.6138    1.1086 H       1  LIG1        0.1322
     26 H           5.1503   -1.9059    4.4033 H       1  LIG1        0.1317
     27 H           5.1492   -2.7976   -0.4790 H       1  LIG1        0.1361
     28 H           4.6222   -0.0787    2.8278 H       1  LIG1        0.1407
     29 H           1.1971    4.4350   -0.5223 H       1  LIG1        0.1054
     30 H           1.2834    3.6651    1.0783 H       1  LIG1        0.1293
     31 H           0.9577    0.9688    1.0740 H       1  LIG1        0.1310
     32 H           0.6904    0.2471   -0.5288 H       1  LIG1        0.1068
     33 H          -0.9490    4.6257    0.7816 H       1  LIG1        0.1326
     34 H          -1.1806    3.7892   -0.7588 H       1  LIG1        0.0939
     35 H          -1.4615    1.4449   -0.7631 H       1  LIG1        0.1340
     36 H          -1.4405    0.5697    0.7736 H       1  LIG1        0.0946
     37 H           6.3000    1.2498   -4.0559 H       1  LIG1        0.0780
     38 H           6.6180    2.9384   -3.5881 H       1  LIG1        0.0741
     39 H           7.1806    1.6261   -2.5543 H       1  LIG1        0.0797
     40 H           7.4839    0.1927   -0.4560 H       1  LIG1        0.0889
     41 H           6.8030   -1.4183   -0.7909 H       1  LIG1        0.0798
     42 H           7.0206   -0.2714   -2.1118 H       1  LIG1        0.0926
@<TRIPOS>BOND
     1     1     2   ar
     2     1     3   ar
     3     2     4   ar
     4     3     5   ar
     5     4     8   ar
     6     5     8   ar
     7     6     7   ar
     8     6     9   ar
     9     6    10   ar
    10     7    11   ar
    11     7    18   ar
    12     8    21    1
    13     9    16    1
    14     9    19   ar
    15    10    17    1
    16    10    21   ar
    17    11    20   ar
    18    11    22    1
    19    12    14    1
    20    12    22    1
    21    13    15    1
    22    13    22    1
    23    14    23    1
    24    15    23    1
    25    18    21   ar
    26    19    20   ar
    27     1    24    1
    28     2    25    1
    29     3    26    1
    30     4    27    1
    31     5    28    1
    32    12    29    1
    33    12    30    1
    34    13    31    1
    35    13    32    1
    36    14    33    1
    37    14    34    1
    38    15    35    1
    39    15    36    1
    40    16    37    1
    41    16    38    1
    42    16    39    1
    43    17    40    1
    44    17    41    1
    45    17    42    1
