@<TRIPOS>MOLECULE
AM-807/13104264
 37 39 0 0 0
SMALL
USER_CHARGES

@<TRIPOS>ATOM
      1 C           6.1932    1.4126   -2.4230 C.1     1  LIG1        0.0781
      2 C           5.2825   -3.2438    1.3350 C.1     1  LIG1        0.0123
      3 C          -0.9002    2.8847    0.6641 C.ar    1  LIG1       -0.1017
      4 C           5.0377    4.6147   -3.3078 C.ar    1  LIG1       -0.0753
      5 C           4.1477    2.9607   -4.8275 C.ar    1  LIG1       -0.0739
      6 C           5.4060    5.4120   -4.3914 C.ar    1  LIG1       -0.0657
      7 C           4.5160    3.7580   -5.9111 C.ar    1  LIG1       -0.0654
      8 C           0.3084    3.1724   -0.0336 C.ar    1  LIG1       -0.0834
      9 C           2.7619    2.7379   -1.8526 C.ar    1  LIG1       -0.0105
     10 C          -0.9717    1.5652    1.0530 C.ar    1  LIG1       -0.0418
     11 C           4.8842    1.6066   -1.8664 C.ar    1  LIG1        0.1186
     12 C           4.4086    3.3889   -3.5258 C.ar    1  LIG1       -0.0517
     13 C           4.0271    2.5615   -2.4018 C.ar    1  LIG1       -0.0026
     14 C           5.1452    4.9838   -5.6930 C.ar    1  LIG1       -0.0104
     15 C           2.4048    1.9407   -0.7772 C.ar    1  LIG1        0.0098
     16 C           1.1148    2.0615   -0.1511 C.ar    1  LIG1        0.0150
     17 C           4.4322    0.8600   -0.7903 C.ar    1  LIG1        0.0648
     18 C           4.8889   -2.0664    2.1230 C.3     1  LIG1        0.0850
     19 C           4.2994   -0.9545    1.2598 C.3     1  LIG1        0.0427
     20 N           7.2514    1.2559   -2.8729 N.1     1  LIG1       -0.3556
     21 N           5.5943   -4.1737    0.7150 N.1     1  LIG1       -0.3957
     22 N           3.2102    1.0029   -0.2299 N.ar    1  LIG1       -0.3509
     23 S           0.4144    0.6792    0.5774 S.2     1  LIG1       -0.1147
     24 S           5.4473   -0.3985   -0.0167 S.3     1  LIG1       -0.1082
     25 CL          5.6013    5.9675   -7.0295 Cl      1  LIG1       -0.1364
     26 H          -1.6775    3.6086    0.8710 H       1  LIG1        0.1165
     27 H           5.2479    4.9621   -2.2991 H       1  LIG1        0.1361
     28 H           3.6589    2.0072   -5.0137 H       1  LIG1        0.1423
     29 H           5.8974    6.3642   -4.2072 H       1  LIG1        0.1386
     30 H           4.3076    3.4112   -6.9200 H       1  LIG1        0.1393
     31 H           0.5664    4.1487   -0.4252 H       1  LIG1        0.1351
     32 H           2.0727    3.4771   -2.2519 H       1  LIG1        0.1534
     33 H          -1.7713    1.0792    1.5941 H       1  LIG1        0.1740
     34 H           4.1867   -2.3567    2.9133 H       1  LIG1        0.1397
     35 H           5.7802   -1.6756    2.6291 H       1  LIG1        0.1397
     36 H           4.0152   -0.0908    1.8704 H       1  LIG1        0.1015
     37 H           3.3979   -1.3197    0.7571 H       1  LIG1        0.1015
@<TRIPOS>BOND
     1     1    11    1
     2     1    20    3
     3     2    18    1
     4     2    21    3
     5     3     8   ar
     6     3    10   ar
     7     4     6   ar
     8     4    12   ar
     9     5     7   ar
    10     5    12   ar
    11     6    14   ar
    12     7    14   ar
    13     8    16   ar
    14     9    13   ar
    15     9    15   ar
    16    10    23   ar
    17    11    13   ar
    18    11    17   ar
    19    12    13    1
    20    14    25    1
    21    15    16    1
    22    15    22   ar
    23    16    23   ar
    24    17    22   ar
    25    17    24    1
    26    18    19    1
    27    19    24    1
    28     3    26    1
    29     4    27    1
    30     5    28    1
    31     6    29    1
    32     7    30    1
    33     8    31    1
    34     9    32    1
    35    10    33    1
    36    18    34    1
    37    18    35    1
    38    19    36    1
    39    19    37    1
