@<TRIPOS>MOLECULE
AH-487/40652383
 40 43 0 0 0
SMALL
USER_CHARGES

@<TRIPOS>ATOM
      1 C          -1.2660    2.0960    1.1449 C.ar    1  LIG1       -0.0991
      2 C          -0.5335    0.9193    0.9888 C.ar    1  LIG1       -0.0903
      3 C          -0.8048    3.2849    0.5797 C.ar    1  LIG1       -0.0896
      4 C           4.5968    3.7660   -5.9497 C.ar    1  LIG1       -0.0839
      5 C           4.0679    3.0407   -4.8821 C.ar    1  LIG1       -0.0654
      6 C           0.6603    0.9316    0.2675 C.ar    1  LIG1       -0.0521
      7 C           0.3890    3.2971   -0.1416 C.ar    1  LIG1       -0.0513
      8 C           5.3217    4.9332   -5.7088 C.ar    1  LIG1       -0.0761
      9 C           4.9885    4.6499   -3.3327 C.ar    1  LIG1       -0.0497
     10 C           5.7263   -0.0114   -0.8236 C.ar    1  LIG1       -0.0239
     11 C           4.3349    1.6876   -1.7575 C.ar    1  LIG1        0.0501
     12 C           4.2636    3.4827   -3.5737 C.ar    1  LIG1       -0.0154
     13 C           5.5547    0.9998   -1.7691 C.ar    1  LIG1        0.0665
     14 C           1.1216    2.1205   -0.2977 C.ar    1  LIG1        0.0043
     15 C           5.5176    5.3751   -4.4004 C.ar    1  LIG1       -0.0300
     16 C           3.7156    2.7323   -2.4721 C.ar    1  LIG1        0.0511
     17 C           4.6938   -0.2808    0.0685 C.ar    1  LIG1       -0.0246
     18 C           3.3897    1.3178   -0.8134 C.ar    1  LIG1        0.0657
     19 C           4.8924   -1.3681    1.0758 C.3     1  LIG1        0.0068
     20 C           6.6608    1.2924   -2.7283 C.3     1  LIG1        0.3660
     21 N           2.4853    3.0070   -2.0262 N.ar    1  LIG1       -0.2721
     22 N           3.4984    0.3554    0.1191 N.ar    1  LIG1       -0.3437
     23 N           2.3151    2.1318   -1.0188 N.ar    1  LIG1       -0.2421
     24 F           7.7576    0.4977   -2.5557 F       1  LIG1       -0.1806
     25 F           6.3049    1.1310   -4.0364 F       1  LIG1       -0.1776
     26 F           7.1164    2.5743   -2.6266 F       1  LIG1       -0.1766
     27 BR          6.5007    6.9560   -4.0740 Br      1  LIG1       -0.1067
     28 H          -2.1965    2.0867    1.7049 H       1  LIG1        0.1225
     29 H          -0.8931   -0.0067    1.4277 H       1  LIG1        0.1284
     30 H          -1.3765    4.2006    0.7005 H       1  LIG1        0.1293
     31 H           4.4449    3.4214   -6.9684 H       1  LIG1        0.1343
     32 H           3.5047    2.1330   -5.0861 H       1  LIG1        0.1489
     33 H           1.2212    0.0072    0.1526 H       1  LIG1        0.1369
     34 H           0.7367    4.2306   -0.5775 H       1  LIG1        0.1383
     35 H           5.7272    5.4867   -6.5519 H       1  LIG1        0.1411
     36 H           5.1413    4.9937   -2.3116 H       1  LIG1        0.1490
     37 H           6.6526   -0.5779   -0.7847 H       1  LIG1        0.1550
     38 H           5.3349   -0.9593    1.9907 H       1  LIG1        0.0875
     39 H           3.9406   -1.8488    1.3302 H       1  LIG1        0.0849
     40 H           5.5532   -2.1512    0.6856 H       1  LIG1        0.0844
@<TRIPOS>BOND
     1     1     2   ar
     2     1     3   ar
     3     2     6   ar
     4     3     7   ar
     5     4     5   ar
     6     4     8   ar
     7     5    12   ar
     8     6    14   ar
     9     7    14   ar
    10     8    15   ar
    11     9    12   ar
    12     9    15   ar
    13    10    13   ar
    14    10    17   ar
    15    11    13   ar
    16    11    16   ar
    17    11    18   ar
    18    12    16    1
    19    13    20    1
    20    14    23    1
    21    15    27    1
    22    16    21   ar
    23    17    19    1
    24    17    22   ar
    25    18    22   ar
    26    18    23   ar
    27    20    24    1
    28    20    25    1
    29    20    26    1
    30    21    23   ar
    31     1    28    1
    32     2    29    1
    33     3    30    1
    34     4    31    1
    35     5    32    1
    36     6    33    1
    37     7    34    1
    38     8    35    1
    39     9    36    1
    40    10    37    1
    41    19    38    1
    42    19    39    1
    43    19    40    1
