@<TRIPOS>MOLECULE
AK-249/12180001
 55 59 0 0 0
SMALL
USER_CHARGES

@<TRIPOS>ATOM
      1 C          -1.2538    2.0780    1.1616 C.ar    1  LIG1       -0.1013
      2 C           5.2013   -3.4833    1.7354 C.ar    1  LIG1       -0.0976
      3 C          -0.8224    0.9338    0.4905 C.ar    1  LIG1       -0.0908
      4 C          -0.5016    3.2508    1.0951 C.ar    1  LIG1       -0.0921
      5 C           5.0928   -3.1361    3.0820 C.ar    1  LIG1       -0.1011
      6 C           5.0845   -2.5023    0.7506 C.ar    1  LIG1       -0.0655
      7 C           0.3613    0.9623   -0.2467 C.ar    1  LIG1       -0.0503
      8 C           0.6821    3.2793    0.3578 C.ar    1  LIG1       -0.0519
      9 C           4.8672   -1.8081    3.4439 C.ar    1  LIG1       -0.0617
     10 C           6.5776    1.3862   -2.7479 C.ar    1  LIG1       -0.0326
     11 C           7.0019   -0.5932   -0.8093 C.ar    1  LIG1       -0.0307
     12 C           5.5678    1.0870   -1.8128 C.ar    1  LIG1       -0.0461
     13 C           5.7758    0.0906   -0.8337 C.ar    1  LIG1       -0.0090
     14 C           4.3202    1.7543   -1.8065 C.ar    1  LIG1        0.0144
     15 C           4.8589   -1.1742    1.1125 C.ar    1  LIG1        0.0277
     16 C           1.1136    2.1350   -0.3132 C.ar    1  LIG1        0.0044
     17 C           4.7503   -0.8271    2.4592 C.ar    1  LIG1        0.0216
     18 C           7.7876    0.6945   -2.7050 C.ar    1  LIG1        0.0467
     19 C           7.9988   -0.2908   -1.7401 C.ar    1  LIG1        0.0453
     20 C           4.7401   -0.1686    0.0724 C.ar    1  LIG1        0.0326
     21 C           3.6595    2.7679   -2.5348 C.ar    1  LIG1       -0.0015
     22 C           3.3956    1.3825   -0.8424 C.ar    1  LIG1        0.0567
     23 C           4.1525    3.5427   -3.6878 C.3     1  LIG1        0.0025
     24 C           5.6763    1.2759    3.0719 C.3     1  LIG1        0.0289
     25 C           9.6935    2.0060   -3.2554 C.3     1  LIG1        0.0291
     26 C           9.3208   -1.9600   -0.6809 C.3     1  LIG1        0.0258
     27 N           3.5331    0.4469    0.1118 N.ar    1  LIG1       -0.3271
     28 N           2.4286    3.0192   -2.0785 N.ar    1  LIG1       -0.3057
     29 N           2.2967    2.1628   -1.0506 N.ar    1  LIG1       -0.2532
     30 O           4.5282    0.4630    2.8415 O.3     1  LIG1       -0.4030
     31 O           8.7590    0.9902   -3.6138 O.3     1  LIG1       -0.3999
     32 O           9.1809   -0.9682   -1.6957 O.3     1  LIG1       -0.4061
     33 H          -2.1763    2.0568    1.7342 H       1  LIG1        0.1194
     34 H           5.3773   -4.5173    1.4539 H       1  LIG1        0.1157
     35 H          -1.4086    0.0209    0.5411 H       1  LIG1        0.1264
     36 H          -0.8391    4.1418    1.6167 H       1  LIG1        0.1258
     37 H           5.1838   -3.9001    3.8486 H       1  LIG1        0.1301
     38 H           5.1714   -2.7897   -0.2946 H       1  LIG1        0.1409
     39 H           0.6858    0.0636   -0.7657 H       1  LIG1        0.1382
     40 H           1.2584    4.2003    0.3137 H       1  LIG1        0.1358
     41 H           4.7838   -1.5452    4.4950 H       1  LIG1        0.1152
     42 H           6.4351    2.1494   -3.5070 H       1  LIG1        0.1367
     43 H           7.2039   -1.3660   -0.0711 H       1  LIG1        0.1436
     44 H           3.9039    3.0439   -4.6397 H       1  LIG1        0.0857
     45 H           3.7215    4.5586   -3.7211 H       1  LIG1        0.0835
     46 H           5.2479    3.6793   -3.6591 H       1  LIG1        0.0820
     47 H           5.3600    2.2784    3.3701 H       1  LIG1        0.1216
     48 H           6.2762    1.3278    2.1598 H       1  LIG1        0.0912
     49 H           6.2720    0.8310    3.8725 H       1  LIG1        0.0901
     50 H          10.4128    2.1430   -4.0666 H       1  LIG1        0.1249
     51 H          10.2131    1.7173   -2.3382 H       1  LIG1        0.0915
     52 H           9.1546    2.9416   -3.0875 H       1  LIG1        0.0910
     53 H          10.3075   -2.4234   -0.7568 H       1  LIG1        0.1236
     54 H           8.5410   -2.7166   -0.7996 H       1  LIG1        0.0893
     55 H           9.2183   -1.4846    0.2975 H       1  LIG1        0.0895
@<TRIPOS>BOND
     1     1     3   ar
     2     1     4   ar
     3     2     5   ar
     4     2     6   ar
     5     3     7   ar
     6     4     8   ar
     7     5     9   ar
     8     6    15   ar
     9     7    16   ar
    10     8    16   ar
    11     9    17   ar
    12    10    12   ar
    13    10    18   ar
    14    11    13   ar
    15    11    19   ar
    16    12    13   ar
    17    12    14   ar
    18    13    20   ar
    19    14    21   ar
    20    14    22   ar
    21    15    17   ar
    22    15    20    1
    23    16    29    1
    24    17    30    1
    25    18    19   ar
    26    18    31    1
    27    19    32    1
    28    20    27   ar
    29    21    23    1
    30    21    28   ar
    31    22    27   ar
    32    22    29   ar
    33    24    30    1
    34    25    31    1
    35    26    32    1
    36    28    29   ar
    37     1    33    1
    38     2    34    1
    39     3    35    1
    40     4    36    1
    41     5    37    1
    42     6    38    1
    43     7    39    1
    44     8    40    1
    45     9    41    1
    46    10    42    1
    47    11    43    1
    48    23    44    1
    49    23    45    1
    50    23    46    1
    51    24    47    1
    52    24    48    1
    53    24    49    1
    54    25    50    1
    55    25    51    1
    56    25    52    1
    57    26    53    1
    58    26    54    1
    59    26    55    1
