@<TRIPOS>MOLECULE
AG-690/40749470
 46 48 0 0 0
SMALL
USER_CHARGES

@<TRIPOS>ATOM
      1 C           6.2896    1.2450   -2.4421 C.1     1  LIG1        0.0751
      2 C           0.8560    3.1087    0.4646 C.ar    1  LIG1       -0.0767
      3 C           0.3450    0.8200   -0.1164 C.ar    1  LIG1       -0.0631
      4 C           5.1613    4.4751   -3.2536 C.ar    1  LIG1       -0.0756
      5 C           4.2466    2.8628   -4.8031 C.ar    1  LIG1       -0.0743
      6 C          -0.3913    3.2320    1.0765 C.ar    1  LIG1       -0.0646
      7 C          -0.9024    0.9432    0.4955 C.ar    1  LIG1       -0.0498
      8 C           5.5322    5.2916   -4.3221 C.ar    1  LIG1       -0.0663
      9 C           4.6174    3.6792   -5.8715 C.ar    1  LIG1       -0.0662
     10 C           2.8742    2.5908   -1.8260 C.ar    1  LIG1       -0.0198
     11 C           4.9853    1.4397   -1.8749 C.ar    1  LIG1        0.1150
     12 C           4.5186    3.2607   -3.4941 C.ar    1  LIG1       -0.0529
     13 C           1.2242    1.9028   -0.1319 C.ar    1  LIG1       -0.0292
     14 C           4.1345    2.4135   -2.3858 C.ar    1  LIG1       -0.0075
     15 C          -1.2705    2.1493    1.0919 C.ar    1  LIG1       -0.0116
     16 C           5.2602    4.8937   -5.6310 C.ar    1  LIG1       -0.0113
     17 C           2.5151    1.7751   -0.7652 C.ar    1  LIG1       -0.0048
     18 C           4.5318    0.6755   -0.8118 C.ar    1  LIG1        0.0574
     19 C           4.7686   -2.5903    1.6364 C.3     1  LIG1       -0.0520
     20 C           4.4071   -0.2118    2.3799 C.3     1  LIG1       -0.0503
     21 C          -2.7989    3.5304    2.2804 C.3     1  LIG1        0.0250
     22 C           4.3926   -1.1788    1.2021 C.3     1  LIG1       -0.0099
     23 N           7.3441    1.0878   -2.9006 N.1     1  LIG1       -0.3600
     24 N           3.3144    0.8186   -0.2417 N.ar    1  LIG1       -0.3590
     25 O          -2.4873    2.2696    1.6895 O.3     1  LIG1       -0.4155
     26 S           5.5392   -0.6072   -0.0687 S.3     1  LIG1       -0.1257
     27 CL          5.7194    5.9009   -6.9488 Cl      1  LIG1       -0.1376
     28 H           1.5305    3.9617    0.4607 H       1  LIG1        0.1389
     29 H           0.6174   -0.1266   -0.5769 H       1  LIG1        0.1532
     30 H           5.3804    4.7989   -2.2389 H       1  LIG1        0.1352
     31 H           3.7471    1.9185   -5.0069 H       1  LIG1        0.1415
     32 H          -0.6724    4.1739    1.5396 H       1  LIG1        0.1153
     33 H          -1.5831    0.0964    0.5047 H       1  LIG1        0.1312
     34 H           6.0341    6.2347   -4.1204 H       1  LIG1        0.1379
     35 H           4.4002    3.3560   -6.8865 H       1  LIG1        0.1383
     36 H           2.1905    3.3450   -2.2063 H       1  LIG1        0.1486
     37 H           5.7699   -2.5976    2.0813 H       1  LIG1        0.0383
     38 H           4.0737   -2.9734    2.3921 H       1  LIG1        0.0426
     39 H           4.7786   -3.2890    0.7921 H       1  LIG1        0.0518
     40 H           5.4029   -0.1825    2.8362 H       1  LIG1        0.0444
     41 H           3.7008   -0.5211    3.1585 H       1  LIG1        0.0537
     42 H           4.1555    0.8099    2.0733 H       1  LIG1        0.0443
     43 H          -3.7979    3.4900    2.7214 H       1  LIG1        0.0904
     44 H          -2.7572    4.3117    1.5173 H       1  LIG1        0.0904
     45 H          -2.0667    3.7475    3.0617 H       1  LIG1        0.1228
     46 H           3.3902   -1.1932    0.7609 H       1  LIG1        0.0925
@<TRIPOS>BOND
     1     1    11    1
     2     1    23    3
     3     2     6   ar
     4     2    13   ar
     5     3     7   ar
     6     3    13   ar
     7     4     8   ar
     8     4    12   ar
     9     5     9   ar
    10     5    12   ar
    11     6    15   ar
    12     7    15   ar
    13     8    16   ar
    14     9    16   ar
    15    10    14   ar
    16    10    17   ar
    17    11    14   ar
    18    11    18   ar
    19    12    14    1
    20    13    17    1
    21    15    25    1
    22    16    27    1
    23    17    24   ar
    24    18    24   ar
    25    18    26    1
    26    19    22    1
    27    20    22    1
    28    21    25    1
    29    22    26    1
    30     2    28    1
    31     3    29    1
    32     4    30    1
    33     5    31    1
    34     6    32    1
    35     7    33    1
    36     8    34    1
    37     9    35    1
    38    10    36    1
    39    19    37    1
    40    19    38    1
    41    19    39    1
    42    20    40    1
    43    20    41    1
    44    20    42    1
    45    21    43    1
    46    21    44    1
    47    21    45    1
    48    22    46    1
