@<TRIPOS>MOLECULE
AK-968/11841125
 58 61 0 0 0
SMALL
USER_CHARGES

@<TRIPOS>ATOM
      1 C           5.3242   -2.7483    0.7222 C.ar    1  LIG1       -0.0868
      2 C           4.9040   -0.7475    2.0096 C.ar    1  LIG1       -0.0760
      3 C           0.1779    2.7940    1.2574 C.ar    1  LIG1       -0.0891
      4 C          -0.7652    1.3171   -0.4060 C.ar    1  LIG1       -0.0961
      5 C           4.1160    3.9552   -5.6110 C.ar    1  LIG1       -0.0868
      6 C           5.9972    4.9015   -4.4266 C.ar    1  LIG1       -0.0865
      7 C           1.2290    3.0973    0.3922 C.ar    1  LIG1       -0.0616
      8 C           0.2860    1.6205   -1.2713 C.ar    1  LIG1       -0.0713
      9 C           3.9183    3.0467   -4.5713 C.ar    1  LIG1       -0.0581
     10 C           5.7995    3.9930   -3.3868 C.ar    1  LIG1       -0.0577
     11 C           4.8756   -3.5283    1.7879 C.ar    1  LIG1       -0.0642
     12 C           4.4553   -1.5276    3.0754 C.ar    1  LIG1       -0.0507
     13 C           5.3385   -1.3579    0.8330 C.ar    1  LIG1       -0.0642
     14 C          -0.8192    1.9038    0.8584 C.ar    1  LIG1       -0.1114
     15 C           5.1555    4.8826   -5.5387 C.ar    1  LIG1       -0.1080
     16 C           1.2831    2.5106   -0.8721 C.ar    1  LIG1       -0.0303
     17 C           4.7600    3.0656   -3.4592 C.ar    1  LIG1       -0.0103
     18 C           4.4411   -2.9180    2.9645 C.ar    1  LIG1       -0.0095
     19 C           5.0647    0.3893   -0.8766 C.2     1  LIG1        0.0935
     20 C           5.5502    1.2132   -2.0147 C.2     1  LIG1        0.1640
     21 C           3.3793    2.0583   -1.6573 C.2     1  LIG1        0.1109
     22 C           5.8064   -0.5446   -0.2783 C.2     1  LIG1       -0.0322
     23 C          -2.4832    0.1674    1.5672 C.3     1  LIG1       -0.0635
     24 C           6.3120    5.3146   -7.7210 C.3     1  LIG1       -0.0629
     25 C           3.5735   -2.9902    5.1776 C.3     1  LIG1        0.0258
     26 C          -1.9427    1.5785    1.7835 C.3     1  LIG1       -0.0490
     27 C           5.3668    5.8540   -6.6505 C.3     1  LIG1       -0.0471
     28 N           2.3421    2.8178   -1.7447 N.2     1  LIG1       -0.3337
     29 N           4.5563    2.1295   -2.3872 N.am    1  LIG1       -0.2254
     30 O           6.6443    1.0179   -2.5294 O.2     1  LIG1       -0.4377
     31 O           4.0034   -3.6792    4.0044 O.3     1  LIG1       -0.4141
     32 S           3.4516    0.7888   -0.4619 S.3     1  LIG1       -0.0351
     33 H           5.6598   -3.2387   -0.1886 H       1  LIG1        0.1411
     34 H           4.9092    0.3351    2.1110 H       1  LIG1        0.1479
     35 H           0.1437    3.2554    2.2408 H       1  LIG1        0.1264
     36 H          -1.5370    0.6216   -0.7247 H       1  LIG1        0.1238
     37 H           3.4567    3.9320   -6.4748 H       1  LIG1        0.1269
     38 H           6.8100    5.6201   -4.3623 H       1  LIG1        0.1269
     39 H           2.0021    3.7914    0.7120 H       1  LIG1        0.1371
     40 H           0.3198    1.1586   -2.2544 H       1  LIG1        0.1236
     41 H           3.1048    2.3286   -4.6380 H       1  LIG1        0.1335
     42 H           6.4621    4.0158   -2.5252 H       1  LIG1        0.1340
     43 H           4.8669   -4.6110    1.6957 H       1  LIG1        0.1171
     44 H           4.1181   -1.0464    3.9894 H       1  LIG1        0.1338
     45 H           6.8212   -0.7006   -0.6055 H       1  LIG1        0.1920
     46 H          -2.8143    0.0280    0.5325 H       1  LIG1        0.0362
     47 H          -3.3362   -0.0260    2.2251 H       1  LIG1        0.0342
     48 H          -1.7148   -0.5841    1.7782 H       1  LIG1        0.0338
     49 H           7.2809    5.0428   -7.2887 H       1  LIG1        0.0345
     50 H           6.4860    6.0654   -8.4982 H       1  LIG1        0.0343
     51 H           5.8952    4.4217   -8.1992 H       1  LIG1        0.0368
     52 H           3.2500   -3.7149    5.9288 H       1  LIG1        0.0909
     53 H           2.7492   -2.3185    4.9253 H       1  LIG1        0.0910
     54 H           4.4083   -2.4068    5.5731 H       1  LIG1        0.1236
     55 H          -1.6197    1.6832    2.8319 H       1  LIG1        0.0605
     56 H          -2.7647    2.3018    1.6588 H       1  LIG1        0.0609
     57 H           4.4047    6.1165   -7.1192 H       1  LIG1        0.0622
     58 H           5.7688    6.8028   -6.2603 H       1  LIG1        0.0621
@<TRIPOS>BOND
     1     1    11   ar
     2     1    13   ar
     3     2    12   ar
     4     2    13   ar
     5     3     7   ar
     6     3    14   ar
     7     4     8   ar
     8     4    14   ar
     9     5     9   ar
    10     5    15   ar
    11     6    10   ar
    12     6    15   ar
    13     7    16   ar
    14     8    16   ar
    15     9    17   ar
    16    10    17   ar
    17    11    18   ar
    18    12    18   ar
    19    13    22    1
    20    14    26    1
    21    15    27    1
    22    16    28    1
    23    17    29    1
    24    18    31    1
    25    19    20    1
    26    19    22    2
    27    19    32    1
    28    20    29   am
    29    20    30    2
    30    21    28    2
    31    21    29    1
    32    21    32    1
    33    23    26    1
    34    24    27    1
    35    25    31    1
    36     1    33    1
    37     2    34    1
    38     3    35    1
    39     4    36    1
    40     5    37    1
    41     6    38    1
    42     7    39    1
    43     8    40    1
    44     9    41    1
    45    10    42    1
    46    11    43    1
    47    12    44    1
    48    22    45    1
    49    23    46    1
    50    23    47    1
    51    23    48    1
    52    24    49    1
    53    24    50    1
    54    24    51    1
    55    25    52    1
    56    25    53    1
    57    25    54    1
    58    26    55    1
    59    26    56    1
    60    27    57    1
    61    27    58    1
