@<TRIPOS>MOLECULE
AF-399/15128496
 43 46 0 0 0
SMALL
USER_CHARGES

@<TRIPOS>ATOM
      1 C           6.4415    0.4765   -1.7400 C.ar    1  LIG1       -0.0874
      2 C           5.7762   -0.1522   -0.6892 C.ar    1  LIG1       -0.0855
      3 C           5.8191    1.5074   -2.4450 C.ar    1  LIG1       -0.0706
      4 C           4.4859    0.2476   -0.3392 C.ar    1  LIG1       -0.0627
      5 C           4.2189    3.2308   -5.1800 C.ar    1  LIG1       -0.0623
      6 C           5.1394    4.8436   -3.6344 C.ar    1  LIG1       -0.0673
      7 C          -0.8532    3.5110    1.0894 C.ar    1  LIG1       -0.0662
      8 C           0.4216    2.9988    0.8484 C.ar    1  LIG1       -0.0318
      9 C           4.7596    3.9461   -6.2484 C.ar    1  LIG1       -0.0394
     10 C           5.6801    5.5588   -4.7029 C.ar    1  LIG1       -0.0430
     11 C          -1.8092    1.3346    0.6576 C.ar    1  LIG1       -0.0358
     12 C           4.5202    1.9174   -2.1005 C.ar    1  LIG1       -0.0114
     13 C           3.8505    1.2845   -1.0427 C.ar    1  LIG1        0.0227
     14 C           4.4087    3.6795   -3.8729 C.ar    1  LIG1       -0.0248
     15 C          -1.9686    2.6789    0.9940 C.ar    1  LIG1       -0.0064
     16 C           0.5810    1.6546    0.5119 C.ar    1  LIG1        0.0840
     17 C          -0.5344    0.8225    0.4166 C.ar    1  LIG1        0.0467
     18 C           5.4902    5.1100   -6.0099 C.ar    1  LIG1        0.0651
     19 C           3.8477    2.9375   -2.7644 C.ar    1  LIG1        0.0433
     20 C           2.5672    1.7275   -0.7420 C.ar    1  LIG1        0.1383
     21 C          -3.2975    3.2126    1.2473 C.2     1  LIG1        0.0906
     22 C          -0.2110   -1.4107    1.1677 C.3     1  LIG1        0.0274
     23 N           2.5992    3.3367   -2.4388 N.ar    1  LIG1       -0.2659
     24 N           1.9503    2.7236   -1.4139 N.ar    1  LIG1       -0.2445
     25 O          -4.3227    2.5287    1.1787 O.2     1  LIG1       -0.4586
     26 O           1.8485    1.1597    0.2759 O.3     1  LIG1       -0.3012
     27 O          -0.3917   -0.4927    0.0912 O.3     1  LIG1       -0.4041
     28 F           6.0094    5.7969   -7.0360 F       1  LIG1       -0.2663
     29 H           7.4458    0.1636   -2.0105 H       1  LIG1        0.1365
     30 H           6.2626   -0.9542   -0.1417 H       1  LIG1        0.1330
     31 H           6.3682    1.9748   -3.2586 H       1  LIG1        0.1420
     32 H           3.9902   -0.2600    0.4847 H       1  LIG1        0.1473
     33 H           3.6517    2.3253   -5.3821 H       1  LIG1        0.1484
     34 H           5.2962    5.2063   -2.6214 H       1  LIG1        0.1418
     35 H          -0.9655    4.5601    1.3509 H       1  LIG1        0.1430
     36 H           1.2864    3.6522    0.9239 H       1  LIG1        0.1510
     37 H           4.6118    3.5969   -7.2661 H       1  LIG1        0.1361
     38 H           6.2492    6.4652   -4.5179 H       1  LIG1        0.1352
     39 H          -2.6767    0.6826    0.5847 H       1  LIG1        0.1378
     40 H          -3.3742    4.2893    1.5136 H       1  LIG1        0.2569
     41 H          -0.1102   -2.4238    0.7705 H       1  LIG1        0.1237
     42 H          -1.0692   -1.3561    1.8423 H       1  LIG1        0.0921
     43 H           0.6968   -1.1439    1.7138 H       1  LIG1        0.0922
@<TRIPOS>BOND
     1     1     2   ar
     2     1     3   ar
     3     2     4   ar
     4     3    12   ar
     5     4    13   ar
     6     5     9   ar
     7     5    14   ar
     8     6    10   ar
     9     6    14   ar
    10     7     8   ar
    11     7    15   ar
    12     8    16   ar
    13     9    18   ar
    14    10    18   ar
    15    11    15   ar
    16    11    17   ar
    17    12    13   ar
    18    12    19   ar
    19    13    20   ar
    20    14    19    1
    21    15    21    1
    22    16    17   ar
    23    16    26    1
    24    17    27    1
    25    18    28    1
    26    19    23   ar
    27    20    24   ar
    28    20    26    1
    29    21    25    2
    30    22    27    1
    31    23    24   ar
    32     1    29    1
    33     2    30    1
    34     3    31    1
    35     4    32    1
    36     5    33    1
    37     6    34    1
    38     7    35    1
    39     8    36    1
    40     9    37    1
    41    10    38    1
    42    11    39    1
    43    21    40    1
    44    22    41    1
    45    22    42    1
    46    22    43    1
