@<TRIPOS>MOLECULE
AH-034/32857054
 40 43 0 0 0
SMALL
USER_CHARGES

@<TRIPOS>ATOM
      1 C           6.9022   -2.2036    0.7743 C.ar    1  LIG1       -0.1024
      2 C          -1.3882    2.3916    0.9080 C.ar    1  LIG1       -0.1031
      3 C           7.4742   -1.0697    0.1978 C.ar    1  LIG1       -0.0957
      4 C           5.5149   -2.3468    0.8036 C.ar    1  LIG1       -0.0987
      5 C          -1.0345    1.1676    0.3401 C.ar    1  LIG1       -0.0957
      6 C          -0.4819    3.4519    0.9002 C.ar    1  LIG1       -0.0957
      7 C           6.6592   -0.0787   -0.3492 C.ar    1  LIG1       -0.0737
      8 C           4.6998   -1.3558    0.2566 C.ar    1  LIG1       -0.0792
      9 C           0.2255    1.0039   -0.2356 C.ar    1  LIG1       -0.0649
     10 C           0.7781    3.2882    0.3246 C.ar    1  LIG1       -0.0649
     11 C           5.3843    4.2549   -3.4091 C.ar    1  LIG1       -0.0607
     12 C           3.5064    3.3859   -4.6564 C.ar    1  LIG1       -0.0662
     13 C           5.7009    5.0987   -4.4736 C.ar    1  LIG1       -0.0710
     14 C           3.8231    4.2298   -5.7210 C.ar    1  LIG1       -0.0740
     15 C           4.8570    1.5793   -1.9467 C.ar    1  LIG1       -0.0074
     16 C           5.2719   -0.2217   -0.3199 C.ar    1  LIG1       -0.0320
     17 C           4.2871    3.3983   -3.5006 C.ar    1  LIG1       -0.0237
     18 C           1.1318    2.0643   -0.2433 C.ar    1  LIG1        0.0050
     19 C           4.9203    5.0863   -5.6295 C.ar    1  LIG1       -0.0372
     20 C           4.4269    0.8062   -0.8876 C.ar    1  LIG1       -0.0015
     21 C           3.9596    2.5251   -2.3988 C.ar    1  LIG1        0.0007
     22 C           2.4320    1.8950   -0.8377 C.ar    1  LIG1        0.0508
     23 N           3.2162    0.9377   -0.3067 N.ar    1  LIG1       -0.3438
     24 N           2.7341    2.7108   -1.8658 N.ar    1  LIG1       -0.3445
     25 BR          5.3481    6.2302   -7.0719 Br      1  LIG1       -0.1057
     26 H           7.5370   -2.9759    1.1986 H       1  LIG1        0.1228
     27 H          -2.3699    2.5192    1.3546 H       1  LIG1        0.1219
     28 H           8.5543   -0.9588    0.1735 H       1  LIG1        0.1205
     29 H           5.0689   -3.2302    1.2510 H       1  LIG1        0.1206
     30 H          -1.7405    0.3425    0.3445 H       1  LIG1        0.1191
     31 H          -0.7570    4.4055    1.3410 H       1  LIG1        0.1190
     32 H           7.1204    0.7994   -0.7952 H       1  LIG1        0.1403
     33 H           3.6200   -1.4815    0.2861 H       1  LIG1        0.1282
     34 H           0.4862    0.0438   -0.6746 H       1  LIG1        0.1409
     35 H           1.4738    4.1239    0.3254 H       1  LIG1        0.1410
     36 H           6.0024    4.2761   -2.5146 H       1  LIG1        0.1514
     37 H           2.6476    2.7247   -4.7426 H       1  LIG1        0.1395
     38 H           6.5587    5.7606   -4.3861 H       1  LIG1        0.1386
     39 H           3.2046    4.2078   -6.6145 H       1  LIG1        0.1386
     40 H           5.8363    1.4518   -2.3945 H       1  LIG1        0.1429
@<TRIPOS>BOND
     1     1     3   ar
     2     1     4   ar
     3     2     5   ar
     4     2     6   ar
     5     3     7   ar
     6     4     8   ar
     7     5     9   ar
     8     6    10   ar
     9     7    16   ar
    10     8    16   ar
    11     9    18   ar
    12    10    18   ar
    13    11    13   ar
    14    11    17   ar
    15    12    14   ar
    16    12    17   ar
    17    13    19   ar
    18    14    19   ar
    19    15    20   ar
    20    15    21   ar
    21    16    20    1
    22    17    21    1
    23    18    22    1
    24    19    25    1
    25    20    23   ar
    26    21    24   ar
    27    22    23   ar
    28    22    24   ar
    29     1    26    1
    30     2    27    1
    31     3    28    1
    32     4    29    1
    33     5    30    1
    34     6    31    1
    35     7    32    1
    36     8    33    1
    37     9    34    1
    38    10    35    1
    39    11    36    1
    40    12    37    1
    41    13    38    1
    42    14    39    1
    43    15    40    1
