@<TRIPOS>MOLECULE
AH-262/14317002
 47 51 0 0 0
SMALL
USER_CHARGES

@<TRIPOS>ATOM
      1 C          -1.0973    2.0088    1.1364 C.ar    1  LIG1       -0.1023
      2 C           5.1721    5.1785   -5.8723 C.ar    1  LIG1       -0.1000
      3 C          -0.6739    0.8924    0.4155 C.ar    1  LIG1       -0.0958
      4 C          -0.3523    3.1875    1.0982 C.ar    1  LIG1       -0.0967
      5 C           5.0732    3.7934   -6.0036 C.ar    1  LIG1       -0.0917
      6 C           4.8148    5.7928   -4.6720 C.ar    1  LIG1       -0.0884
      7 C           0.4948    0.9545   -0.3435 C.ar    1  LIG1       -0.0732
      8 C           0.8163    3.2496    0.3392 C.ar    1  LIG1       -0.0738
      9 C           4.6168    3.0225   -4.9345 C.ar    1  LIG1       -0.0541
     10 C           4.3584    5.0218   -3.6030 C.ar    1  LIG1       -0.0495
     11 C           6.0771    0.2184   -1.2527 C.ar    1  LIG1       -0.0337
     12 C           5.1584   -0.2103   -0.2616 C.ar    1  LIG1       -0.0253
     13 C           3.6165    1.4399   -1.0685 C.ar    1  LIG1        0.0526
     14 C           1.2399    2.1331   -0.3817 C.ar    1  LIG1       -0.0239
     15 C           5.0860   -1.1679    0.7797 C.ar    1  LIG1        0.0165
     16 C           4.4913    1.8690   -2.0345 C.ar    1  LIG1        0.0466
     17 C           4.2593    3.6366   -3.7341 C.ar    1  LIG1       -0.0027
     18 C           3.9368    0.4316   -0.2074 C.ar    1  LIG1        0.0558
     19 C           5.7501    1.2731   -2.1589 C.ar    1  LIG1        0.0232
     20 C           2.4458    2.1973   -1.1646 C.ar    1  LIG1        0.0479
     21 C           3.8386   -1.0142    1.3584 C.ar    1  LIG1        0.0216
     22 C           6.0756   -2.1217    1.1888 C.2     1  LIG1        0.0743
     23 C           3.1522   -1.6892    2.4710 C.3     1  LIG1        0.0077
     24 C           6.1096   -2.5368    2.6410 C.3     1  LIG1        0.0377
     25 N           2.5614    3.0875   -2.1616 N.ar    1  LIG1       -0.2887
     26 N           3.8033    2.8650   -2.6656 N.ar    1  LIG1       -0.2689
     27 O           6.9283   -2.6467    0.4498 O.2     1  LIG1       -0.4551
     28 O           3.1347   -0.0203    0.7391 O.2     1  LIG1       -0.3471
     29 O           6.6598    1.6586   -3.1040 O.3     1  LIG1       -0.4219
     30 H          -2.0078    1.9611    1.7266 H       1  LIG1        0.1213
     31 H           5.5292    5.7791   -6.7037 H       1  LIG1        0.1216
     32 H          -1.2545   -0.0249    0.4441 H       1  LIG1        0.1213
     33 H          -0.6829    4.0570    1.6585 H       1  LIG1        0.1205
     34 H           5.3527    3.3149   -6.9375 H       1  LIG1        0.1253
     35 H           4.8934    6.8713   -4.5702 H       1  LIG1        0.1276
     36 H           0.8118    0.0755   -0.9001 H       1  LIG1        0.1308
     37 H           1.3860    4.1758    0.3198 H       1  LIG1        0.1318
     38 H           4.5452    1.9436   -5.0497 H       1  LIG1        0.1348
     39 H           4.0839    5.5133   -2.6728 H       1  LIG1        0.1438
     40 H           7.0502   -0.2621   -1.3276 H       1  LIG1        0.1596
     41 H           3.3544   -1.1860    3.4326 H       1  LIG1        0.0914
     42 H           2.0558   -1.7128    2.3337 H       1  LIG1        0.0898
     43 H           3.4646   -2.7441    2.5771 H       1  LIG1        0.0871
     44 H           5.4765   -3.4104    2.8631 H       1  LIG1        0.0812
     45 H           5.8087   -1.7285    3.3255 H       1  LIG1        0.0826
     46 H           7.1103   -2.8407    2.9962 H       1  LIG1        0.0784
     47 H           7.4638    1.1245   -3.0258 H       1  LIG1        0.3597
@<TRIPOS>BOND
     1     1     3   ar
     2     1     4   ar
     3     2     5   ar
     4     2     6   ar
     5     3     7   ar
     6     4     8   ar
     7     5     9   ar
     8     6    10   ar
     9     7    14   ar
    10     8    14   ar
    11     9    17   ar
    12    10    17   ar
    13    11    12   ar
    14    11    19   ar
    15    12    15   ar
    16    12    18   ar
    17    13    16   ar
    18    13    18   ar
    19    13    20   ar
    20    14    20    1
    21    15    21   ar
    22    15    22    1
    23    16    19   ar
    24    16    26   ar
    25    17    26    1
    26    18    28   ar
    27    19    29    1
    28    20    25   ar
    29    21    23    1
    30    21    28   ar
    31    22    24    1
    32    22    27    2
    33    25    26   ar
    34     1    30    1
    35     2    31    1
    36     3    32    1
    37     4    33    1
    38     5    34    1
    39     6    35    1
    40     7    36    1
    41     8    37    1
    42     9    38    1
    43    10    39    1
    44    11    40    1
    45    23    41    1
    46    23    42    1
    47    23    43    1
    48    24    44    1
    49    24    45    1
    50    24    46    1
    51    29    47    1
