@<TRIPOS>MOLECULE
AK-249/37190001
 51 55 0 0 0
SMALL
USER_CHARGES

@<TRIPOS>ATOM
      1 C          -1.2188    2.0250    1.1877 C.ar    1  LIG1       -0.1007
      2 C           4.8359   -1.9107    3.3519 C.ar    1  LIG1       -0.0910
      3 C          -0.4725    0.8609    1.0052 C.ar    1  LIG1       -0.0903
      4 C          -0.7826    3.2276    0.6315 C.ar    1  LIG1       -0.0918
      5 C           5.0429   -3.2463    3.0068 C.ar    1  LIG1       -0.0909
      6 C           4.7390   -0.9398    2.3550 C.ar    1  LIG1       -0.0651
      7 C           0.7102    0.8993    0.2666 C.ar    1  LIG1       -0.0504
      8 C           0.4000    3.2660   -0.1072 C.ar    1  LIG1       -0.0521
      9 C           5.1531   -3.6109    1.6650 C.ar    1  LIG1       -0.0639
     10 C           6.5963    1.3652   -2.7595 C.ar    1  LIG1       -0.0315
     11 C           6.9969   -0.6858   -0.8916 C.ar    1  LIG1       -0.0307
     12 C           5.5840    1.0472   -1.8334 C.ar    1  LIG1       -0.0450
     13 C           5.7801    0.0147   -0.8898 C.ar    1  LIG1       -0.0099
     14 C           4.3454    1.7304   -1.8015 C.ar    1  LIG1        0.0160
     15 C           4.8492   -1.3046    1.0131 C.ar    1  LIG1        0.0110
     16 C           1.1465    2.1019   -0.2895 C.ar    1  LIG1        0.0043
     17 C           7.7969    0.6563   -2.7430 C.ar    1  LIG1        0.0479
     18 C           7.9964   -0.3646   -1.8133 C.ar    1  LIG1        0.0463
     19 C           5.0563   -2.6401    0.6681 C.ar    1  LIG1        0.0198
     20 C           4.7424   -0.2619    0.0087 C.ar    1  LIG1        0.0300
     21 C           3.6973    2.7775   -2.4928 C.ar    1  LIG1        0.0003
     22 C           3.4174    1.3378   -0.8491 C.ar    1  LIG1        0.0578
     23 C           4.1990    3.5852   -3.6193 C.3     1  LIG1        0.0029
     24 C           8.4896    2.0260   -4.5596 C.3     1  LIG1        0.0294
     25 C           9.2975   -2.0871   -0.8152 C.3     1  LIG1        0.0262
     26 N           3.5438    0.3679    0.0719 N.ar    1  LIG1       -0.3271
     27 N           2.4705    3.0292   -2.0257 N.ar    1  LIG1       -0.3038
     28 N           2.3288    2.1394   -1.0279 N.ar    1  LIG1       -0.2523
     29 O           8.7709    0.9705   -3.6429 O.3     1  LIG1       -0.3993
     30 O           9.1694   -1.0588   -1.7947 O.3     1  LIG1       -0.4053
     31 CL          5.2004   -3.1494   -0.9785 Cl      1  LIG1       -0.1203
     32 H          -2.1406    1.9954    1.7612 H       1  LIG1        0.1203
     33 H           4.7501   -1.6270    4.3967 H       1  LIG1        0.1286
     34 H          -0.8126   -0.0758    1.4371 H       1  LIG1        0.1275
     35 H          -1.3652    4.1334    0.7728 H       1  LIG1        0.1262
     36 H           5.1183   -4.0020    3.7832 H       1  LIG1        0.1335
     37 H           4.5775    0.0965    2.6424 H       1  LIG1        0.1388
     38 H           1.2821   -0.0155    0.1313 H       1  LIG1        0.1384
     39 H           0.7280    4.2099   -0.5359 H       1  LIG1        0.1358
     40 H           5.3144   -4.6564    1.4140 H       1  LIG1        0.1364
     41 H           6.4629    2.1561   -3.4914 H       1  LIG1        0.1378
     42 H           7.1897   -1.4864   -0.1810 H       1  LIG1        0.1427
     43 H           3.9422    3.1231   -4.5874 H       1  LIG1        0.0860
     44 H           3.7815    4.6073   -3.6164 H       1  LIG1        0.0822
     45 H           5.2961    3.7061   -3.5880 H       1  LIG1        0.0840
     46 H           9.3474    2.1741   -5.2202 H       1  LIG1        0.0916
     47 H           8.2799    2.9445   -4.0058 H       1  LIG1        0.1254
     48 H           7.6155    1.7550   -5.1565 H       1  LIG1        0.0913
     49 H          10.2778   -2.5607   -0.9092 H       1  LIG1        0.1241
     50 H           8.5074   -2.8286   -0.9586 H       1  LIG1        0.0896
     51 H           9.2029   -1.6446    0.1792 H       1  LIG1        0.0895
@<TRIPOS>BOND
     1     1     3   ar
     2     1     4   ar
     3     2     5   ar
     4     2     6   ar
     5     3     7   ar
     6     4     8   ar
     7     5     9   ar
     8     6    15   ar
     9     7    16   ar
    10     8    16   ar
    11     9    19   ar
    12    10    12   ar
    13    10    17   ar
    14    11    13   ar
    15    11    18   ar
    16    12    13   ar
    17    12    14   ar
    18    13    20   ar
    19    14    21   ar
    20    14    22   ar
    21    15    19   ar
    22    15    20    1
    23    16    28    1
    24    17    18   ar
    25    17    29    1
    26    18    30    1
    27    19    31    1
    28    20    26   ar
    29    21    23    1
    30    21    27   ar
    31    22    26   ar
    32    22    28   ar
    33    24    29    1
    34    25    30    1
    35    27    28   ar
    36     1    32    1
    37     2    33    1
    38     3    34    1
    39     4    35    1
    40     5    36    1
    41     6    37    1
    42     7    38    1
    43     8    39    1
    44     9    40    1
    45    10    41    1
    46    11    42    1
    47    23    43    1
    48    23    44    1
    49    23    45    1
    50    24    46    1
    51    24    47    1
    52    24    48    1
    53    25    49    1
    54    25    50    1
    55    25    51    1
