@<TRIPOS>MOLECULE
AO-476/43421106
 36 38 0 0 0
SMALL
USER_CHARGES

@<TRIPOS>ATOM
      1 C           5.4806   -3.3582    2.8122 C.ar    1  LIG1       -0.0949
      2 C           5.7233   -3.5468    1.4517 C.ar    1  LIG1       -0.0884
      3 C           4.9727   -2.1417    3.2680 C.ar    1  LIG1       -0.0856
      4 C           5.4582   -2.5188    0.5469 C.ar    1  LIG1       -0.0545
      5 C           4.7075   -1.1137    2.3633 C.ar    1  LIG1       -0.0503
      6 C           4.8696    1.2553   -1.4113 C.ar    1  LIG1        0.0210
      7 C           3.5076    1.1631   -0.9463 C.ar    1  LIG1        0.0971
      8 C           4.9502   -1.3023    1.0027 C.ar    1  LIG1        0.0004
      9 C           5.3517    2.1274   -2.3756 C.ar    1  LIG1        0.0010
     10 C           5.5953    0.3247   -0.7258 C.ar    1  LIG1       -0.0089
     11 C           2.5241    2.0087   -1.4795 C.ar    1  LIG1        0.1541
     12 C           6.7357    2.2680   -2.8925 C.3     1  LIG1        0.0045
     13 C           7.0225   -0.0556   -0.7587 C.3     1  LIG1        0.0060
     14 C          -0.5855    2.2612    0.4489 C.3     1  LIG1       -0.0315
     15 C           0.9148    2.2886    0.2490 C.3     1  LIG1        0.0313
     16 N           3.4282    0.2026   -0.0095 N.ar    1  LIG1       -0.2832
     17 N           4.3759    2.9333   -2.8728 N.ar    1  LIG1       -0.2917
     18 N           2.9834    2.8722   -2.4290 N.ar    1  LIG1       -0.2482
     19 N           4.6850   -0.2741    0.0965 N.ar    1  LIG1       -0.2720
     20 O           1.2058    2.0114   -1.1171 O.3     1  LIG1       -0.3585
     21 H           5.6852   -4.1588    3.5169 H       1  LIG1        0.1291
     22 H           6.1175   -4.4943    1.0964 H       1  LIG1        0.1328
     23 H           4.7826   -1.9961    4.3275 H       1  LIG1        0.1326
     24 H           5.6510   -2.6792   -0.5111 H       1  LIG1        0.1371
     25 H           4.3111   -0.1708    2.7320 H       1  LIG1        0.1430
     26 H           6.8967    1.6095   -3.7581 H       1  LIG1        0.0832
     27 H           6.9493    3.3014   -3.2047 H       1  LIG1        0.0837
     28 H           7.4830    2.0137   -2.1257 H       1  LIG1        0.0774
     29 H           7.6070    0.5378   -0.0375 H       1  LIG1        0.0907
     30 H           7.1711   -1.1211   -0.5162 H       1  LIG1        0.0822
     31 H           7.4667    0.0957   -1.7570 H       1  LIG1        0.0935
     32 H          -1.0758    3.0159   -0.1723 H       1  LIG1        0.0477
     33 H          -0.9909    1.2763    0.1949 H       1  LIG1        0.0478
     34 H          -0.8384    2.4487    1.4978 H       1  LIG1        0.0602
     35 H           1.3990    1.5315    0.8732 H       1  LIG1        0.1057
     36 H           1.3181    3.2736    0.5025 H       1  LIG1        0.1057
@<TRIPOS>BOND
     1     1     2   ar
     2     1     3   ar
     3     2     4   ar
     4     3     5   ar
     5     4     8   ar
     6     5     8   ar
     7     6     7   ar
     8     6     9   ar
     9     6    10   ar
    10     7    11   ar
    11     7    16   ar
    12     8    19    1
    13     9    12    1
    14     9    17   ar
    15    10    13    1
    16    10    19   ar
    17    11    18   ar
    18    11    20    1
    19    14    15    1
    20    15    20    1
    21    16    19   ar
    22    17    18   ar
    23     1    21    1
    24     2    22    1
    25     3    23    1
    26     4    24    1
    27     5    25    1
    28    12    26    1
    29    12    27    1
    30    12    28    1
    31    13    29    1
    32    13    30    1
    33    13    31    1
    34    14    32    1
    35    14    33    1
    36    14    34    1
    37    15    35    1
    38    15    36    1
