@<TRIPOS>MOLECULE
AK-087/42718235
 33 35 0 0 0
SMALL
USER_CHARGES

@<TRIPOS>ATOM
      1 C           4.8649    0.0787    0.6860 C.1     1  LIG1        0.0328
      2 C          -1.2379    2.0646    1.1709 C.ar    1  LIG1       -0.0974
      3 C          -0.8249    0.9269    0.4776 C.ar    1  LIG1       -0.0915
      4 C          -0.4623    3.2235    1.1346 C.ar    1  LIG1       -0.0876
      5 C           4.0677    3.0401   -4.8816 C.ar    1  LIG1       -0.0644
      6 C           4.9852    4.6506   -3.3319 C.ar    1  LIG1       -0.0639
      7 C           0.3638    0.9480   -0.2518 C.ar    1  LIG1       -0.0580
      8 C           0.7263    3.2445    0.4051 C.ar    1  LIG1       -0.0514
      9 C           4.6023    3.7621   -5.9486 C.ar    1  LIG1       -0.0661
     10 C           5.5199    5.3727   -4.3989 C.ar    1  LIG1       -0.0660
     11 C           4.3362    1.7001   -1.7640 C.ar    1  LIG1       -0.0344
     12 C           4.2591    3.4843   -3.5733 C.ar    1  LIG1       -0.0288
     13 C           1.1395    2.1068   -0.2881 C.ar    1  LIG1       -0.0081
     14 C           5.3285    4.9285   -5.7073 C.ar    1  LIG1       -0.0143
     15 C           3.7089    2.7409   -2.4748 C.ar    1  LIG1        0.0107
     16 C           3.4112    1.3217   -0.8219 C.ar    1  LIG1       -0.0000
     17 C           3.4777    0.2817    0.2238 C.3     1  LIG1        0.1210
     18 N           5.9587   -0.0743    1.0421 N.1     1  LIG1       -0.3857
     19 N           2.4804    3.0065   -2.0228 N.ar    1  LIG1       -0.3099
     20 N           2.3283    2.1271   -1.0181 N.ar    1  LIG1       -0.2878
     21 CL          5.9875    5.8207   -7.0230 Cl      1  LIG1       -0.1421
     22 H          -2.1642    2.0493    1.7376 H       1  LIG1        0.1252
     23 H          -1.4293    0.0250    0.5047 H       1  LIG1        0.1295
     24 H          -0.7854    4.1094    1.6736 H       1  LIG1        0.1307
     25 H           3.5044    2.1327   -5.0874 H       1  LIG1        0.1426
     26 H           5.1428    5.0099   -2.3177 H       1  LIG1        0.1434
     27 H           0.6739    0.0546   -0.7884 H       1  LIG1        0.1267
     28 H           1.3210    4.1546    0.3847 H       1  LIG1        0.1406
     29 H           4.4454    3.4042   -6.9629 H       1  LIG1        0.1364
     30 H           6.0823    6.2804   -4.1957 H       1  LIG1        0.1353
     31 H           5.3212    1.2801   -1.9112 H       1  LIG1        0.1381
     32 H           3.0790   -0.6805   -0.1422 H       1  LIG1        0.1659
     33 H           2.8470    0.5439    1.0910 H       1  LIG1        0.1790
@<TRIPOS>BOND
     1     1    17    1
     2     1    18    3
     3     2     3   ar
     4     2     4   ar
     5     3     7   ar
     6     4     8   ar
     7     5     9   ar
     8     5    12   ar
     9     6    10   ar
    10     6    12   ar
    11     7    13   ar
    12     8    13   ar
    13     9    14   ar
    14    10    14   ar
    15    11    15   ar
    16    11    16   ar
    17    12    15    1
    18    13    20    1
    19    14    21    1
    20    15    19   ar
    21    16    17    1
    22    16    20   ar
    23    19    20   ar
    24     2    22    1
    25     3    23    1
    26     4    24    1
    27     5    25    1
    28     6    26    1
    29     7    27    1
    30     8    28    1
    31     9    29    1
    32    10    30    1
    33    11    31    1
    34    17    32    1
    35    17    33    1
