@<TRIPOS>MOLECULE
AK-249/12180005
 58 63 0 0 0
SMALL
USER_CHARGES

@<TRIPOS>ATOM
      1 C           5.1796    5.0160   -5.7197 C.ar    1  LIG1       -0.1024
      2 C          -1.2640    2.0566    1.1717 C.ar    1  LIG1       -0.1002
      3 C           5.8484    5.0277   -4.4958 C.ar    1  LIG1       -0.0951
      4 C           4.0189    4.2577   -5.8730 C.ar    1  LIG1       -0.0992
      5 C          -0.8479    0.9223    0.4747 C.ar    1  LIG1       -0.0903
      6 C          -0.4907    3.2171    1.1406 C.ar    1  LIG1       -0.0913
      7 C           5.3565    4.2811   -3.4251 C.ar    1  LIG1       -0.0727
      8 C           3.5270    3.5111   -4.8024 C.ar    1  LIG1       -0.0772
      9 C           4.9963   -2.6287    0.7114 C.ar    1  LIG1       -0.0577
     10 C           4.6774   -0.9640    2.4331 C.ar    1  LIG1       -0.0630
     11 C           0.3417    0.9484   -0.2532 C.ar    1  LIG1       -0.0511
     12 C           0.6989    3.2432    0.4127 C.ar    1  LIG1       -0.0522
     13 C           5.0867   -3.6209    1.6876 C.ar    1  LIG1       -0.0700
     14 C           4.7677   -1.9563    3.4093 C.ar    1  LIG1       -0.0740
     15 C           6.5818    1.3228   -2.7008 C.ar    1  LIG1       -0.0311
     16 C           6.9576   -0.7111   -0.8091 C.ar    1  LIG1       -0.0312
     17 C           5.5605    1.0188   -1.7800 C.ar    1  LIG1       -0.0423
     18 C           5.7441   -0.0050   -0.8244 C.ar    1  LIG1       -0.0110
     19 C           4.3250    1.7081   -1.7651 C.ar    1  LIG1        0.0314
     20 C           4.1958    3.5228   -3.5784 C.ar    1  LIG1       -0.0273
     21 C           4.7918   -1.3002    1.0842 C.ar    1  LIG1       -0.0095
     22 C           1.1152    2.1088   -0.2842 C.ar    1  LIG1        0.0044
     23 C           7.7790    0.6085   -2.6674 C.ar    1  LIG1        0.0479
     24 C           7.9661   -0.4038   -1.7259 C.ar    1  LIG1        0.0462
     25 C           4.9723   -3.2848    3.0365 C.ar    1  LIG1       -0.0368
     26 C           4.6978   -0.2677    0.0683 C.ar    1  LIG1        0.0252
     27 C           3.6874    2.7510   -2.4722 C.ar    1  LIG1        0.0419
     28 C           3.3874    1.3293   -0.8164 C.ar    1  LIG1        0.0603
     29 C           8.4932    1.9565   -4.4919 C.3     1  LIG1        0.0297
     30 C           9.2033   -2.2858   -2.4898 C.3     1  LIG1        0.0267
     31 N           3.5017    0.3682    0.1153 N.ar    1  LIG1       -0.3312
     32 N           2.4581    3.0131   -2.0177 N.ar    1  LIG1       -0.2821
     33 N           2.3040    2.1341   -1.0122 N.ar    1  LIG1       -0.2477
     34 O           8.7618    0.9091   -3.5622 O.3     1  LIG1       -0.3989
     35 O           9.1341   -1.1060   -1.6920 O.3     1  LIG1       -0.4048
     36 BR          5.0935   -4.6288    4.3596 Br      1  LIG1       -0.1059
     37 H           5.5619    5.5980   -6.5532 H       1  LIG1        0.1227
     38 H          -2.1910    2.0375    1.7371 H       1  LIG1        0.1210
     39 H           6.7515    5.6190   -4.3758 H       1  LIG1        0.1232
     40 H           3.4977    4.2498   -6.8258 H       1  LIG1        0.1210
     41 H          -1.4505    0.0191    0.4978 H       1  LIG1        0.1280
     42 H          -0.8162    4.1004    1.6824 H       1  LIG1        0.1270
     43 H           5.8893    4.3005   -2.4771 H       1  LIG1        0.1326
     44 H           2.6209    2.9252   -4.9381 H       1  LIG1        0.1285
     45 H           5.0877   -2.9064   -0.3360 H       1  LIG1        0.1460
     46 H           4.5168    0.0669    2.7396 H       1  LIG1        0.1401
     47 H           0.6542    0.0576   -0.7926 H       1  LIG1        0.1378
     48 H           1.2917    4.1545    0.3963 H       1  LIG1        0.1360
     49 H           5.2456   -4.6515    1.3803 H       1  LIG1        0.1400
     50 H           4.6764   -1.6776    4.4558 H       1  LIG1        0.1393
     51 H           6.4627    2.1052   -3.4434 H       1  LIG1        0.1423
     52 H           7.1399   -1.5072   -0.0906 H       1  LIG1        0.1441
     53 H           9.3572    2.0939   -5.1467 H       1  LIG1        0.1257
     54 H           8.2831    2.8816   -3.9492 H       1  LIG1        0.0912
     55 H           7.6229    1.6835   -5.0932 H       1  LIG1        0.0914
     56 H          10.1859   -2.7491   -2.3719 H       1  LIG1        0.0895
     57 H           9.0335   -2.0282   -3.5382 H       1  LIG1        0.0901
     58 H           8.4314   -2.9845   -2.1586 H       1  LIG1        0.1247
@<TRIPOS>BOND
     1     1     3   ar
     2     1     4   ar
     3     2     5   ar
     4     2     6   ar
     5     3     7   ar
     6     4     8   ar
     7     5    11   ar
     8     6    12   ar
     9     7    20   ar
    10     8    20   ar
    11     9    13   ar
    12     9    21   ar
    13    10    14   ar
    14    10    21   ar
    15    11    22   ar
    16    12    22   ar
    17    13    25   ar
    18    14    25   ar
    19    15    17   ar
    20    15    23   ar
    21    16    18   ar
    22    16    24   ar
    23    17    18   ar
    24    17    19   ar
    25    18    26   ar
    26    19    27   ar
    27    19    28   ar
    28    20    27    1
    29    21    26    1
    30    22    33    1
    31    23    24   ar
    32    23    34    1
    33    24    35    1
    34    25    36    1
    35    26    31   ar
    36    27    32   ar
    37    28    31   ar
    38    28    33   ar
    39    29    34    1
    40    30    35    1
    41    32    33   ar
    42     1    37    1
    43     2    38    1
    44     3    39    1
    45     4    40    1
    46     5    41    1
    47     6    42    1
    48     7    43    1
    49     8    44    1
    50     9    45    1
    51    10    46    1
    52    11    47    1
    53    12    48    1
    54    13    49    1
    55    14    50    1
    56    15    51    1
    57    16    52    1
    58    29    53    1
    59    29    54    1
    60    29    55    1
    61    30    56    1
    62    30    57    1
    63    30    58    1
