@<TRIPOS>MOLECULE
AG-205/37386021
 36 38 0 0 0
SMALL
USER_CHARGES

@<TRIPOS>ATOM
      1 C          -1.2666    2.0946    1.1437 C.ar    1  LIG1       -0.1018
      2 C          -0.5325    0.9187    0.9883 C.ar    1  LIG1       -0.0918
      3 C          -0.8061    3.2841    0.5790 C.ar    1  LIG1       -0.0928
      4 C           0.6621    0.9324    0.2683 C.ar    1  LIG1       -0.0522
      5 C           0.3884    3.2977   -0.1409 C.ar    1  LIG1       -0.0533
      6 C           4.3372    1.6918   -1.7537 C.ar    1  LIG1        0.0073
      7 C           5.5577    1.0052   -1.7642 C.ar    1  LIG1       -0.0836
      8 C           5.7300   -0.0050   -0.8178 C.ar    1  LIG1       -0.0724
      9 C           1.1226    2.1219   -0.2964 C.ar    1  LIG1        0.0006
     10 C           3.7173    2.7353   -2.4694 C.ar    1  LIG1        0.0003
     11 C           4.6973   -0.2747    0.0741 C.ar    1  LIG1       -0.0408
     12 C           3.3920    1.3219   -0.8096 C.ar    1  LIG1        0.0462
     13 C           6.6469    1.3210   -2.7374 C.3     1  LIG1       -0.0265
     14 C           7.0044   -0.7826   -0.7661 C.3     1  LIG1       -0.0381
     15 C           4.2646    3.5100   -3.5977 C.3     1  LIG1        0.0047
     16 C           4.8726   -1.3570    1.0934 C.3     1  LIG1        0.0016
     17 N           3.5013    0.3604    0.1237 N.ar    1  LIG1       -0.3612
     18 N           2.4865    3.0092   -2.0243 N.ar    1  LIG1       -0.3042
     19 N           2.3167    2.1347   -1.0161 N.ar    1  LIG1       -0.2565
     20 H          -2.1976    2.0842    1.7028 H       1  LIG1        0.1190
     21 H          -0.8915   -0.0077    1.4268 H       1  LIG1        0.1270
     22 H          -1.3792    4.1990    0.6993 H       1  LIG1        0.1258
     23 H           1.2242    0.0087    0.1540 H       1  LIG1        0.1362
     24 H           0.7354    4.2316   -0.5766 H       1  LIG1        0.1342
     25 H           7.3141    2.0860   -2.3243 H       1  LIG1        0.0691
     26 H           7.2396    0.4283   -2.9710 H       1  LIG1        0.0648
     27 H           6.2358    1.6893   -3.6852 H       1  LIG1        0.0671
     28 H           7.7193   -0.2954   -0.0933 H       1  LIG1        0.0572
     29 H           6.8301   -1.8055   -0.4103 H       1  LIG1        0.0562
     30 H           7.4594   -0.8637   -1.7611 H       1  LIG1        0.0577
     31 H           4.0219    3.0350   -4.5632 H       1  LIG1        0.0875
     32 H           3.8698    4.5408   -3.6247 H       1  LIG1        0.0844
     33 H           5.3631    3.6077   -3.5409 H       1  LIG1        0.0872
     34 H           5.3075   -0.9441    2.0095 H       1  LIG1        0.0815
     35 H           3.9126   -1.8247    1.3387 H       1  LIG1        0.0818
     36 H           5.5298   -2.1487    0.7166 H       1  LIG1        0.0780
@<TRIPOS>BOND
     1     1     2   ar
     2     1     3   ar
     3     2     4   ar
     4     3     5   ar
     5     4     9   ar
     6     5     9   ar
     7     6     7   ar
     8     6    10   ar
     9     6    12   ar
    10     7     8   ar
    11     7    13    1
    12     8    11   ar
    13     8    14    1
    14     9    19    1
    15    10    15    1
    16    10    18   ar
    17    11    16    1
    18    11    17   ar
    19    12    17   ar
    20    12    19   ar
    21    18    19   ar
    22     1    20    1
    23     2    21    1
    24     3    22    1
    25     4    23    1
    26     5    24    1
    27    13    25    1
    28    13    26    1
    29    13    27    1
    30    14    28    1
    31    14    29    1
    32    14    30    1
    33    15    31    1
    34    15    32    1
    35    15    33    1
    36    16    34    1
    37    16    35    1
    38    16    36    1
