@<TRIPOS>MOLECULE
AO-476/43250047
 51 54 0 0 0
SMALL
USER_CHARGES

@<TRIPOS>ATOM
      1 C           5.1622   -2.6409    0.6313 C.ar    1  LIG1       -0.0436
      2 C           4.8660   -1.1171    2.4826 C.ar    1  LIG1       -0.0487
      3 C           5.4600   -3.6692    1.5253 C.ar    1  LIG1       -0.0416
      4 C           5.1637   -2.1455    3.3767 C.ar    1  LIG1       -0.0516
      5 C           4.6659    1.1283   -1.3639 C.ar    1  LIG1        0.0168
      6 C           3.3950    1.1987   -0.6859 C.ar    1  LIG1        0.0803
      7 C           4.8652   -1.3648    1.1099 C.ar    1  LIG1        0.0012
      8 C           5.4608   -3.4216    2.8980 C.ar    1  LIG1       -0.0033
      9 C           5.0751    1.9189   -2.4270 C.ar    1  LIG1       -0.0024
     10 C           5.3903    0.1392   -0.7646 C.ar    1  LIG1       -0.0123
     11 C           2.4332    2.1354   -1.0907 C.ar    1  LIG1        0.0990
     12 C          -1.4576    2.5909    0.6457 C.3     1  LIG1       -0.0622
     13 C          -0.7457    1.2439    0.6669 C.3     1  LIG1       -0.0482
     14 C          -0.4389    3.7243    0.6662 C.3     1  LIG1       -0.0483
     15 C           0.2592    1.1198   -0.4773 C.3     1  LIG1       -0.0186
     16 C           0.5602    3.5976   -0.4818 C.3     1  LIG1       -0.0201
     17 C           6.3650    1.8942   -3.1607 C.3     1  LIG1        0.0039
     18 C           6.7451   -0.3976   -1.0077 C.3     1  LIG1        0.0049
     19 C           3.6337   -4.3678    4.8895 C.3     1  LIG1       -0.0339
     20 C           5.1381   -4.3623    5.0583 C.3     1  LIG1        0.0158
     21 N           3.3672    0.2749    0.2901 N.ar    1  LIG1       -0.2904
     22 N           4.1224    2.8163   -2.7960 N.ar    1  LIG1       -0.2963
     23 N           2.8215    2.9203   -2.1353 N.ar    1  LIG1       -0.2585
     24 N           4.5670   -0.3356    0.2153 N.ar    1  LIG1       -0.2771
     25 N           1.1781    2.2639   -0.4835 N.pl3   1  LIG1       -0.3557
     26 O           5.7504   -4.4247    3.7711 O.3     1  LIG1       -0.4135
     27 H           5.1654   -2.8479   -0.4362 H       1  LIG1        0.1504
     28 H           4.6368   -0.1269    2.8690 H       1  LIG1        0.1517
     29 H           5.6905   -4.6614    1.1469 H       1  LIG1        0.1438
     30 H           5.1620   -1.9458    4.4448 H       1  LIG1        0.1257
     31 H          -2.0811    2.6671   -0.2533 H       1  LIG1        0.0406
     32 H          -2.1246    2.6737    1.5109 H       1  LIG1        0.0454
     33 H          -0.2219    1.1286    1.6242 H       1  LIG1        0.0578
     34 H          -1.4799    0.4331    0.6037 H       1  LIG1        0.0552
     35 H          -0.9540    4.6892    0.6030 H       1  LIG1        0.0574
     36 H           0.1000    3.7085    1.6219 H       1  LIG1        0.0579
     37 H           0.8179    0.1834   -0.3551 H       1  LIG1        0.1067
     38 H          -0.2741    1.0667   -1.4354 H       1  LIG1        0.0807
     39 H           0.0526    3.7742   -1.4389 H       1  LIG1        0.0735
     40 H           1.3290    4.3718   -0.3659 H       1  LIG1        0.1042
     41 H           6.3148    1.2015   -4.0129 H       1  LIG1        0.0820
     42 H           6.6325    2.8900   -3.5448 H       1  LIG1        0.0822
     43 H           7.1951    1.5776   -2.5111 H       1  LIG1        0.0764
     44 H           7.4982    0.1440   -0.4131 H       1  LIG1        0.0895
     45 H           6.8176   -1.4672   -0.7485 H       1  LIG1        0.0812
     46 H           7.0352   -0.3199   -2.0691 H       1  LIG1        0.0922
     47 H           3.3037   -3.5053    4.3039 H       1  LIG1        0.0586
     48 H           3.3050   -5.2832    4.3868 H       1  LIG1        0.0489
     49 H           3.1360   -4.3439    5.8646 H       1  LIG1        0.0489
     50 H           5.4616   -5.2274    5.6449 H       1  LIG1        0.0970
     51 H           5.4649   -3.4466    5.5600 H       1  LIG1        0.0969
@<TRIPOS>BOND
     1     1     3   ar
     2     1     7   ar
     3     2     4   ar
     4     2     7   ar
     5     3     8   ar
     6     4     8   ar
     7     5     6   ar
     8     5     9   ar
     9     5    10   ar
    10     6    11   ar
    11     6    21   ar
    12     7    24    1
    13     8    26    1
    14     9    17    1
    15     9    22   ar
    16    10    18    1
    17    10    24   ar
    18    11    23   ar
    19    11    25    1
    20    12    13    1
    21    12    14    1
    22    13    15    1
    23    14    16    1
    24    15    25    1
    25    16    25    1
    26    19    20    1
    27    20    26    1
    28    21    24   ar
    29    22    23   ar
    30     1    27    1
    31     2    28    1
    32     3    29    1
    33     4    30    1
    34    12    31    1
    35    12    32    1
    36    13    33    1
    37    13    34    1
    38    14    35    1
    39    14    36    1
    40    15    37    1
    41    15    38    1
    42    16    39    1
    43    16    40    1
    44    17    41    1
    45    17    42    1
    46    17    43    1
    47    18    44    1
    48    18    45    1
    49    18    46    1
    50    19    47    1
    51    19    48    1
    52    19    49    1
    53    20    50    1
    54    20    51    1
