@<TRIPOS>MOLECULE
AE-848/32730016
 48 52 0 0 0
SMALL
USER_CHARGES

@<TRIPOS>ATOM
      1 C           4.6430   -2.0904    3.0951 C.ar    1  LIG1       -0.1016
      2 C           5.5403   -3.1477    2.9575 C.ar    1  LIG1       -0.0985
      3 C           4.3518   -1.2525    2.0124 C.ar    1  LIG1       -0.0897
      4 C           5.5190    3.7930   -3.2072 C.ar    1  LIG1       -0.0690
      5 C           3.5584    3.2580   -4.5137 C.ar    1  LIG1       -0.0633
      6 C          -0.1129    1.1202   -0.3259 C.ar    1  LIG1       -0.0687
      7 C           0.7753    3.2563    0.3707 C.ar    1  LIG1       -0.0635
      8 C           6.1738   -3.4013    1.7375 C.ar    1  LIG1       -0.0734
      9 C           5.9486    4.6638   -4.2085 C.ar    1  LIG1       -0.0770
     10 C           3.9881    4.1288   -5.5150 C.ar    1  LIG1       -0.0737
     11 C          -1.3534    1.4600    0.2136 C.ar    1  LIG1       -0.0768
     12 C          -0.4652    3.5961    0.9102 C.ar    1  LIG1       -0.0739
     13 C           4.6523    1.1043   -1.9405 C.ar    1  LIG1       -0.0354
     14 C           2.9311    0.5573   -0.3522 C.ar    1  LIG1       -0.0342
     15 C           5.7686   -1.5431   -1.3445 C.ar    1  LIG1       -0.0455
     16 C           4.9784   -1.4887    0.7726 C.ar    1  LIG1       -0.0591
     17 C           4.3239    3.0901   -3.3598 C.ar    1  LIG1       -0.0296
     18 C           0.9516    2.0183   -0.2474 C.ar    1  LIG1       -0.0295
     19 C           4.1619    0.2779   -0.9355 C.ar    1  LIG1       -0.0559
     20 C           4.9224   -0.8592   -0.5024 C.ar    1  LIG1       -0.0482
     21 C           5.8730   -2.5555    0.6640 C.ar    1  LIG1       -0.0524
     22 C           5.1832    4.8317   -5.3625 C.ar    1  LIG1       -0.0407
     23 C          -1.5296    2.6980    0.8317 C.ar    1  LIG1       -0.0406
     24 C           3.8794    2.1887   -2.3231 C.ar    1  LIG1       -0.0083
     25 C           2.2353    1.6663   -0.8058 C.ar    1  LIG1       -0.0076
     26 C           7.2877   -3.5092   -1.1781 C.3     1  LIG1       -0.0098
     27 N           2.6792    2.4921   -1.7798 N.ar    1  LIG1       -0.3722
     28 N           6.3373   -2.5646   -0.6321 N.ar    1  LIG1       -0.3763
     29 BR          5.7641    6.0123   -6.7192 Br      1  LIG1       -0.1112
     30 BR         -3.2104    3.1596    1.5620 Br      1  LIG1       -0.1112
     31 H           4.1628   -1.9130    4.0537 H       1  LIG1        0.1138
     32 H           5.7516   -3.7858    3.8118 H       1  LIG1        0.1228
     33 H           3.6502   -0.4325    2.1365 H       1  LIG1        0.1259
     34 H           6.1268    3.6728   -2.3134 H       1  LIG1        0.1363
     35 H           2.6242    2.7177   -4.6470 H       1  LIG1        0.1481
     36 H           0.0089    0.1512   -0.8045 H       1  LIG1        0.1369
     37 H           1.5950    3.9674    0.4389 H       1  LIG1        0.1478
     38 H           6.8714   -4.2259    1.6362 H       1  LIG1        0.1208
     39 H           6.8819    5.2046   -4.0739 H       1  LIG1        0.1356
     40 H           3.3800    4.2483   -6.4079 H       1  LIG1        0.1361
     41 H          -2.1727    0.7491    0.1436 H       1  LIG1        0.1359
     42 H          -0.5858    4.5646    1.3883 H       1  LIG1        0.1358
     43 H           5.6105    0.9053   -2.4128 H       1  LIG1        0.1389
     44 H           2.5270   -0.0742    0.4342 H       1  LIG1        0.1408
     45 H           6.0155   -1.3923   -2.3878 H       1  LIG1        0.2052
     46 H           8.2913   -3.1019   -1.0297 H       1  LIG1        0.0999
     47 H           7.1845   -4.4685   -0.6632 H       1  LIG1        0.1073
     48 H           7.0850   -3.6510   -2.2433 H       1  LIG1        0.1089
@<TRIPOS>BOND
     1     1     2   ar
     2     1     3   ar
     3     2     8   ar
     4     3    16   ar
     5     4     9   ar
     6     4    17   ar
     7     5    10   ar
     8     5    17   ar
     9     6    11   ar
    10     6    18   ar
    11     7    12   ar
    12     7    18   ar
    13     8    21   ar
    14     9    22   ar
    15    10    22   ar
    16    11    23   ar
    17    12    23   ar
    18    13    19   ar
    19    13    24   ar
    20    14    19   ar
    21    14    25   ar
    22    15    20   ar
    23    15    28   ar
    24    16    20   ar
    25    16    21   ar
    26    17    24    1
    27    18    25    1
    28    19    20    1
    29    21    28   ar
    30    22    29    1
    31    23    30    1
    32    24    27   ar
    33    25    27   ar
    34    26    28    1
    35     1    31    1
    36     2    32    1
    37     3    33    1
    38     4    34    1
    39     5    35    1
    40     6    36    1
    41     7    37    1
    42     8    38    1
    43     9    39    1
    44    10    40    1
    45    11    41    1
    46    12    42    1
    47    13    43    1
    48    14    44    1
    49    15    45    1
    50    26    46    1
    51    26    47    1
    52    26    48    1
