@<TRIPOS>MOLECULE
AK-968/11840335
 55 58 0 0 0
SMALL
USER_CHARGES

@<TRIPOS>ATOM
      1 C           5.2954   -2.7629    0.7537 C.ar    1  LIG1       -0.0801
      2 C           4.8774   -0.7586    2.0364 C.ar    1  LIG1       -0.0787
      3 C           0.1642    2.7958    1.2637 C.ar    1  LIG1       -0.0887
      4 C          -0.7782    1.3189   -0.4000 C.ar    1  LIG1       -0.0957
      5 C           4.1267    3.9334   -5.5946 C.ar    1  LIG1       -0.0868
      6 C           6.0071    4.8761   -4.4060 C.ar    1  LIG1       -0.0864
      7 C           1.2189    3.0944    0.4012 C.ar    1  LIG1       -0.0616
      8 C           0.2765    1.6176   -1.2626 C.ar    1  LIG1       -0.0713
      9 C           3.9231    3.0272   -4.5539 C.ar    1  LIG1       -0.0582
     10 C           5.8035    3.9699   -3.3653 C.ar    1  LIG1       -0.0577
     11 C           4.8413   -3.5397    1.8193 C.ar    1  LIG1       -0.0616
     12 C           4.4231   -1.5356    3.1022 C.ar    1  LIG1       -0.0608
     13 C           5.3136   -1.3724    0.8622 C.ar    1  LIG1       -0.0635
     14 C          -0.8343    1.9079    0.8632 C.ar    1  LIG1       -0.1110
     15 C           5.1687    4.8578   -5.5207 C.ar    1  LIG1       -0.1079
     16 C           1.2751    2.5054   -0.8619 C.ar    1  LIG1       -0.0300
     17 C           4.7615    3.0455   -3.4393 C.ar    1  LIG1       -0.0103
     18 C           4.4050   -2.9261    2.9936 C.ar    1  LIG1       -0.0352
     19 C           5.0502    0.3728   -0.8512 C.2     1  LIG1        0.0958
     20 C           5.5417    1.1932   -1.9892 C.2     1  LIG1        0.1657
     21 C           3.3723    2.0455   -1.6399 C.2     1  LIG1        0.1120
     22 C           5.7873   -0.5623   -0.2491 C.2     1  LIG1       -0.0293
     23 C          -2.5057    0.1777    1.5699 C.3     1  LIG1       -0.0635
     24 C           6.3332    5.2826   -7.7002 C.3     1  LIG1       -0.0628
     25 C          -1.9616    1.5875    1.7855 C.3     1  LIG1       -0.0487
     26 C           5.3863    5.8266   -6.6335 C.3     1  LIG1       -0.0470
     27 N           2.3376    2.8079   -1.7318 N.2     1  LIG1       -0.3329
     28 N           4.5517    2.1119   -2.3663 N.am    1  LIG1       -0.2251
     29 O           6.6367    0.9938   -2.5003 O.2     1  LIG1       -0.4364
     30 O           3.9618   -3.6842    4.0335 O.3     1  LIG1       -0.4358
     31 S           3.4371    0.7778   -0.4422 S.3     1  LIG1       -0.0324
     32 H           5.6324   -3.2558   -0.1553 H       1  LIG1        0.1392
     33 H           4.8855    0.3241    2.1360 H       1  LIG1        0.1408
     34 H           0.1284    3.2589    2.2463 H       1  LIG1        0.1268
     35 H          -1.5511    0.6251   -0.7199 H       1  LIG1        0.1244
     36 H           3.4700    3.9106   -6.4603 H       1  LIG1        0.1270
     37 H           6.8219    5.5923   -4.3405 H       1  LIG1        0.1271
     38 H           1.9931    3.7868    0.7222 H       1  LIG1        0.1373
     39 H           0.3119    1.1540   -2.2448 H       1  LIG1        0.1237
     40 H           3.1077    2.3115   -4.6219 H       1  LIG1        0.1336
     41 H           6.4635    3.9922   -2.5017 H       1  LIG1        0.1341
     42 H           4.8296   -4.6225    1.7290 H       1  LIG1        0.1316
     43 H           4.0845   -1.0518    4.0143 H       1  LIG1        0.1312
     44 H           6.8026   -0.7219   -0.5730 H       1  LIG1        0.1920
     45 H          -2.8340    0.0375    0.5344 H       1  LIG1        0.0340
     46 H          -3.3613   -0.0120    2.2256 H       1  LIG1        0.0338
     47 H          -1.7402   -0.5758    1.7846 H       1  LIG1        0.0364
     48 H           7.3000    5.0086   -7.2644 H       1  LIG1        0.0343
     49 H           6.5119    6.0316   -8.4781 H       1  LIG1        0.0369
     50 H           5.9152    4.3901   -8.1781 H       1  LIG1        0.0345
     51 H          -1.6415    1.6931    2.8346 H       1  LIG1        0.0609
     52 H          -2.7811    2.3130    1.6570 H       1  LIG1        0.0610
     53 H           4.4265    6.0913   -7.1056 H       1  LIG1        0.0623
     54 H           5.7901    6.7749   -6.2437 H       1  LIG1        0.0622
     55 H           3.6947   -3.1163    4.7738 H       1  LIG1        0.3609
@<TRIPOS>BOND
     1     1    11   ar
     2     1    13   ar
     3     2    12   ar
     4     2    13   ar
     5     3     7   ar
     6     3    14   ar
     7     4     8   ar
     8     4    14   ar
     9     5     9   ar
    10     5    15   ar
    11     6    10   ar
    12     6    15   ar
    13     7    16   ar
    14     8    16   ar
    15     9    17   ar
    16    10    17   ar
    17    11    18   ar
    18    12    18   ar
    19    13    22    1
    20    14    25    1
    21    15    26    1
    22    16    27    1
    23    17    28    1
    24    18    30    1
    25    19    20    1
    26    19    22    2
    27    19    31    1
    28    20    28   am
    29    20    29    2
    30    21    27    2
    31    21    28    1
    32    21    31    1
    33    23    25    1
    34    24    26    1
    35     1    32    1
    36     2    33    1
    37     3    34    1
    38     4    35    1
    39     5    36    1
    40     6    37    1
    41     7    38    1
    42     8    39    1
    43     9    40    1
    44    10    41    1
    45    11    42    1
    46    12    43    1
    47    22    44    1
    48    23    45    1
    49    23    46    1
    50    23    47    1
    51    24    48    1
    52    24    49    1
    53    24    50    1
    54    25    51    1
    55    25    52    1
    56    26    53    1
    57    26    54    1
    58    30    55    1
