@<TRIPOS>MOLECULE
AK-968/12097159
 63 66 0 0 0
SMALL
USER_CHARGES

@<TRIPOS>ATOM
      1 C           5.3146   -2.7463    0.7013 C.ar    1  LIG1       -0.0866
      2 C           4.9226   -0.7716    2.0370 C.ar    1  LIG1       -0.0859
      3 C           4.9209   -3.5488    1.7721 C.ar    1  LIG1       -0.0930
      4 C           4.5288   -1.5740    3.1078 C.ar    1  LIG1       -0.0928
      5 C           0.1238    2.7164    1.5389 C.ar    1  LIG1       -0.0889
      6 C          -0.8685    1.2531   -0.1078 C.ar    1  LIG1       -0.0958
      7 C           4.8637    3.6134   -5.6963 C.ar    1  LIG1       -0.0868
      8 C           4.5659    5.4173   -4.1170 C.ar    1  LIG1       -0.0865
      9 C           1.1340    3.0475    0.6360 C.ar    1  LIG1       -0.0616
     10 C           0.1417    1.5843   -1.0108 C.ar    1  LIG1       -0.0713
     11 C           4.7217    2.6861   -4.6641 C.ar    1  LIG1       -0.0582
     12 C           4.4238    4.4900   -3.0847 C.ar    1  LIG1       -0.0578
     13 C           5.3156   -1.3577    0.8338 C.ar    1  LIG1       -0.0662
     14 C          -0.8774    1.8191    1.1671 C.ar    1  LIG1       -0.1112
     15 C           4.7858    4.9790   -5.4228 C.ar    1  LIG1       -0.1080
     16 C           4.5279   -2.9627    2.9753 C.ar    1  LIG1       -0.1083
     17 C           1.1430    2.4815   -0.6389 C.ar    1  LIG1       -0.0302
     18 C           4.5017    3.1244   -3.3583 C.ar    1  LIG1       -0.0104
     19 C           4.9483    0.4123   -0.8344 C.2     1  LIG1        0.0958
     20 C           5.3753    1.2604   -1.9781 C.2     1  LIG1        0.1652
     21 C           3.2104    2.0702   -1.5175 C.2     1  LIG1        0.1118
     22 C           5.7263   -0.5207   -0.2826 C.2     1  LIG1       -0.0299
     23 C          -3.2707    1.1209    1.4347 C.3     1  LIG1       -0.0635
     24 C           6.3905    6.3912   -6.7333 C.3     1  LIG1       -0.0629
     25 C           2.6395   -3.5780    4.5274 C.3     1  LIG1       -0.0622
     26 C           5.0222   -3.6619    5.3461 C.3     1  LIG1       -0.0622
     27 C          -1.9572    1.4640    2.1326 C.3     1  LIG1       -0.0488
     28 C           4.9378    5.9704   -6.5266 C.3     1  LIG1       -0.0471
     29 C           4.1048   -3.8212    4.1189 C.3     1  LIG1       -0.0532
     30 N           2.1607    2.8168   -1.5494 N.2     1  LIG1       -0.3336
     31 N           4.3550    2.1689   -2.2941 N.am    1  LIG1       -0.2253
     32 O           6.4494    1.0882   -2.5408 O.2     1  LIG1       -0.4368
     33 S           3.3488    0.7832   -0.3469 S.3     1  LIG1       -0.0322
     34 H           5.6185   -3.2177   -0.2303 H       1  LIG1        0.1330
     35 H           4.9177    0.3093    2.1554 H       1  LIG1        0.1336
     36 H           4.9227   -4.6297    1.6599 H       1  LIG1        0.1240
     37 H           4.2242   -1.1093    4.0418 H       1  LIG1        0.1229
     38 H           0.1246    3.1617    2.5303 H       1  LIG1        0.1266
     39 H          -1.6438    0.5523   -0.4055 H       1  LIG1        0.1241
     40 H           5.0370    3.2631   -6.7104 H       1  LIG1        0.1269
     41 H           4.5046    6.4794   -3.8947 H       1  LIG1        0.1270
     42 H           1.9107    3.7470    0.9348 H       1  LIG1        0.1370
     43 H           0.1405    1.1384   -2.0019 H       1  LIG1        0.1236
     44 H           4.7837    1.6243   -4.8889 H       1  LIG1        0.1335
     45 H           4.2538    4.8426   -2.0705 H       1  LIG1        0.1340
     46 H           6.7285   -0.6578   -0.6540 H       1  LIG1        0.1909
     47 H          -3.6080    1.9497    0.8030 H       1  LIG1        0.0341
     48 H          -4.0561    0.9119    2.1678 H       1  LIG1        0.0338
     49 H          -3.1576    0.2372    0.7974 H       1  LIG1        0.0363
     50 H           6.8139    6.8068   -5.8126 H       1  LIG1        0.0369
     51 H           6.4657    7.1534   -7.5153 H       1  LIG1        0.0345
     52 H           7.0081    5.5372   -7.0315 H       1  LIG1        0.0343
     53 H           2.4733   -2.5394    4.8333 H       1  LIG1        0.0365
     54 H           2.3443   -4.2217    5.3631 H       1  LIG1        0.0387
     55 H           1.9684   -3.7900    3.6876 H       1  LIG1        0.0358
     56 H           5.0161   -2.6235    5.6959 H       1  LIG1        0.0359
     57 H           6.0578   -3.9297    5.1096 H       1  LIG1        0.0387
     58 H           4.6970   -4.2965    6.1778 H       1  LIG1        0.0367
     59 H          -1.6482    0.6107    2.7576 H       1  LIG1        0.0608
     60 H          -2.1302    2.2932    2.8375 H       1  LIG1        0.0610
     61 H           4.5449    5.5582   -7.4699 H       1  LIG1        0.0622
     62 H           4.3288    6.8663   -6.3246 H       1  LIG1        0.0621
     63 H           4.1665   -4.8879    3.8304 H       1  LIG1        0.0687
@<TRIPOS>BOND
     1     1     3   ar
     2     1    13   ar
     3     2     4   ar
     4     2    13   ar
     5     3    16   ar
     6     4    16   ar
     7     5     9   ar
     8     5    14   ar
     9     6    10   ar
    10     6    14   ar
    11     7    11   ar
    12     7    15   ar
    13     8    12   ar
    14     8    15   ar
    15     9    17   ar
    16    10    17   ar
    17    11    18   ar
    18    12    18   ar
    19    13    22    1
    20    14    27    1
    21    15    28    1
    22    16    29    1
    23    17    30    1
    24    18    31    1
    25    19    20    1
    26    19    22    2
    27    19    33    1
    28    20    31   am
    29    20    32    2
    30    21    30    2
    31    21    31    1
    32    21    33    1
    33    23    27    1
    34    24    28    1
    35    25    29    1
    36    26    29    1
    37     1    34    1
    38     2    35    1
    39     3    36    1
    40     4    37    1
    41     5    38    1
    42     6    39    1
    43     7    40    1
    44     8    41    1
    45     9    42    1
    46    10    43    1
    47    11    44    1
    48    12    45    1
    49    22    46    1
    50    23    47    1
    51    23    48    1
    52    23    49    1
    53    24    50    1
    54    24    51    1
    55    24    52    1
    56    25    53    1
    57    25    54    1
    58    25    55    1
    59    26    56    1
    60    26    57    1
    61    26    58    1
    62    27    59    1
    63    27    60    1
    64    28    61    1
    65    28    62    1
    66    29    63    1
