@<TRIPOS>MOLECULE
AG-205/36408043
 50 54 0 0 0
SMALL
USER_CHARGES

@<TRIPOS>ATOM
      1 C           5.4009   -3.3295    2.8030 C.ar    1  LIG1       -0.1072
      2 C           8.6325    4.0415   -3.1105 C.ar    1  LIG1       -0.1097
      3 C          -1.1999    2.1912    1.0274 C.ar    1  LIG1       -0.1001
      4 C           5.0262   -2.0633    3.2523 C.ar    1  LIG1       -0.1037
      5 C           5.5677   -3.5642    1.4381 C.ar    1  LIG1       -0.1039
      6 C           7.5650    4.3814   -2.2795 C.ar    1  LIG1       -0.1068
      7 C           8.7298    2.7498   -3.6278 C.ar    1  LIG1       -0.1073
      8 C          -0.8014    1.0542    0.3246 C.ar    1  LIG1       -0.0900
      9 C          -0.4182    3.3458    0.9869 C.ar    1  LIG1       -0.0931
     10 C           4.8179   -1.0318    2.3366 C.ar    1  LIG1       -0.0933
     11 C           5.3594   -2.5328    0.5225 C.ar    1  LIG1       -0.0935
     12 C           6.5949    3.4295   -1.9656 C.ar    1  LIG1       -0.0989
     13 C           7.7598    1.7979   -3.3140 C.ar    1  LIG1       -0.0993
     14 C           0.3789    1.0716   -0.4185 C.ar    1  LIG1       -0.0517
     15 C           0.7622    3.3632    0.2438 C.ar    1  LIG1       -0.0565
     16 C           4.9845   -1.2666    0.9717 C.ar    1  LIG1       -0.0822
     17 C           6.6923    2.1377   -2.4829 C.ar    1  LIG1       -0.0956
     18 C           4.3411    1.8232   -2.0103 C.ar    1  LIG1       -0.0442
     19 C           1.1606    2.2261   -0.4589 C.ar    1  LIG1       -0.0059
     20 C           3.4340    1.4506   -1.0500 C.ar    1  LIG1       -0.0150
     21 C           3.6835    2.8497   -2.7169 C.ar    1  LIG1       -0.0266
     22 C           3.5562    0.4359   -0.0868 C.2     1  LIG1       -0.0482
     23 C           4.7630   -0.1693   -0.0030 C.2     1  LIG1       -0.0775
     24 C           5.9659    0.2726   -0.8552 C.3     1  LIG1       -0.0143
     25 C           5.6400    1.1039   -2.1425 C.3     1  LIG1       -0.0106
     26 C           4.1815    3.6100   -3.8761 C.3     1  LIG1       -0.0041
     27 N           2.4688    3.1195   -2.2202 N.ar    1  LIG1       -0.3289
     28 N           2.3419    2.2430   -1.2028 N.ar    1  LIG1       -0.2888
     29 H           5.5644   -4.1323    3.5159 H       1  LIG1        0.1154
     30 H           9.3870    4.7832   -3.3558 H       1  LIG1        0.1124
     31 H          -2.1196    2.1788    1.6047 H       1  LIG1        0.1215
     32 H           4.8974   -1.8800    4.3150 H       1  LIG1        0.1169
     33 H           5.8606   -4.5498    1.0883 H       1  LIG1        0.1169
     34 H           7.4884    5.3875   -1.8774 H       1  LIG1        0.1136
     35 H           9.5601    2.4852   -4.2757 H       1  LIG1        0.1146
     36 H          -1.4105    0.1555    0.3548 H       1  LIG1        0.1285
     37 H          -0.7300    4.2313    1.5333 H       1  LIG1        0.1283
     38 H           4.5259   -0.0501    2.7021 H       1  LIG1        0.1220
     39 H           5.4932   -2.7314   -0.5381 H       1  LIG1        0.1219
     40 H           5.7668    3.7031   -1.3171 H       1  LIG1        0.1160
     41 H           7.8439    0.7938   -3.7215 H       1  LIG1        0.1176
     42 H           0.6777    0.1787   -0.9623 H       1  LIG1        0.1384
     43 H           1.3616    4.2701    0.2203 H       1  LIG1        0.1305
     44 H           2.7287    0.1604    0.5610 H       1  LIG1        0.1420
     45 H           6.6801    0.8240   -0.2336 H       1  LIG1        0.0821
     46 H           6.4710   -0.6479   -1.1749 H       1  LIG1        0.0816
     47 H           5.5899    0.3829   -3.0241 H       1  LIG1        0.1003
     48 H           3.9078    3.1185   -4.8255 H       1  LIG1        0.0763
     49 H           3.7777    4.6378   -3.9056 H       1  LIG1        0.0724
     50 H           5.2808    3.7179   -3.8625 H       1  LIG1        0.0874
@<TRIPOS>BOND
     1     1     4   ar
     2     1     5   ar
     3     2     6   ar
     4     2     7   ar
     5     3     8   ar
     6     3     9   ar
     7     4    10   ar
     8     5    11   ar
     9     6    12   ar
    10     7    13   ar
    11     8    14   ar
    12     9    15   ar
    13    10    16   ar
    14    11    16   ar
    15    12    17   ar
    16    13    17   ar
    17    14    19   ar
    18    15    19   ar
    19    16    23    1
    20    17    25    1
    21    18    20   ar
    22    18    21   ar
    23    18    25    1
    24    19    28    1
    25    20    22    1
    26    20    28   ar
    27    21    26    1
    28    21    27   ar
    29    22    23    2
    30    23    24    1
    31    24    25    1
    32    27    28   ar
    33     1    29    1
    34     2    30    1
    35     3    31    1
    36     4    32    1
    37     5    33    1
    38     6    34    1
    39     7    35    1
    40     8    36    1
    41     9    37    1
    42    10    38    1
    43    11    39    1
    44    12    40    1
    45    13    41    1
    46    14    42    1
    47    15    43    1
    48    22    44    1
    49    24    45    1
    50    24    46    1
    51    25    47    1
    52    26    48    1
    53    26    49    1
    54    26    50    1
