@<TRIPOS>MOLECULE
AK-968/11986610
 57 61 0 0 0
SMALL
USER_CHARGES

@<TRIPOS>ATOM
      1 C           5.3163   -2.7467    0.7116 C.ar    1  LIG1       -0.0688
      2 C          -0.8690    1.2516   -0.1068 C.ar    1  LIG1       -0.0888
      3 C           0.1184    2.7196    1.5386 C.ar    1  LIG1       -0.0960
      4 C           4.2509    3.7133   -5.6837 C.ar    1  LIG1       -0.0864
      5 C           5.1815    5.3098   -4.1273 C.ar    1  LIG1       -0.0864
      6 C           0.1408    1.5843   -1.0097 C.ar    1  LIG1       -0.0616
      7 C           1.1283    3.0522    0.6357 C.ar    1  LIG1       -0.0716
      8 C           4.1081    2.7884   -4.6496 C.ar    1  LIG1       -0.0579
      9 C           5.0386    4.3849   -3.0931 C.ar    1  LIG1       -0.0580
     10 C           4.9243   -3.5671    1.7720 C.ar    1  LIG1       -0.0438
     11 C           4.9170   -0.7527    2.0506 C.ar    1  LIG1       -0.0348
     12 C           5.3128   -1.3475    0.8501 C.ar    1  LIG1       -0.0486
     13 C          -0.8802    1.8193    1.1673 C.ar    1  LIG1       -0.1112
     14 C           4.7877    4.9741   -5.4227 C.ar    1  LIG1       -0.1076
     15 C           1.1395    2.4846   -0.6384 C.ar    1  LIG1       -0.0305
     16 C           4.5018    3.1241   -3.3542 C.ar    1  LIG1       -0.0107
     17 C           4.5379   -2.9548    2.9465 C.ar    1  LIG1        0.0379
     18 C           4.5345   -1.5853    3.0821 C.ar    1  LIG1        0.0398
     19 C           4.9471    0.4186   -0.8230 C.2     1  LIG1        0.0984
     20 C           5.3751    1.2644   -1.9681 C.2     1  LIG1        0.1665
     21 C           3.2087    2.0731   -1.5128 C.2     1  LIG1        0.1106
     22 C           5.7252   -0.5123   -0.2677 C.2     1  LIG1       -0.0238
     23 C           3.8646   -2.4627    4.9432 C.3     1  LIG1        0.1147
     24 C          -3.1650    2.3960    2.0241 C.3     1  LIG1       -0.0635
     25 C           6.2948    5.8516   -7.2241 C.3     1  LIG1       -0.0627
     26 C          -1.9604    1.4647    2.1325 C.3     1  LIG1       -0.0488
     27 C           4.9405    5.9629   -6.5286 C.3     1  LIG1       -0.0467
     28 N           2.1583    2.8186   -1.5482 N.2     1  LIG1       -0.3345
     29 N           4.3544    2.1711   -2.2880 N.am    1  LIG1       -0.2261
     30 O           6.4503    1.0919   -2.5287 O.2     1  LIG1       -0.4357
     31 O           4.1277   -3.5874    4.0793 O.3     1  LIG1       -0.3733
     32 O           4.1213   -1.1890    4.3167 O.3     1  LIG1       -0.3762
     33 S           3.3465    0.7891   -0.3389 S.3     1  LIG1       -0.0314
     34 H           5.6250   -3.2075   -0.2244 H       1  LIG1        0.1474
     35 H          -1.6434    0.5497   -0.4044 H       1  LIG1        0.1267
     36 H           0.1169    3.1676    2.5286 H       1  LIG1        0.1244
     37 H           3.9436    3.4424   -6.6904 H       1  LIG1        0.1271
     38 H           5.6014    6.2896   -3.9151 H       1  LIG1        0.1270
     39 H           0.1411    1.1376   -2.0007 H       1  LIG1        0.1371
     40 H           1.9023    3.7546    0.9338 H       1  LIG1        0.1236
     41 H           3.6882    1.8089   -4.8644 H       1  LIG1        0.1341
     42 H           5.3496    4.6566   -2.0875 H       1  LIG1        0.1337
     43 H           4.9258   -4.6463    1.6695 H       1  LIG1        0.1482
     44 H           4.9077    0.3253    2.1764 H       1  LIG1        0.1582
     45 H           6.7282   -0.6495   -0.6362 H       1  LIG1        0.1954
     46 H           2.8138   -2.4961    5.2527 H       1  LIG1        0.1717
     47 H           4.4971   -2.5492    5.8343 H       1  LIG1        0.2061
     48 H          -2.8699    3.4395    2.1782 H       1  LIG1        0.0338
     49 H          -3.9196    2.1425    2.7751 H       1  LIG1        0.0363
     50 H          -3.6314    2.3213    1.0358 H       1  LIG1        0.0340
     51 H           7.1151    5.9782   -6.5094 H       1  LIG1        0.0370
     52 H           6.3975    6.6193   -7.9974 H       1  LIG1        0.0345
     53 H           6.4123    4.8724   -7.7004 H       1  LIG1        0.0345
     54 H          -2.2927    0.4263    1.9725 H       1  LIG1        0.0609
     55 H          -1.5766    1.4914    3.1653 H       1  LIG1        0.0610
     56 H           4.1408    5.8311   -7.2750 H       1  LIG1        0.0624
     57 H           4.8155    6.9889   -6.1463 H       1  LIG1        0.0624
@<TRIPOS>BOND
     1     1    10   ar
     2     1    12   ar
     3     2     6   ar
     4     2    13   ar
     5     3     7   ar
     6     3    13   ar
     7     4     8   ar
     8     4    14   ar
     9     5     9   ar
    10     5    14   ar
    11     6    15   ar
    12     7    15   ar
    13     8    16   ar
    14     9    16   ar
    15    10    17   ar
    16    11    12   ar
    17    11    18   ar
    18    12    22    1
    19    13    26    1
    20    14    27    1
    21    15    28    1
    22    16    29    1
    23    17    18   ar
    24    17    31    1
    25    18    32    1
    26    19    20    1
    27    19    22    2
    28    19    33    1
    29    20    29   am
    30    20    30    2
    31    21    28    2
    32    21    29    1
    33    21    33    1
    34    23    31    1
    35    23    32    1
    36    24    26    1
    37    25    27    1
    38     1    34    1
    39     2    35    1
    40     3    36    1
    41     4    37    1
    42     5    38    1
    43     6    39    1
    44     7    40    1
    45     8    41    1
    46     9    42    1
    47    10    43    1
    48    11    44    1
    49    22    45    1
    50    23    46    1
    51    23    47    1
    52    24    48    1
    53    24    49    1
    54    24    50    1
    55    25    51    1
    56    25    52    1
    57    25    53    1
    58    26    54    1
    59    26    55    1
    60    27    56    1
    61    27    57    1
