@<TRIPOS>MOLECULE
AK-087/11538930
 36 38 0 0 0
SMALL
USER_CHARGES

@<TRIPOS>ATOM
      1 C           4.8652    0.0786    0.6858 C.1     1  LIG1        0.0327
      2 C          -1.2379    2.0636    1.1709 C.ar    1  LIG1       -0.0978
      3 C          -0.8247    0.9261    0.4774 C.ar    1  LIG1       -0.0879
      4 C          -0.4624    3.2225    1.1347 C.ar    1  LIG1       -0.0919
      5 C           4.0674    3.0402   -4.8813 C.ar    1  LIG1       -0.0753
      6 C           4.9855    4.6509   -3.3321 C.ar    1  LIG1       -0.0758
      7 C           4.6022    3.7619   -5.9485 C.ar    1  LIG1       -0.0975
      8 C           5.5202    5.3726   -4.3993 C.ar    1  LIG1       -0.0976
      9 C           0.3641    0.9475   -0.2522 C.ar    1  LIG1       -0.0515
     10 C           0.7263    3.2439    0.4052 C.ar    1  LIG1       -0.0582
     11 C           4.3363    1.7002   -1.7641 C.ar    1  LIG1       -0.0354
     12 C           4.2590    3.4847   -3.5731 C.ar    1  LIG1       -0.0358
     13 C           5.3286    4.9280   -5.7074 C.ar    1  LIG1       -0.1163
     14 C           1.1396    2.1063   -0.2882 C.ar    1  LIG1       -0.0086
     15 C           3.7089    2.7410   -2.4747 C.ar    1  LIG1        0.0077
     16 C           3.4114    1.3215   -0.8220 C.ar    1  LIG1       -0.0011
     17 C           5.9010    5.6981   -6.8491 C.3     1  LIG1       -0.0429
     18 C           3.4780    0.2814    0.2235 C.3     1  LIG1        0.1206
     19 N           5.9590   -0.0745    1.0418 N.1     1  LIG1       -0.3863
     20 N           2.4803    3.0065   -2.0228 N.ar    1  LIG1       -0.3116
     21 N           2.3283    2.1269   -1.0182 N.ar    1  LIG1       -0.2892
     22 H          -2.1642    2.0481    1.7375 H       1  LIG1        0.1246
     23 H          -1.4290    0.0241    0.5042 H       1  LIG1        0.1303
     24 H          -0.7857    4.1084    1.6738 H       1  LIG1        0.1291
     25 H           3.5030    2.1335   -5.0862 H       1  LIG1        0.1324
     26 H           5.1435    5.0104   -2.3179 H       1  LIG1        0.1313
     27 H           4.4489    3.4081   -6.9645 H       1  LIG1        0.1190
     28 H           6.0850    6.2801   -4.2031 H       1  LIG1        0.1201
     29 H           0.6742    0.0541   -0.7888 H       1  LIG1        0.1402
     30 H           1.3208    4.1541    0.3850 H       1  LIG1        0.1263
     31 H           5.3214    1.2804   -1.9114 H       1  LIG1        0.1366
     32 H           5.1822    6.4472   -7.2032 H       1  LIG1        0.0575
     33 H           6.8258    6.2133   -6.5585 H       1  LIG1        0.0542
     34 H           6.1562    5.0370   -7.6877 H       1  LIG1        0.0539
     35 H           3.0794   -0.6808   -0.1427 H       1  LIG1        0.1655
     36 H           2.8472    0.5435    1.0907 H       1  LIG1        0.1784
@<TRIPOS>BOND
     1     1    18    1
     2     1    19    3
     3     2     3   ar
     4     2     4   ar
     5     3     9   ar
     6     4    10   ar
     7     5     7   ar
     8     5    12   ar
     9     6     8   ar
    10     6    12   ar
    11     7    13   ar
    12     8    13   ar
    13     9    14   ar
    14    10    14   ar
    15    11    15   ar
    16    11    16   ar
    17    12    15    1
    18    13    17    1
    19    14    21    1
    20    15    20   ar
    21    16    18    1
    22    16    21   ar
    23    20    21   ar
    24     2    22    1
    25     3    23    1
    26     4    24    1
    27     5    25    1
    28     6    26    1
    29     7    27    1
    30     8    28    1
    31     9    29    1
    32    10    30    1
    33    11    31    1
    34    17    32    1
    35    17    33    1
    36    17    34    1
    37    18    35    1
    38    18    36    1
