@<TRIPOS>MOLECULE
AA-516/30011054
 28 30 0 0 0
SMALL
USER_CHARGES

@<TRIPOS>ATOM
      1 C           5.2094   -3.3327    2.9492 C.ar    1  LIG1       -0.1030
      2 C           5.8480   -3.4038    1.7111 C.ar    1  LIG1       -0.0949
      3 C           4.3848   -2.2479    3.2474 C.ar    1  LIG1       -0.0955
      4 C           5.6622   -2.3900    0.7714 C.ar    1  LIG1       -0.0621
      5 C           4.1990   -1.2340    2.3077 C.ar    1  LIG1       -0.0630
      6 C           4.3584    1.6551   -1.7215 C.ar    1  LIG1        0.0666
      7 C           4.8377   -1.3050    1.0696 C.ar    1  LIG1        0.0111
      8 C           5.5477    0.9357   -1.6694 C.ar    1  LIG1       -0.0115
      9 C           3.3798    1.3203   -0.8021 C.ar    1  LIG1        0.0445
     10 C           3.7858    2.6990   -2.4719 C.ar    1  LIG1        0.0198
     11 C           4.6457   -0.2576    0.0980 C.ar    1  LIG1        0.0550
     12 C           6.7040    1.1643   -2.5814 C.3     1  LIG1        0.0111
     13 N           5.6880   -0.0385   -0.7387 N.ar    1  LIG1       -0.3516
     14 N           3.4508    0.3701    0.1434 N.ar    1  LIG1       -0.3254
     15 N           2.5482    3.0065   -2.0682 N.ar    1  LIG1       -0.3153
     16 N           2.3287    2.1516   -1.0520 N.ar    1  LIG1       -0.2747
     17 N           4.4525    3.3058   -3.4888 N.pl3   1  LIG1       -0.3711
     18 H           5.3529   -4.1231    3.6801 H       1  LIG1        0.1222
     19 H           6.4886   -4.2493    1.4781 H       1  LIG1        0.1192
     20 H           3.8862   -2.1926    4.2107 H       1  LIG1        0.1185
     21 H           6.1667   -2.4600   -0.1895 H       1  LIG1        0.1445
     22 H           3.5530   -0.3948    2.5541 H       1  LIG1        0.1420
     23 H           7.3871    1.9093   -2.1545 H       1  LIG1        0.0918
     24 H           7.2659    0.2368   -2.7542 H       1  LIG1        0.0792
     25 H           6.3720    1.5213   -3.5655 H       1  LIG1        0.0908
     26 H           1.4386    2.1933   -0.5717 H       1  LIG1        0.3924
     27 H           5.4208    3.0592   -3.7218 H       1  LIG1        0.2801
     28 H           4.0487    4.0975   -4.0015 H       1  LIG1        0.2793
@<TRIPOS>BOND
     1     1     2   ar
     2     1     3   ar
     3     2     4   ar
     4     3     5   ar
     5     4     7   ar
     6     5     7   ar
     7     6     8   ar
     8     6     9   ar
     9     6    10   ar
    10     7    11    1
    11     8    12    1
    12     8    13   ar
    13     9    14   ar
    14     9    16   ar
    15    10    15   ar
    16    10    17    1
    17    11    13   ar
    18    11    14   ar
    19    15    16   ar
    20     1    18    1
    21     2    19    1
    22     3    20    1
    23     4    21    1
    24     5    22    1
    25    12    23    1
    26    12    24    1
    27    12    25    1
    28    16    26    1
    29    17    27    1
    30    17    28    1
