@<TRIPOS>MOLECULE
AK-249/12180004
 62 67 0 0 0
SMALL
USER_CHARGES

@<TRIPOS>ATOM
      1 C           5.2053    5.0113   -5.7277 C.ar    1  LIG1       -0.1026
      2 C          -1.2638    2.0838    1.1535 C.ar    1  LIG1       -0.1004
      3 C           4.4956    3.8345   -5.9664 C.ar    1  LIG1       -0.0954
      4 C           5.4181    5.4443   -4.4189 C.ar    1  LIG1       -0.0993
      5 C          -0.5252    0.9118    0.9917 C.ar    1  LIG1       -0.0902
      6 C          -0.8116    3.2767    0.5895 C.ar    1  LIG1       -0.0916
      7 C           5.0638   -3.6158    1.6919 C.ar    1  LIG1       -0.0970
      8 C           3.9986    3.0906   -4.8962 C.ar    1  LIG1       -0.0727
      9 C           4.9210    4.7005   -3.3488 C.ar    1  LIG1       -0.0771
     10 C           4.9797   -2.6252    0.7136 C.ar    1  LIG1       -0.0740
     11 C           0.6658    0.9325    0.2659 C.ar    1  LIG1       -0.0507
     12 C           0.3795    3.2975   -0.1362 C.ar    1  LIG1       -0.0523
     13 C           4.9471   -3.2763    3.0399 C.ar    1  LIG1       -0.0684
     14 C           6.5872    1.3160   -2.7016 C.ar    1  LIG1       -0.0315
     15 C           6.9514   -0.7166   -0.8064 C.ar    1  LIG1       -0.0303
     16 C           4.6626   -0.9557    2.4310 C.ar    1  LIG1       -0.0249
     17 C           5.5628    1.0171   -1.7826 C.ar    1  LIG1       -0.0423
     18 C           5.7405   -0.0061   -0.8253 C.ar    1  LIG1       -0.0091
     19 C           4.3298    1.7109   -1.7714 C.ar    1  LIG1        0.0310
     20 C           4.2112    3.5236   -3.5874 C.ar    1  LIG1       -0.0273
     21 C           4.7793   -1.2951    1.0831 C.ar    1  LIG1       -0.0077
     22 C           1.1182    2.1255   -0.2980 C.ar    1  LIG1        0.0044
     23 C           4.7466   -1.9463    3.4094 C.ar    1  LIG1       -0.0048
     24 C           7.7817    0.5974   -2.6646 C.ar    1  LIG1        0.0472
     25 C           7.9630   -0.4143   -1.7213 C.ar    1  LIG1        0.0459
     26 C           4.6913   -0.2637    0.0655 C.ar    1  LIG1        0.0278
     27 C           3.6976    2.7552   -2.4813 C.ar    1  LIG1        0.0415
     28 C           3.3888    1.3369   -0.8242 C.ar    1  LIG1        0.0602
     29 C           4.4289   -0.2372    5.0323 C.3     1  LIG1        0.0238
     30 C           8.5049    1.9403   -4.4893 C.3     1  LIG1        0.0294
     31 C           9.1949   -2.3018   -2.4800 C.3     1  LIG1        0.0263
     32 N           3.4975    0.3766    0.1090 N.ar    1  LIG1       -0.3298
     33 N           2.4683    3.0225   -2.0298 N.ar    1  LIG1       -0.2826
     34 N           2.3088    2.1454   -1.0235 N.ar    1  LIG1       -0.2478
     35 O           4.6327   -1.6155    4.7247 O.3     1  LIG1       -0.4169
     36 O           8.7675    0.8932   -3.5577 O.3     1  LIG1       -0.3992
     37 O           9.1283   -1.1208   -1.6840 O.3     1  LIG1       -0.4053
     38 H           5.5933    5.5901   -6.5609 H       1  LIG1        0.1223
     39 H          -2.1920    2.0678    1.7170 H       1  LIG1        0.1206
     40 H           4.3309    3.4965   -6.9853 H       1  LIG1        0.1229
     41 H           5.9717    6.3600   -4.2334 H       1  LIG1        0.1208
     42 H          -0.8778   -0.0174    1.4296 H       1  LIG1        0.1281
     43 H          -1.3880    4.1887    0.7147 H       1  LIG1        0.1265
     44 H           5.2202   -4.6512    1.4042 H       1  LIG1        0.1300
     45 H           3.4473    2.1753   -5.0985 H       1  LIG1        0.1324
     46 H           5.0954    5.0515   -2.3343 H       1  LIG1        0.1286
     47 H           5.0726   -2.9056   -0.3330 H       1  LIG1        0.1243
     48 H           1.2315    0.0117    0.1467 H       1  LIG1        0.1385
     49 H           0.7201    4.2340   -0.5712 H       1  LIG1        0.1358
     50 H           5.0133   -4.0521    3.7979 H       1  LIG1        0.1168
     51 H           6.4725    2.0979   -3.4455 H       1  LIG1        0.1417
     52 H           7.1292   -1.5124   -0.0863 H       1  LIG1        0.1462
     53 H           4.5070    0.0793    2.7286 H       1  LIG1        0.1458
     54 H           4.3552   -0.1119    6.1153 H       1  LIG1        0.0896
     55 H           3.5122    0.1127    4.5510 H       1  LIG1        0.1222
     56 H           5.2778    0.3398    4.6579 H       1  LIG1        0.0895
     57 H           9.3707    2.0736   -5.1424 H       1  LIG1        0.0912
     58 H           8.2970    2.8668   -3.9484 H       1  LIG1        0.1253
     59 H           7.6348    1.6697   -5.0922 H       1  LIG1        0.0911
     60 H          10.1755   -2.7686   -2.3594 H       1  LIG1        0.1239
     61 H           9.0283   -2.0450   -3.5291 H       1  LIG1        0.0896
     62 H           8.4197   -2.9973   -2.1495 H       1  LIG1        0.0900
@<TRIPOS>BOND
     1     1     3   ar
     2     1     4   ar
     3     2     5   ar
     4     2     6   ar
     5     3     8   ar
     6     4     9   ar
     7     5    11   ar
     8     6    12   ar
     9     7    10   ar
    10     7    13   ar
    11     8    20   ar
    12     9    20   ar
    13    10    21   ar
    14    11    22   ar
    15    12    22   ar
    16    13    23   ar
    17    14    17   ar
    18    14    24   ar
    19    15    18   ar
    20    15    25   ar
    21    16    21   ar
    22    16    23   ar
    23    17    18   ar
    24    17    19   ar
    25    18    26   ar
    26    19    27   ar
    27    19    28   ar
    28    20    27    1
    29    21    26    1
    30    22    34    1
    31    23    35    1
    32    24    25   ar
    33    24    36    1
    34    25    37    1
    35    26    32   ar
    36    27    33   ar
    37    28    32   ar
    38    28    34   ar
    39    29    35    1
    40    30    36    1
    41    31    37    1
    42    33    34   ar
    43     1    38    1
    44     2    39    1
    45     3    40    1
    46     4    41    1
    47     5    42    1
    48     6    43    1
    49     7    44    1
    50     8    45    1
    51     9    46    1
    52    10    47    1
    53    11    48    1
    54    12    49    1
    55    13    50    1
    56    14    51    1
    57    15    52    1
    58    16    53    1
    59    29    54    1
    60    29    55    1
    61    29    56    1
    62    30    57    1
    63    30    58    1
    64    30    59    1
    65    31    60    1
    66    31    61    1
    67    31    62    1
