@<TRIPOS>MOLECULE
AG-690/40146962
 38 41 0 0 0
SMALL
USER_CHARGES

@<TRIPOS>ATOM
      1 C          -1.3795    2.4231    0.8702 C.ar    1  LIG1       -0.1025
      2 C           7.0042    0.3747   -1.9659 C.ar    1  LIG1       -0.0898
      3 C          -1.0301    1.1946    0.3095 C.ar    1  LIG1       -0.0952
      4 C          -0.4661    3.4774    0.8643 C.ar    1  LIG1       -0.0955
      5 C           6.5777   -0.4084   -0.8990 C.ar    1  LIG1       -0.0784
      6 C           6.1585    1.3519   -2.4812 C.ar    1  LIG1       -0.0765
      7 C           0.2327    1.0203   -0.2568 C.ar    1  LIG1       -0.0651
      8 C           0.7967    3.3031    0.2980 C.ar    1  LIG1       -0.0656
      9 C           3.9685    3.0177   -4.7997 C.ar    1  LIG1       -0.0424
     10 C           4.8855    4.6284   -3.2498 C.ar    1  LIG1       -0.0471
     11 C           5.3072   -0.2128   -0.3497 C.ar    1  LIG1       -0.0437
     12 C           4.2529    3.8771   -5.8610 C.ar    1  LIG1       -0.0329
     13 C           5.1699    5.4877   -4.3111 C.ar    1  LIG1       -0.0364
     14 C           4.8823    1.5426   -1.9234 C.ar    1  LIG1        0.0001
     15 C           4.2847    3.3935   -3.4941 C.ar    1  LIG1       -0.0047
     16 C           1.1460    2.0745   -0.2626 C.ar    1  LIG1        0.0041
     17 C           4.4403    0.7581   -0.8457 C.ar    1  LIG1       -0.0072
     18 C           4.8537    5.1120   -5.6167 C.ar    1  LIG1        0.0710
     19 C           3.9887    2.5017   -2.3914 C.ar    1  LIG1        0.0235
     20 C           2.4492    1.8944   -0.8474 C.ar    1  LIG1        0.0535
     21 N           3.2219    0.9319   -0.3043 N.ar    1  LIG1       -0.3467
     22 N           2.7623    2.7022   -1.8733 N.ar    1  LIG1       -0.3320
     23 N           5.1449    5.9852   -6.6978 N.pl3   1  LIG1       -0.0470
     24 O           4.8537    5.6264   -7.8645 O.2     1  LIG1       -0.1543
     25 O           5.6853    7.0917   -6.4572 O.2     1  LIG1       -0.2454
     26 H          -2.3633    2.5590    1.3095 H       1  LIG1        0.1229
     27 H           7.9907    0.2243   -2.3938 H       1  LIG1        0.1308
     28 H          -1.7417    0.3741    0.3125 H       1  LIG1        0.1198
     29 H          -0.7380    4.4347    1.2995 H       1  LIG1        0.1195
     30 H           7.2317   -1.1735   -0.4909 H       1  LIG1        0.1408
     31 H           6.5139    1.9514   -3.3153 H       1  LIG1        0.1357
     32 H           0.4899    0.0566   -0.6902 H       1  LIG1        0.1417
     33 H           1.4978    4.1342    0.3002 H       1  LIG1        0.1408
     34 H           3.5002    2.0583   -5.0065 H       1  LIG1        0.1603
     35 H           5.1382    4.9354   -2.2377 H       1  LIG1        0.1544
     36 H           4.9976   -0.8388    0.4850 H       1  LIG1        0.1515
     37 H           4.0007    3.5722   -6.8737 H       1  LIG1        0.1696
     38 H           5.6379    6.4476   -4.1072 H       1  LIG1        0.1689
@<TRIPOS>BOND
     1     1     3   ar
     2     1     4   ar
     3     2     5   ar
     4     2     6   ar
     5     3     7   ar
     6     4     8   ar
     7     5    11   ar
     8     6    14   ar
     9     7    16   ar
    10     8    16   ar
    11     9    12   ar
    12     9    15   ar
    13    10    13   ar
    14    10    15   ar
    15    11    17   ar
    16    12    18   ar
    17    13    18   ar
    18    14    17   ar
    19    14    19   ar
    20    15    19    1
    21    16    20    1
    22    17    21   ar
    23    18    23    1
    24    19    22   ar
    25    20    21   ar
    26    20    22   ar
    27    23    24    1
    28    23    25    2
    29     1    26    1
    30     2    27    1
    31     3    28    1
    32     4    29    1
    33     5    30    1
    34     6    31    1
    35     7    32    1
    36     8    33    1
    37     9    34    1
    38    10    35    1
    39    11    36    1
    40    12    37    1
    41    13    38    1
