@<TRIPOS>MOLECULE
AO-476/43421024
 43 45 0 0 0
SMALL
USER_CHARGES

@<TRIPOS>ATOM
      1 C           5.3330   -3.2290    2.7725 C.ar    1  LIG1       -0.0962
      2 C           5.3451   -3.4859    1.4016 C.ar    1  LIG1       -0.0893
      3 C           5.0462   -1.9461    3.2392 C.ar    1  LIG1       -0.0869
      4 C           5.0707   -2.4600    0.4973 C.ar    1  LIG1       -0.0549
      5 C           4.7717   -0.9202    2.3348 C.ar    1  LIG1       -0.0512
      6 C           4.6450    1.2998   -1.5302 C.ar    1  LIG1        0.0144
      7 C           3.3672    1.3908   -0.8680 C.ar    1  LIG1        0.0861
      8 C           4.7839   -1.1771    0.9639 C.ar    1  LIG1       -0.0018
      9 C           5.0767    2.0775   -2.5941 C.ar    1  LIG1       -0.0057
     10 C           5.3500    0.3064   -0.9150 C.ar    1  LIG1       -0.0140
     11 C           2.4219    2.3363   -1.2912 C.ar    1  LIG1        0.0951
     12 C           6.3748    2.0314   -3.3120 C.3     1  LIG1       -0.0014
     13 C           6.7008   -0.2489   -1.1380 C.3     1  LIG1        0.0032
     14 C          -0.1216    0.9845    0.7170 C.3     1  LIG1       -0.0456
     15 C           1.6797    4.0825    1.0552 C.3     1  LIG1       -0.0463
     16 C           0.2141    1.3811   -0.6804 C.3     1  LIG1       -0.0226
     17 C           0.7741    3.7419   -0.0791 C.3     1  LIG1       -0.0226
     18 N           3.3162    0.4748    0.1142 N.ar    1  LIG1       -0.2921
     19 N           4.1397    2.9837   -2.9810 N.ar    1  LIG1       -0.2979
     20 N           2.8323    3.1086   -2.3368 N.ar    1  LIG1       -0.2598
     21 N           4.5092   -0.1511    0.0582 N.ar    1  LIG1       -0.2782
     22 N           1.1603    2.4849   -0.6995 N.pl3   1  LIG1       -0.3666
     23 H           5.5448   -4.0278    3.4771 H       1  LIG1        0.1271
     24 H           5.5670   -4.4849    1.0382 H       1  LIG1        0.1317
     25 H           5.0354   -1.7471    4.3070 H       1  LIG1        0.1310
     26 H           5.0826   -2.6740   -0.5687 H       1  LIG1        0.1357
     27 H           4.5490    0.0750    2.7121 H       1  LIG1        0.1407
     28 H           6.3261    1.3330   -4.1597 H       1  LIG1        0.0770
     29 H           6.6592    3.0210   -3.7001 H       1  LIG1        0.0788
     30 H           7.1931    1.7094   -2.6502 H       1  LIG1        0.0726
     31 H           7.4535    0.2878   -0.5383 H       1  LIG1        0.0878
     32 H           6.7569   -1.3173   -0.8701 H       1  LIG1        0.0793
     33 H           7.0044   -0.1827   -2.1963 H       1  LIG1        0.0917
     34 H           0.7746    0.6609    1.2573 H       1  LIG1        0.0349
     35 H          -0.5885    1.8154    1.2571 H       1  LIG1        0.0411
     36 H          -0.8299    0.1474    0.7055 H       1  LIG1        0.0464
     37 H           1.6454    3.3077    1.8288 H       1  LIG1        0.0387
     38 H           2.7120    4.2010    0.7084 H       1  LIG1        0.0365
     39 H           1.3647    5.0290    1.5106 H       1  LIG1        0.0463
     40 H          -0.6853    1.7031   -1.2141 H       1  LIG1        0.1042
     41 H           0.6657    0.5455   -1.2231 H       1  LIG1        0.1144
     42 H           0.8131    4.5195   -0.8478 H       1  LIG1        0.1120
     43 H          -0.2588    3.6394    0.2664 H       1  LIG1        0.1063
@<TRIPOS>BOND
     1     1     2   ar
     2     1     3   ar
     3     2     4   ar
     4     3     5   ar
     5     4     8   ar
     6     5     8   ar
     7     6     7   ar
     8     6     9   ar
     9     6    10   ar
    10     7    11   ar
    11     7    18   ar
    12     8    21    1
    13     9    12    1
    14     9    19   ar
    15    10    13    1
    16    10    21   ar
    17    11    20   ar
    18    11    22    1
    19    14    16    1
    20    15    17    1
    21    16    22    1
    22    17    22    1
    23    18    21   ar
    24    19    20   ar
    25     1    23    1
    26     2    24    1
    27     3    25    1
    28     4    26    1
    29     5    27    1
    30    12    28    1
    31    12    29    1
    32    12    30    1
    33    13    31    1
    34    13    32    1
    35    13    33    1
    36    14    34    1
    37    14    35    1
    38    14    36    1
    39    15    37    1
    40    15    38    1
    41    15    39    1
    42    16    40    1
    43    16    41    1
    44    17    42    1
    45    17    43    1
