@<TRIPOS>MOLECULE
AO-476/42008142
 54 58 0 0 0
SMALL
USER_CHARGES

@<TRIPOS>ATOM
      1 C           6.3185    1.3074   -2.5779 C.1     1  LIG1        0.0818
      2 C          -0.5220    1.0294    1.3063 C.ar    1  LIG1       -0.0960
      3 C          -1.2774    2.1774    1.0874 C.ar    1  LIG1       -0.1013
      4 C           0.7281    0.8843    0.6998 C.ar    1  LIG1       -0.0718
      5 C           4.2417    2.9373   -4.8749 C.ar    1  LIG1       -0.0748
      6 C           5.2123    4.5247   -3.3337 C.ar    1  LIG1       -0.0840
      7 C          -0.7869    3.1837    0.2591 C.ar    1  LIG1       -0.0951
      8 C           4.0854   -1.4856    2.2072 C.ar    1  LIG1       -0.0829
      9 C           6.2084   -2.5268    1.7112 C.ar    1  LIG1       -0.0829
     10 C           4.6158    3.7486   -5.9461 C.ar    1  LIG1       -0.0520
     11 C           5.5864    5.3360   -4.4048 C.ar    1  LIG1       -0.0649
     12 C           3.6743   -2.6405    2.8725 C.ar    1  LIG1       -0.0704
     13 C           5.7973   -3.6818    2.3766 C.ar    1  LIG1       -0.0704
     14 C           5.0235    1.5011   -1.9937 C.ar    1  LIG1        0.1507
     15 C           4.5399    3.3254   -3.5687 C.ar    1  LIG1       -0.0547
     16 C           1.2433    1.8841   -0.1423 C.ar    1  LIG1       -0.0242
     17 C           4.1497    2.4788   -2.4507 C.ar    1  LIG1       -0.0025
     18 C           0.4600    3.0399   -0.3654 C.ar    1  LIG1       -0.0837
     19 C           2.9017    2.6325   -1.8448 C.ar    1  LIG1       -0.0287
     20 C           5.3525   -1.4287    1.6265 C.ar    1  LIG1       -0.0648
     21 C           5.2881    4.9479   -5.7111 C.ar    1  LIG1       -0.0112
     22 C           4.5303   -3.7386    2.9573 C.ar    1  LIG1       -0.0152
     23 C           2.5579    1.7675   -0.7979 C.ar    1  LIG1        0.0031
     24 C           4.6057    0.6993   -0.9470 C.ar    1  LIG1        0.1240
     25 C           1.0089    4.1612   -1.2174 C.3     1  LIG1       -0.0283
     26 C           1.9072    3.6443   -2.3451 C.3     1  LIG1       -0.0209
     27 C           6.3381    6.9516   -6.4450 C.3     1  LIG1        0.0247
     28 C           5.7956   -0.1859    0.9120 C.3     1  LIG1        0.0622
     29 N           7.3667    1.1507   -3.0506 N.1     1  LIG1       -0.3656
     30 N           3.4004    0.8067   -0.3434 N.ar    1  LIG1       -0.3363
     31 O           5.6535    5.7390   -6.7565 O.3     1  LIG1       -0.4160
     32 O           5.4292   -0.2826   -0.4586 O.3     1  LIG1       -0.3478
     33 CL          4.0230   -5.1632    3.7782 Cl      1  LIG1       -0.1412
     34 H          -0.9037    0.2443    1.9527 H       1  LIG1        0.1185
     35 H          -2.2461    2.2905    1.5650 H       1  LIG1        0.1227
     36 H           1.2898   -0.0265    0.8948 H       1  LIG1        0.1392
     37 H           3.7182    2.0054   -5.0741 H       1  LIG1        0.1394
     38 H           5.4520    4.8410   -2.3213 H       1  LIG1        0.1371
     39 H          -1.3795    4.0818    0.1054 H       1  LIG1        0.1217
     40 H           3.4126   -0.6342    2.1452 H       1  LIG1        0.1355
     41 H           7.1972   -2.4904    1.2617 H       1  LIG1        0.1356
     42 H           4.3808    3.4410   -6.9614 H       1  LIG1        0.1332
     43 H           6.1101    6.2691   -4.2158 H       1  LIG1        0.1167
     44 H           2.6844   -2.6702    3.3204 H       1  LIG1        0.1339
     45 H           6.4750   -4.5297    2.4346 H       1  LIG1        0.1340
     46 H           0.1916    4.7459   -1.6560 H       1  LIG1        0.0739
     47 H           1.5802    4.8322   -0.5628 H       1  LIG1        0.0771
     48 H           2.3958    4.5123   -2.8007 H       1  LIG1        0.0788
     49 H           1.2936    3.1647   -3.1187 H       1  LIG1        0.0751
     50 H           6.5713    7.4868   -7.3688 H       1  LIG1        0.0904
     51 H           7.2584    6.7224   -5.9020 H       1  LIG1        0.1227
     52 H           5.6934    7.5732   -5.8192 H       1  LIG1        0.0899
     53 H           5.3260    0.7037    1.3454 H       1  LIG1        0.1326
     54 H           6.8816   -0.0627    0.9857 H       1  LIG1        0.1329
@<TRIPOS>BOND
     1     1    14    1
     2     1    29    3
     3     2     3   ar
     4     2     4   ar
     5     3     7   ar
     6     4    16   ar
     7     5    10   ar
     8     5    15   ar
     9     6    11   ar
    10     6    15   ar
    11     7    18   ar
    12     8    12   ar
    13     8    20   ar
    14     9    13   ar
    15     9    20   ar
    16    10    21   ar
    17    11    21   ar
    18    12    22   ar
    19    13    22   ar
    20    14    17   ar
    21    14    24   ar
    22    15    17    1
    23    16    18   ar
    24    16    23    1
    25    17    19   ar
    26    18    25    1
    27    19    23   ar
    28    19    26    1
    29    20    28    1
    30    21    31    1
    31    22    33    1
    32    23    30   ar
    33    24    30   ar
    34    24    32    1
    35    25    26    1
    36    27    31    1
    37    28    32    1
    38     2    34    1
    39     3    35    1
    40     4    36    1
    41     5    37    1
    42     6    38    1
    43     7    39    1
    44     8    40    1
    45     9    41    1
    46    10    42    1
    47    11    43    1
    48    12    44    1
    49    13    45    1
    50    25    46    1
    51    25    47    1
    52    26    48    1
    53    26    49    1
    54    27    50    1
    55    27    51    1
    56    27    52    1
    57    28    53    1
    58    28    54    1
