@<TRIPOS>MOLECULE
AK-968/37129435
 51 54 0 0 0
SMALL
USER_CHARGES

@<TRIPOS>ATOM
      1 C           0.2104    2.8555    1.2849 C.ar    1  LIG1       -0.0881
      2 C          -0.7631    1.3614   -0.3451 C.ar    1  LIG1       -0.0949
      3 C           4.6155    3.6117   -5.7898 C.ar    1  LIG1       -0.0858
      4 C           5.5148    5.2077   -4.2146 C.ar    1  LIG1       -0.0860
      5 C           1.2558    3.1347    0.4047 C.ar    1  LIG1       -0.0611
      6 C           0.2823    1.6404   -1.2254 C.ar    1  LIG1       -0.0710
      7 C           4.4121    2.7022   -4.7521 C.ar    1  LIG1       -0.0576
      8 C           5.3113    4.2982   -3.1769 C.ar    1  LIG1       -0.0578
      9 C           5.7520   -2.6607    1.1436 C.ar    1  LIG1       -0.0342
     10 C          -0.7991    1.9688    0.9100 C.ar    1  LIG1       -0.1103
     11 C           5.1670    4.8645   -5.5211 C.ar    1  LIG1       -0.1071
     12 C           1.2918    2.5271   -0.8504 C.ar    1  LIG1       -0.0284
     13 C           4.7598    3.0454   -3.4456 C.ar    1  LIG1       -0.0102
     14 C           5.0287   -3.0309    2.3025 C.ar    1  LIG1        0.0165
     15 C           5.3382   -1.3881    0.8254 C.ar    1  LIG1        0.0542
     16 C           4.2246   -1.9581    2.6099 C.ar    1  LIG1        0.1124
     17 C           5.0469    0.3619   -0.8685 C.2     1  LIG1        0.1122
     18 C           5.5381    1.1853   -2.0045 C.2     1  LIG1        0.1721
     19 C           3.3720    2.0425   -1.6468 C.2     1  LIG1        0.1184
     20 C           5.7827   -0.5776   -0.2717 C.2     1  LIG1        0.0169
     21 C          -1.6091    0.4805    2.7580 C.3     1  LIG1       -0.0633
     22 C           6.7634    5.6902   -7.2693 C.3     1  LIG1       -0.0627
     23 C          -1.9165    1.6695    1.8512 C.3     1  LIG1       -0.0483
     24 C           5.3846    5.8369   -6.6307 C.3     1  LIG1       -0.0465
     25 N           2.3393    2.8083   -1.7332 N.2     1  LIG1       -0.3288
     26 N           4.5499    2.1083   -2.3757 N.am    1  LIG1       -0.2230
     27 O           6.6313    0.9846   -2.5190 O.2     1  LIG1       -0.4320
     28 O           4.4073   -0.9525    1.7143 O.2     1  LIG1       -0.3349
     29 S           3.4359    0.7701   -0.4541 S.3     1  LIG1       -0.0188
     30 BR          5.2070   -4.6799    3.1671 Br      1  LIG1       -0.0714
     31 BR          3.0104   -1.8405    4.0663 Br      1  LIG1        0.0316
     32 H           0.1902    3.3330    2.2610 H       1  LIG1        0.1275
     33 H          -1.5446    0.6684   -0.6451 H       1  LIG1        0.1252
     34 H           4.3437    3.3350   -6.8051 H       1  LIG1        0.1278
     35 H           5.9457    6.1814   -3.9963 H       1  LIG1        0.1276
     36 H           2.0386    3.8263    0.7057 H       1  LIG1        0.1383
     37 H           0.3020    1.1625   -2.2011 H       1  LIG1        0.1237
     38 H           3.9812    1.7288   -4.9729 H       1  LIG1        0.1346
     39 H           5.5869    4.5756   -2.1624 H       1  LIG1        0.1341
     40 H           6.4842   -3.2494    0.6072 H       1  LIG1        0.1684
     41 H           6.8037   -0.7209   -0.6262 H       1  LIG1        0.2218
     42 H          -1.3824   -0.4146    2.1689 H       1  LIG1        0.0338
     43 H          -2.4639    0.2541    3.4032 H       1  LIG1        0.0365
     44 H          -0.7458    0.6884    3.3990 H       1  LIG1        0.0342
     45 H           7.5565    5.8090   -6.5232 H       1  LIG1        0.0345
     46 H           6.9130    6.4465   -8.0462 H       1  LIG1        0.0344
     47 H           6.8800    4.7032   -7.7295 H       1  LIG1        0.0372
     48 H          -2.1395    2.5498    2.4753 H       1  LIG1        0.0611
     49 H          -2.8447    1.4659    1.2931 H       1  LIG1        0.0614
     50 H           4.6132    5.7121   -7.4076 H       1  LIG1        0.0627
     51 H           5.2652    6.8696   -6.2653 H       1  LIG1        0.0626
@<TRIPOS>BOND
     1     1     5   ar
     2     1    10   ar
     3     2     6   ar
     4     2    10   ar
     5     3     7   ar
     6     3    11   ar
     7     4     8   ar
     8     4    11   ar
     9     5    12   ar
    10     6    12   ar
    11     7    13   ar
    12     8    13   ar
    13     9    14   ar
    14     9    15   ar
    15    10    23    1
    16    11    24    1
    17    12    25    1
    18    13    26    1
    19    14    16   ar
    20    14    30    1
    21    15    20    1
    22    15    28   ar
    23    16    28   ar
    24    16    31    1
    25    17    18    1
    26    17    20    2
    27    17    29    1
    28    18    26   am
    29    18    27    2
    30    19    25    2
    31    19    26    1
    32    19    29    1
    33    21    23    1
    34    22    24    1
    35     1    32    1
    36     2    33    1
    37     3    34    1
    38     4    35    1
    39     5    36    1
    40     6    37    1
    41     7    38    1
    42     8    39    1
    43     9    40    1
    44    20    41    1
    45    21    42    1
    46    21    43    1
    47    21    44    1
    48    22    45    1
    49    22    46    1
    50    22    47    1
    51    23    48    1
    52    23    49    1
    53    24    50    1
    54    24    51    1
