@<TRIPOS>MOLECULE
AO-476/43421047
 43 45 0 0 0
SMALL
USER_CHARGES

@<TRIPOS>ATOM
      1 C           5.3449   -3.4862    1.4027 C.ar    1  LIG1       -0.0881
      2 C           5.0459   -1.9449    3.2390 C.ar    1  LIG1       -0.0857
      3 C           5.0706   -2.4610    0.4975 C.ar    1  LIG1       -0.0538
      4 C           4.7718   -0.9197    2.3338 C.ar    1  LIG1       -0.0502
      5 C           4.6448    1.2998   -1.5304 C.ar    1  LIG1        0.0143
      6 C           5.3324   -3.2282    2.7734 C.ar    1  LIG1       -0.1090
      7 C           3.3673    1.3909   -0.8678 C.ar    1  LIG1        0.0848
      8 C           4.7841   -1.1777    0.9630 C.ar    1  LIG1       -0.0016
      9 C           5.0763    2.0776   -2.5943 C.ar    1  LIG1       -0.0055
     10 C           5.3499    0.3061   -0.9157 C.ar    1  LIG1       -0.0139
     11 C           2.4220    2.3366   -1.2904 C.ar    1  LIG1        0.0935
     12 C           5.6257   -4.3243    3.7413 C.3     1  LIG1       -0.0399
     13 C           6.3742    2.0315   -3.3126 C.3     1  LIG1       -0.0012
     14 C           6.7005   -0.2494   -1.1393 C.3     1  LIG1        0.0034
     15 C           0.2439    1.5585    1.3516 C.3     1  LIG1       -0.0457
     16 C           0.4981    3.7794   -0.6760 C.3     1  LIG1       -0.0179
     17 C           0.4794    1.3458   -0.1050 C.3     1  LIG1       -0.0235
     18 N           3.3164    0.4746    0.1143 N.ar    1  LIG1       -0.2934
     19 N           4.1393    2.9841   -2.9807 N.ar    1  LIG1       -0.2977
     20 N           2.8322    3.1092   -2.3359 N.ar    1  LIG1       -0.2600
     21 N           4.5093   -0.1515    0.0577 N.ar    1  LIG1       -0.2789
     22 N           1.1607    2.4853   -0.6983 N.pl3   1  LIG1       -0.3675
     23 H           5.5671   -4.4833    1.0318 H       1  LIG1        0.1323
     24 H           5.0339   -1.7347    4.3052 H       1  LIG1        0.1316
     25 H           5.0827   -2.6758   -0.5685 H       1  LIG1        0.1373
     26 H           4.5499    0.0757    2.7109 H       1  LIG1        0.1421
     27 H           6.7009   -4.3688    3.9538 H       1  LIG1        0.0606
     28 H           5.0900   -4.1742    4.6876 H       1  LIG1        0.0568
     29 H           5.3081   -5.2988    3.3478 H       1  LIG1        0.0569
     30 H           6.3251    1.3333   -4.1605 H       1  LIG1        0.0773
     31 H           6.6586    3.0211   -3.7006 H       1  LIG1        0.0790
     32 H           7.1927    1.7092   -2.6512 H       1  LIG1        0.0728
     33 H           7.4535    0.2870   -0.5398 H       1  LIG1        0.0878
     34 H           6.7565   -1.3179   -0.8717 H       1  LIG1        0.0794
     35 H           7.0038   -0.1830   -2.1977 H       1  LIG1        0.0918
     36 H           1.1912    1.6919    1.8852 H       1  LIG1        0.0350
     37 H          -0.3919    2.4346    1.5203 H       1  LIG1        0.0410
     38 H          -0.2636    0.6846    1.7773 H       1  LIG1        0.0467
     39 H          -0.4700    3.6972   -0.1751 H       1  LIG1        0.0855
     40 H           0.3372    4.1392   -1.6959 H       1  LIG1        0.1051
     41 H           1.1112    4.5087   -0.1397 H       1  LIG1        0.0997
     42 H          -0.4704    1.2134   -0.6318 H       1  LIG1        0.1046
     43 H           1.1014    0.4615   -0.2724 H       1  LIG1        0.1145
@<TRIPOS>BOND
     1     1     3   ar
     2     1     6   ar
     3     2     4   ar
     4     2     6   ar
     5     3     8   ar
     6     4     8   ar
     7     5     7   ar
     8     5     9   ar
     9     5    10   ar
    10     6    12    1
    11     7    11   ar
    12     7    18   ar
    13     8    21    1
    14     9    13    1
    15     9    19   ar
    16    10    14    1
    17    10    21   ar
    18    11    20   ar
    19    11    22    1
    20    15    17    1
    21    16    22    1
    22    17    22    1
    23    18    21   ar
    24    19    20   ar
    25     1    23    1
    26     2    24    1
    27     3    25    1
    28     4    26    1
    29    12    27    1
    30    12    28    1
    31    12    29    1
    32    13    30    1
    33    13    31    1
    34    13    32    1
    35    14    33    1
    36    14    34    1
    37    14    35    1
    38    15    36    1
    39    15    37    1
    40    15    38    1
    41    16    39    1
    42    16    40    1
    43    16    41    1
    44    17    42    1
    45    17    43    1
