@<TRIPOS>MOLECULE
AE-842/32998057
 41 44 0 0 0
SMALL
USER_CHARGES

@<TRIPOS>ATOM
      1 C          -1.1738    2.0136    1.0436 C.ar    1  LIG1       -0.1045
      2 C          -0.4891    0.8499    0.6936 C.ar    1  LIG1       -0.0983
      3 C          -0.6417    3.2610    0.7167 C.ar    1  LIG1       -0.0996
      4 C           0.7277    0.9335    0.0169 C.ar    1  LIG1       -0.0763
      5 C           0.5751    3.3445    0.0400 C.ar    1  LIG1       -0.0784
      6 C           5.3133    4.5760   -3.4884 C.ar    1  LIG1       -0.0468
      7 C           3.8193    3.3055   -4.8994 C.ar    1  LIG1       -0.0445
      8 C           5.6955    5.3463   -4.5866 C.ar    1  LIG1       -0.0648
      9 C           4.2016    4.0758   -5.9977 C.ar    1  LIG1       -0.0635
     10 C           1.2598    2.1808   -0.3100 C.ar    1  LIG1       -0.0371
     11 C           4.3753    3.5556   -3.6448 C.ar    1  LIG1       -0.0211
     12 C           5.1397    5.0963   -5.8412 C.ar    1  LIG1       -0.0165
     13 C           2.5530    2.2695   -1.0292 C.2     1  LIG1        0.0076
     14 C           5.1771   -0.4447   -0.8166 C.3     1  LIG1       -0.0675
     15 C           5.8972    0.2064   -1.9837 C.3     1  LIG1       -0.0645
     16 C           3.8072    0.1818   -0.6316 C.3     1  LIG1       -0.0488
     17 C           6.1113    1.6876   -1.7108 C.3     1  LIG1       -0.0413
     18 C           3.8442    1.7087   -0.4712 C.3     1  LIG1        0.0122
     19 C           4.8322    2.4630   -1.3842 C.3     1  LIG1       -0.0073
     20 N           2.6654    2.7910   -2.2127 N.2     1  LIG1       -0.3275
     21 N           3.9945    2.7834   -2.5449 N.pl3   1  LIG1       -0.3342
     22 CL          5.6115    6.0468   -7.1959 Cl      1  LIG1       -0.1495
     23 H          -2.1212    1.9486    1.5705 H       1  LIG1        0.1186
     24 H          -0.9035   -0.1212    0.9484 H       1  LIG1        0.1189
     25 H          -1.1750    4.1671    0.9890 H       1  LIG1        0.1191
     26 H           1.2529    0.0203   -0.2511 H       1  LIG1        0.1323
     27 H           0.9803    4.3218   -0.2095 H       1  LIG1        0.1288
     28 H           5.7532    4.7783   -2.5153 H       1  LIG1        0.1341
     29 H           3.0887    2.5117   -5.0326 H       1  LIG1        0.1378
     30 H           6.4290    6.1370   -4.4499 H       1  LIG1        0.1391
     31 H           3.7611    3.8680   -6.9696 H       1  LIG1        0.1386
     32 H           5.0794   -1.5223   -0.9873 H       1  LIG1        0.0474
     33 H           5.7655   -0.3150    0.0976 H       1  LIG1        0.0454
     34 H           6.8624   -0.2848   -2.1578 H       1  LIG1        0.0422
     35 H           5.3050    0.0845   -2.8983 H       1  LIG1        0.0475
     36 H           3.1617   -0.0970   -1.4672 H       1  LIG1        0.0491
     37 H           3.3529   -0.2392    0.2710 H       1  LIG1        0.0547
     38 H           6.8319    1.8035   -0.8839 H       1  LIG1        0.0594
     39 H           6.6163    2.1235   -2.5914 H       1  LIG1        0.0624
     40 H           3.8895    1.9741    0.5315 H       1  LIG1        0.1016
     41 H           5.1215    3.4190   -0.8415 H       1  LIG1        0.0950
@<TRIPOS>BOND
     1     1     2   ar
     2     1     3   ar
     3     2     4   ar
     4     3     5   ar
     5     4    10   ar
     6     5    10   ar
     7     6     8   ar
     8     6    11   ar
     9     7     9   ar
    10     7    11   ar
    11     8    12   ar
    12     9    12   ar
    13    10    13    1
    14    11    21    1
    15    12    22    1
    16    13    18    1
    17    13    20    2
    18    14    15    1
    19    14    16    1
    20    15    17    1
    21    16    18    1
    22    17    19    1
    23    18    19    1
    24    19    21    1
    25    20    21    1
    26     1    23    1
    27     2    24    1
    28     3    25    1
    29     4    26    1
    30     5    27    1
    31     6    28    1
    32     7    29    1
    33     8    30    1
    34     9    31    1
    35    14    32    1
    36    14    33    1
    37    15    34    1
    38    15    35    1
    39    16    36    1
    40    16    37    1
    41    17    38    1
    42    17    39    1
    43    18    40    1
    44    19    41    1
