@<TRIPOS>MOLECULE
AG-690/11481219
 32 34 0 0 0
SMALL
USER_CHARGES

@<TRIPOS>ATOM
      1 C           6.2268    1.2272   -2.3940 C.1     1  LIG1        0.0815
      2 C          -1.3412    2.1710    1.1104 C.ar    1  LIG1       -0.1018
      3 C          -0.4582    3.2506    1.0959 C.ar    1  LIG1       -0.0952
      4 C          -0.9747    0.9621    0.5186 C.ar    1  LIG1       -0.0985
      5 C           0.7914    3.1215    0.4896 C.ar    1  LIG1       -0.0739
      6 C           0.2749    0.8330   -0.0877 C.ar    1  LIG1       -0.0796
      7 C           5.1172    4.4624   -3.2144 C.ar    1  LIG1       -0.0736
      8 C           4.1991    2.8520   -4.7638 C.ar    1  LIG1       -0.0751
      9 C           5.4944    5.2756   -4.2830 C.ar    1  LIG1       -0.0730
     10 C           4.5763    3.6652   -5.8325 C.ar    1  LIG1       -0.0733
     11 C           2.8173    2.5916   -1.7905 C.ar    1  LIG1       -0.0130
     12 C           4.9231    1.4303   -1.8310 C.ar    1  LIG1        0.1239
     13 C           4.4696    3.2506   -3.4547 C.ar    1  LIG1       -0.0519
     14 C           1.1580    1.9127   -0.1021 C.ar    1  LIG1       -0.0313
     15 C           4.0785    2.4073   -2.3462 C.ar    1  LIG1       -0.0017
     16 C           5.2238    4.8771   -5.5920 C.ar    1  LIG1       -0.0352
     17 C           2.4512    1.7794   -0.7293 C.ar    1  LIG1        0.0054
     18 C           4.4629    0.6703   -0.7678 C.ar    1  LIG1        0.0944
     19 N           7.2815    1.0629   -2.8492 N.1     1  LIG1       -0.3503
     20 N           3.2444    0.8201   -0.2017 N.ar    1  LIG1       -0.3425
     21 BR          5.7337    5.9788   -7.0405 Br      1  LIG1       -0.1033
     22 BR          5.5458   -0.6979    0.0132 Br      1  LIG1        0.0122
     23 H          -2.3134    2.2712    1.5840 H       1  LIG1        0.1232
     24 H          -0.7427    4.1912    1.5580 H       1  LIG1        0.1210
     25 H          -1.6612    0.1207    0.5307 H       1  LIG1        0.1208
     26 H           1.4688    3.9722    0.4868 H       1  LIG1        0.1419
     27 H           0.5469   -0.1156   -0.5443 H       1  LIG1        0.1295
     28 H           5.3349    4.7868   -2.1995 H       1  LIG1        0.1417
     29 H           3.6944    1.9106   -4.9674 H       1  LIG1        0.1350
     30 H           5.9975    6.2172   -4.0786 H       1  LIG1        0.1413
     31 H           4.3582    3.3401   -6.8463 H       1  LIG1        0.1407
     32 H           2.1388    3.3481   -2.1750 H       1  LIG1        0.1609
@<TRIPOS>BOND
     1     1    12    1
     2     1    19    3
     3     2     3   ar
     4     2     4   ar
     5     3     5   ar
     6     4     6   ar
     7     5    14   ar
     8     6    14   ar
     9     7     9   ar
    10     7    13   ar
    11     8    10   ar
    12     8    13   ar
    13     9    16   ar
    14    10    16   ar
    15    11    15   ar
    16    11    17   ar
    17    12    15   ar
    18    12    18   ar
    19    13    15    1
    20    14    17    1
    21    16    21    1
    22    17    20   ar
    23    18    20   ar
    24    18    22    1
    25     2    23    1
    26     3    24    1
    27     4    25    1
    28     5    26    1
    29     6    27    1
    30     7    28    1
    31     8    29    1
    32     9    30    1
    33    10    31    1
    34    11    32    1
