@<TRIPOS>MOLECULE
AF-399/15539335
 57 61 0 0 0
SMALL
USER_CHARGES

@<TRIPOS>ATOM
      1 C           6.8116   -1.0222   -0.8110 C.1     1  LIG1        0.0644
      2 C           5.3343    4.9249   -5.7137 C.ar    1  LIG1       -0.1033
      3 C          -1.2662    2.0837    1.1542 C.ar    1  LIG1       -0.0984
      4 C           4.5914    3.7688   -5.9520 C.ar    1  LIG1       -0.0976
      5 C           5.5437    5.3623   -4.4058 C.ar    1  LIG1       -0.0971
      6 C          -0.5448    0.9046    0.9679 C.ar    1  LIG1       -0.0916
      7 C          -0.7952    3.2817    0.6167 C.ar    1  LIG1       -0.0879
      8 C           4.0578    3.0498   -4.8823 C.ar    1  LIG1       -0.0741
      9 C           5.0101    4.6434   -3.3362 C.ar    1  LIG1       -0.0733
     10 C           6.2847    3.0936   -0.6741 C.ar    1  LIG1       -0.0826
     11 C           7.9233    1.9451   -2.0279 C.ar    1  LIG1       -0.0810
     12 C           0.6476    0.9232    0.2443 C.ar    1  LIG1       -0.0554
     13 C           0.3971    3.3004   -0.1068 C.ar    1  LIG1       -0.0495
     14 C           7.2269    4.0749   -0.3661 C.ar    1  LIG1       -0.0493
     15 C           8.8656    2.9264   -1.7200 C.ar    1  LIG1       -0.0486
     16 C           4.2670    3.4872   -3.5744 C.ar    1  LIG1       -0.0265
     17 C           6.6329    2.0286   -1.5050 C.ar    1  LIG1       -0.0735
     18 C           4.3230    1.6935   -1.7594 C.ar    1  LIG1        0.0230
     19 C           1.1185    2.1212   -0.2930 C.ar    1  LIG1        0.0041
     20 C           8.5173    3.9913   -0.8891 C.ar    1  LIG1        0.0584
     21 C           3.7160    2.7452   -2.4699 C.ar    1  LIG1        0.0313
     22 C           3.3775    1.3183   -0.8407 C.ar    1  LIG1        0.1112
     23 C           5.6559   -0.1770   -0.8191 C.2     1  LIG1        0.1187
     24 C           4.6243   -0.4307    0.0358 C.2     1  LIG1        0.1235
     25 C           4.5768   -1.1239    2.1732 C.2     1  LIG1        0.0243
     26 C           5.6240    0.9776   -1.8359 C.3     1  LIG1        0.0485
     27 C           4.7319   -3.3969    3.1430 C.3     1  LIG1       -0.0169
     28 C           4.7437   -1.4083    4.6240 C.3     1  LIG1       -0.0161
     29 N           7.7478   -1.7071   -0.8043 N.1     1  LIG1       -0.3855
     30 N           2.4881    3.0278   -2.0147 N.ar    1  LIG1       -0.2889
     31 N           4.6708   -1.4675    0.9323 N.2     1  LIG1       -0.3263
     32 N           2.3097    2.1390   -1.0158 N.ar    1  LIG1       -0.2414
     33 N           4.5956   -1.9538    3.2821 N.pl3   1  LIG1       -0.3755
     34 O           3.4473    0.3420    0.0561 O.3     1  LIG1       -0.2891
     35 F           9.4214    4.9351   -0.5956 F       1  LIG1       -0.2729
     36 H           5.7509    5.4843   -6.5464 H       1  LIG1        0.1191
     37 H          -2.1955    2.0694    1.7159 H       1  LIG1        0.1236
     38 H           4.4294    3.4274   -6.9701 H       1  LIG1        0.1204
     39 H           6.1232    6.2618   -4.2205 H       1  LIG1        0.1190
     40 H          -0.9120   -0.0285    1.3852 H       1  LIG1        0.1285
     41 H          -1.3583    4.1993    0.7610 H       1  LIG1        0.1306
     42 H           3.4808    2.1504   -5.0844 H       1  LIG1        0.1296
     43 H           5.1822    4.9976   -2.3224 H       1  LIG1        0.1299
     44 H           5.2820    3.1668   -0.2613 H       1  LIG1        0.1268
     45 H           8.2036    1.1191   -2.6764 H       1  LIG1        0.1346
     46 H           1.1997   -0.0031    0.1059 H       1  LIG1        0.1292
     47 H           0.7523    4.2409   -0.5210 H       1  LIG1        0.1420
     48 H           6.9558    4.9043    0.2801 H       1  LIG1        0.1269
     49 H           9.8704    2.8614   -2.1266 H       1  LIG1        0.1298
     50 H           4.4668   -0.0647    2.4743 H       1  LIG1        0.2756
     51 H           5.7950    0.6001   -2.8499 H       1  LIG1        0.1306
     52 H           5.7882   -3.6778    3.1583 H       1  LIG1        0.0906
     53 H           4.2933   -3.7286    2.1980 H       1  LIG1        0.1083
     54 H           4.2205   -3.9058    3.9644 H       1  LIG1        0.0981
     55 H           3.7618   -1.1850    5.0494 H       1  LIG1        0.0940
     56 H           5.3323   -0.4873    4.5948 H       1  LIG1        0.1014
     57 H           5.2519   -2.1285    5.2709 H       1  LIG1        0.1062
@<TRIPOS>BOND
     1     1    23    1
     2     1    29    3
     3     2     4   ar
     4     2     5   ar
     5     3     6   ar
     6     3     7   ar
     7     4     8   ar
     8     5     9   ar
     9     6    12   ar
    10     7    13   ar
    11     8    16   ar
    12     9    16   ar
    13    10    14   ar
    14    10    17   ar
    15    11    15   ar
    16    11    17   ar
    17    12    19   ar
    18    13    19   ar
    19    14    20   ar
    20    15    20   ar
    21    16    21    1
    22    17    26    1
    23    18    21   ar
    24    18    22   ar
    25    18    26    1
    26    19    32    1
    27    20    35    1
    28    21    30   ar
    29    22    32   ar
    30    22    34    1
    31    23    24    2
    32    23    26    1
    33    24    31    1
    34    24    34    1
    35    25    31    2
    36    25    33    1
    37    27    33    1
    38    28    33    1
    39    30    32   ar
    40     2    36    1
    41     3    37    1
    42     4    38    1
    43     5    39    1
    44     6    40    1
    45     7    41    1
    46     8    42    1
    47     9    43    1
    48    10    44    1
    49    11    45    1
    50    12    46    1
    51    13    47    1
    52    14    48    1
    53    15    49    1
    54    25    50    1
    55    26    51    1
    56    27    52    1
    57    27    53    1
    58    27    54    1
    59    28    55    1
    60    28    56    1
    61    28    57    1
