@<TRIPOS>MOLECULE
AG-690/12893094
 61 66 0 0 0
SMALL
USER_CHARGES

@<TRIPOS>ATOM
      1 C           5.1796    5.0160   -5.7197 C.ar    1  LIG1       -0.1026
      2 C          -1.2635    2.0564    1.1724 C.ar    1  LIG1       -0.1006
      3 C           5.8484    5.0277   -4.4958 C.ar    1  LIG1       -0.0954
      4 C           4.0189    4.2577   -5.8730 C.ar    1  LIG1       -0.0993
      5 C           5.0900   -3.6314    1.6440 C.ar    1  LIG1       -0.0990
      6 C           4.9786   -3.3203    2.9991 C.ar    1  LIG1       -0.1016
      7 C          -0.5210    0.8873    1.0074 C.ar    1  LIG1       -0.0905
      8 C          -0.8169    3.2518    0.6090 C.ar    1  LIG1       -0.0916
      9 C           5.3565    4.2811   -3.4251 C.ar    1  LIG1       -0.0727
     10 C           3.5270    3.5111   -4.8024 C.ar    1  LIG1       -0.0771
     11 C           4.9966   -2.6213    0.6865 C.ar    1  LIG1       -0.0751
     12 C           4.7737   -1.9992    3.3969 C.ar    1  LIG1       -0.0941
     13 C           0.6684    0.9134    0.2791 C.ar    1  LIG1       -0.0508
     14 C           0.3725    3.2779   -0.1192 C.ar    1  LIG1       -0.0522
     15 C           6.5818    1.3228   -2.7008 C.ar    1  LIG1       -0.0321
     16 C           6.9576   -0.7111   -0.8091 C.ar    1  LIG1       -0.0303
     17 C           5.5605    1.0188   -1.7800 C.ar    1  LIG1       -0.0431
     18 C           5.7441   -0.0050   -0.8244 C.ar    1  LIG1       -0.0098
     19 C           4.3250    1.7081   -1.7651 C.ar    1  LIG1        0.0302
     20 C           4.1958    3.5228   -3.5784 C.ar    1  LIG1       -0.0275
     21 C           4.7918   -1.3002    1.0842 C.ar    1  LIG1       -0.0161
     22 C           4.6804   -0.9891    2.4394 C.ar    1  LIG1       -0.0827
     23 C           1.1152    2.1088   -0.2842 C.ar    1  LIG1        0.0044
     24 C           7.7790    0.6085   -2.6674 C.ar    1  LIG1        0.0470
     25 C           7.9661   -0.4038   -1.7259 C.ar    1  LIG1        0.0462
     26 C           4.6978   -0.2677    0.0683 C.ar    1  LIG1        0.0243
     27 C           3.6874    2.7510   -2.4722 C.ar    1  LIG1        0.0408
     28 C           3.3874    1.3293   -0.8164 C.ar    1  LIG1        0.0598
     29 C           4.4605    0.4151    2.9035 C.3     1  LIG1       -0.0344
     30 C           8.4932    1.9565   -4.4919 C.3     1  LIG1        0.0294
     31 C          10.1739   -0.5928   -0.8624 C.3     1  LIG1        0.0262
     32 N           3.5017    0.3682    0.1153 N.ar    1  LIG1       -0.3304
     33 N           2.4581    3.0131   -2.0177 N.ar    1  LIG1       -0.2833
     34 N           2.3040    2.1341   -1.0122 N.ar    1  LIG1       -0.2481
     35 O           8.7618    0.9091   -3.5622 O.3     1  LIG1       -0.3993
     36 O           9.1341   -1.1060   -1.6920 O.3     1  LIG1       -0.4053
     37 H           5.5619    5.5980   -6.5532 H       1  LIG1        0.1223
     38 H          -2.1905    2.0363    1.7379 H       1  LIG1        0.1204
     39 H           6.7515    5.6190   -4.3758 H       1  LIG1        0.1229
     40 H           3.4977    4.2498   -6.8258 H       1  LIG1        0.1208
     41 H           5.2498   -4.6602    1.3344 H       1  LIG1        0.1190
     42 H           5.0516   -4.1071    3.7443 H       1  LIG1        0.1225
     43 H          -0.8692   -0.0437    1.4449 H       1  LIG1        0.1274
     44 H          -1.3965    4.1614    0.7368 H       1  LIG1        0.1264
     45 H           5.8893    4.3005   -2.4771 H       1  LIG1        0.1323
     46 H           2.6209    2.9252   -4.9381 H       1  LIG1        0.1285
     47 H           5.0858   -2.8813   -0.3658 H       1  LIG1        0.1286
     48 H           4.6885   -1.7678    4.4553 H       1  LIG1        0.1217
     49 H           1.2372   -0.0051    0.1574 H       1  LIG1        0.1385
     50 H           0.7087    4.2163   -0.5537 H       1  LIG1        0.1357
     51 H           6.4627    2.1052   -3.4434 H       1  LIG1        0.1413
     52 H           7.1399   -1.5072   -0.0906 H       1  LIG1        0.1442
     53 H           5.4220    0.9126    3.0719 H       1  LIG1        0.0648
     54 H           3.8922    0.9910    2.1636 H       1  LIG1        0.0559
     55 H           3.8858    0.4368    3.8370 H       1  LIG1        0.0521
     56 H           9.3572    2.0939   -5.1467 H       1  LIG1        0.0910
     57 H           8.2831    2.8816   -3.9492 H       1  LIG1        0.1253
     58 H           7.6229    1.6835   -5.0932 H       1  LIG1        0.0910
     59 H          11.0479   -1.2456   -0.9266 H       1  LIG1        0.0897
     60 H           9.8226   -0.5372    0.1711 H       1  LIG1        0.0897
     61 H          10.4433    0.4079   -1.2081 H       1  LIG1        0.1240
@<TRIPOS>BOND
     1     1     3   ar
     2     1     4   ar
     3     2     7   ar
     4     2     8   ar
     5     3     9   ar
     6     4    10   ar
     7     5     6   ar
     8     5    11   ar
     9     6    12   ar
    10     7    13   ar
    11     8    14   ar
    12     9    20   ar
    13    10    20   ar
    14    11    21   ar
    15    12    22   ar
    16    13    23   ar
    17    14    23   ar
    18    15    17   ar
    19    15    24   ar
    20    16    18   ar
    21    16    25   ar
    22    17    18   ar
    23    17    19   ar
    24    18    26   ar
    25    19    27   ar
    26    19    28   ar
    27    20    27    1
    28    21    22   ar
    29    21    26    1
    30    22    29    1
    31    23    34    1
    32    24    25   ar
    33    24    35    1
    34    25    36    1
    35    26    32   ar
    36    27    33   ar
    37    28    32   ar
    38    28    34   ar
    39    30    35    1
    40    31    36    1
    41    33    34   ar
    42     1    37    1
    43     2    38    1
    44     3    39    1
    45     4    40    1
    46     5    41    1
    47     6    42    1
    48     7    43    1
    49     8    44    1
    50     9    45    1
    51    10    46    1
    52    11    47    1
    53    12    48    1
    54    13    49    1
    55    14    50    1
    56    15    51    1
    57    16    52    1
    58    29    53    1
    59    29    54    1
    60    29    55    1
    61    30    56    1
    62    30    57    1
    63    30    58    1
    64    31    59    1
    65    31    60    1
    66    31    61    1
