@<TRIPOS>MOLECULE
AG-205/37081173
 56 60 0 0 0
SMALL
USER_CHARGES

@<TRIPOS>ATOM
      1 C          -1.5773    2.9217    0.4571 C.ar    1  LIG1       -0.1010
      2 C           5.1888   -3.5345    3.3334 C.ar    1  LIG1       -0.1018
      3 C          -1.4587    1.5569    0.1948 C.ar    1  LIG1       -0.0967
      4 C          -0.4332    3.7094    0.5844 C.ar    1  LIG1       -0.0970
      5 C           3.9240   -2.9581    3.4502 C.ar    1  LIG1       -0.0979
      6 C           6.0732   -3.0834    2.3535 C.ar    1  LIG1       -0.0949
      7 C           3.9963    3.1441   -4.9345 C.ar    1  LIG1       -0.0722
      8 C           4.8515    4.7960   -3.3928 C.ar    1  LIG1       -0.0727
      9 C          -0.1960    0.9798    0.0598 C.ar    1  LIG1       -0.0749
     10 C           0.8295    3.1323    0.4495 C.ar    1  LIG1       -0.0793
     11 C           3.5434   -1.9307    2.5869 C.ar    1  LIG1       -0.0772
     12 C           5.6926   -2.0559    1.4903 C.ar    1  LIG1       -0.0716
     13 C           4.1699    4.0392   -5.9901 C.ar    1  LIG1       -0.0909
     14 C           5.0253    5.6911   -4.4484 C.ar    1  LIG1       -0.0907
     15 C           5.0950    1.6722   -2.0745 C.ar    1  LIG1       -0.0012
     16 C           4.3369    3.5225   -3.6359 C.ar    1  LIG1       -0.0303
     17 C           0.9481    1.7676    0.1872 C.ar    1  LIG1       -0.0283
     18 C           4.4277   -1.4796    1.6070 C.ar    1  LIG1       -0.0254
     19 C           4.6845    5.3127   -5.7470 C.ar    1  LIG1       -0.1091
     20 C           4.1581    2.5981   -2.5471 C.ar    1  LIG1        0.0138
     21 C           4.4617    1.0268   -1.0371 C.ar    1  LIG1        0.0442
     22 C           2.6463    0.1741    0.8858 C.ar    1  LIG1        0.0095
     23 C           2.2831    1.1580    0.0448 C.ar    1  LIG1        0.0290
     24 C           4.0219   -0.3843    0.6869 C.ar    1  LIG1        0.0114
     25 C           3.5176    6.5712   -7.5909 C.3     1  LIG1       -0.0619
     26 C           5.8501    5.6949   -7.9475 C.3     1  LIG1       -0.0619
     27 C           5.4562    7.6658   -6.4840 C.3     1  LIG1       -0.0619
     28 C           4.8711    6.2685   -6.8764 C.3     1  LIG1       -0.0617
     29 N           3.0097    2.5609   -1.8746 N.ar    1  LIG1       -0.3123
     30 N           4.8719    0.0285   -0.2088 N.ar    1  LIG1       -0.3398
     31 N           3.1912    1.5937   -0.9318 N.ar    1  LIG1       -0.2525
     32 H          -2.5605    3.3712    0.5609 H       1  LIG1        0.1253
     33 H           5.4852   -4.3345    4.0054 H       1  LIG1        0.1233
     34 H          -2.3494    0.9435    0.0944 H       1  LIG1        0.1210
     35 H          -0.5254    4.7723    0.7876 H       1  LIG1        0.1228
     36 H           3.2356   -3.3097    4.2131 H       1  LIG1        0.1209
     37 H           7.0581   -3.5320    2.2628 H       1  LIG1        0.1209
     38 H           3.5933    2.1554   -5.1407 H       1  LIG1        0.1326
     39 H           5.1219    5.1059   -2.3861 H       1  LIG1        0.1333
     40 H          -0.1196   -0.0856   -0.1446 H       1  LIG1        0.1525
     41 H           1.7119    3.7596    0.5515 H       1  LIG1        0.1324
     42 H           2.5554   -1.4886    2.6868 H       1  LIG1        0.1300
     43 H           6.3897   -1.7125    0.7304 H       1  LIG1        0.1422
     44 H           3.9027    3.7362   -6.9989 H       1  LIG1        0.1210
     45 H           5.4269    6.6815   -4.2507 H       1  LIG1        0.1254
     46 H           6.0982    1.4837   -2.4303 H       1  LIG1        0.1452
     47 H           2.0086   -0.2220    1.6672 H       1  LIG1        0.1587
     48 H           3.6269    7.2725   -8.4265 H       1  LIG1        0.0381
     49 H           3.0647    5.6595   -7.9957 H       1  LIG1        0.0401
     50 H           2.8035    7.0063   -6.8815 H       1  LIG1        0.0383
     51 H           5.9898    6.3944   -8.7790 H       1  LIG1        0.0388
     52 H           6.8448    5.4792   -7.5401 H       1  LIG1        0.0386
     53 H           5.4514    4.7628   -8.3651 H       1  LIG1        0.0387
     54 H           5.5747    8.3319   -7.3471 H       1  LIG1        0.0383
     55 H           4.7993    8.1773   -5.7708 H       1  LIG1        0.0401
     56 H           6.4447    7.5587   -6.0221 H       1  LIG1        0.0381
@<TRIPOS>BOND
     1     1     3   ar
     2     1     4   ar
     3     2     5   ar
     4     2     6   ar
     5     3     9   ar
     6     4    10   ar
     7     5    11   ar
     8     6    12   ar
     9     7    13   ar
    10     7    16   ar
    11     8    14   ar
    12     8    16   ar
    13     9    17   ar
    14    10    17   ar
    15    11    18   ar
    16    12    18   ar
    17    13    19   ar
    18    14    19   ar
    19    15    20   ar
    20    15    21   ar
    21    16    20    1
    22    17    23    1
    23    18    24    1
    24    19    28    1
    25    20    29   ar
    26    21    30   ar
    27    21    31   ar
    28    22    23   ar
    29    22    24   ar
    30    23    31   ar
    31    24    30   ar
    32    25    28    1
    33    26    28    1
    34    27    28    1
    35    29    31   ar
    36     1    32    1
    37     2    33    1
    38     3    34    1
    39     4    35    1
    40     5    36    1
    41     6    37    1
    42     7    38    1
    43     8    39    1
    44     9    40    1
    45    10    41    1
    46    11    42    1
    47    12    43    1
    48    13    44    1
    49    14    45    1
    50    15    46    1
    51    22    47    1
    52    25    48    1
    53    25    49    1
    54    25    50    1
    55    26    51    1
    56    26    52    1
    57    26    53    1
    58    27    54    1
    59    27    55    1
    60    27    56    1
