@<TRIPOS>MOLECULE
AH-487/41078165
 44 46 0 0 0
SMALL
USER_CHARGES

@<TRIPOS>ATOM
      1 C          -1.1860    2.6332    0.3438 C.ar    1  LIG1       -0.1046
      2 C          -0.1535    3.2883    1.0147 C.ar    1  LIG1       -0.0968
      3 C          -0.9271    1.4518   -0.3512 C.ar    1  LIG1       -0.1031
      4 C           1.1382    2.7621    0.9905 C.ar    1  LIG1       -0.0850
      5 C           0.3645    0.9256   -0.3754 C.ar    1  LIG1       -0.0926
      6 C           5.7968    4.2526   -3.5061 C.ar    1  LIG1       -0.0511
      7 C           4.0409    3.0926   -4.6929 C.ar    1  LIG1       -0.0493
      8 C           5.9778    5.0983   -4.6005 C.ar    1  LIG1       -0.0589
      9 C           4.2218    3.9385   -5.7873 C.ar    1  LIG1       -0.0573
     10 C           1.3972    1.5807    0.2954 C.ar    1  LIG1       -0.0668
     11 C           4.8283    3.2497   -3.5524 C.ar    1  LIG1       -0.0153
     12 C           5.1903    4.9413   -5.7410 C.ar    1  LIG1       -0.0071
     13 C           5.0134    0.8977   -0.7663 C.2     1  LIG1        0.0789
     14 C           5.5667    1.5110   -1.8293 C.2     1  LIG1       -0.0067
     15 C           3.6579    1.3586   -0.6299 C.2     1  LIG1        0.0585
     16 C           3.4069    2.3345   -1.7302 C.2     1  LIG1        0.1537
     17 C           2.7249    1.0394    0.2701 C.2     1  LIG1       -0.0398
     18 C           5.6589   -0.0868    0.0952 C.2     1  LIG1        0.1785
     19 C           6.9177    1.2292   -2.4009 C.3     1  LIG1        0.0099
     20 C           4.8407   -2.2473    2.2235 C.3     1  LIG1       -0.0335
     21 C           5.4649   -2.3187    0.8462 C.3     1  LIG1        0.0270
     22 N           4.6424    2.3823   -2.4295 N.am    1  LIG1       -0.2680
     23 O           2.3667    2.9477   -1.8943 O.2     1  LIG1       -0.4333
     24 O           6.6741    0.1342    0.7446 O.2     1  LIG1       -0.4519
     25 O           4.9531   -1.2478    0.0463 O.3     1  LIG1       -0.3500
     26 CL          5.4137    5.9850   -7.0913 Cl      1  LIG1       -0.1347
     27 H          -2.1920    3.0421    0.3637 H       1  LIG1        0.1194
     28 H          -0.3551    4.2076    1.5569 H       1  LIG1        0.1159
     29 H          -1.7314    0.9409   -0.8725 H       1  LIG1        0.1149
     30 H           1.9328    3.2843    1.5181 H       1  LIG1        0.1332
     31 H           0.5505    0.0038   -0.9216 H       1  LIG1        0.1267
     32 H           6.4161    4.3837   -2.6226 H       1  LIG1        0.1450
     33 H           3.2834    2.3145   -4.7396 H       1  LIG1        0.1461
     34 H           6.7359    5.8756   -4.5507 H       1  LIG1        0.1439
     35 H           3.6013    3.8047   -6.6696 H       1  LIG1        0.1442
     36 H           3.0018    0.3376    1.0567 H       1  LIG1        0.1832
     37 H           6.8435    0.4534   -3.1635 H       1  LIG1        0.1059
     38 H           7.5923    0.8933   -1.6124 H       1  LIG1        0.0822
     39 H           7.3271    2.1350   -2.8498 H       1  LIG1        0.0808
     40 H           5.0825   -1.2999    2.7128 H       1  LIG1        0.0484
     41 H           3.7519   -2.3443    2.1593 H       1  LIG1        0.0486
     42 H           5.1971   -3.0705    2.8517 H       1  LIG1        0.0584
     43 H           5.2192   -3.2686    0.3622 H       1  LIG1        0.1011
     44 H           6.5526   -2.2208    0.9120 H       1  LIG1        0.1011
@<TRIPOS>BOND
     1     1     2   ar
     2     1     3   ar
     3     2     4   ar
     4     3     5   ar
     5     4    10   ar
     6     5    10   ar
     7     6     8   ar
     8     6    11   ar
     9     7     9   ar
    10     7    11   ar
    11     8    12   ar
    12     9    12   ar
    13    10    17    1
    14    11    22    1
    15    12    26    1
    16    13    14    2
    17    13    15    1
    18    13    18    1
    19    14    19    1
    20    14    22    1
    21    15    16    1
    22    15    17    2
    23    16    22   am
    24    16    23    2
    25    18    24    2
    26    18    25    1
    27    20    21    1
    28    21    25    1
    29     1    27    1
    30     2    28    1
    31     3    29    1
    32     4    30    1
    33     5    31    1
    34     6    32    1
    35     7    33    1
    36     8    34    1
    37     9    35    1
    38    17    36    1
    39    19    37    1
    40    19    38    1
    41    19    39    1
    42    20    40    1
    43    20    41    1
    44    20    42    1
    45    21    43    1
    46    21    44    1
