@<TRIPOS>MOLECULE
AO-476/43421054
 45 48 0 0 0
SMALL
USER_CHARGES

@<TRIPOS>ATOM
      1 C           5.4463   -3.6204    1.4829 C.ar    1  LIG1       -0.0857
      2 C           5.1493   -2.0963    3.3339 C.ar    1  LIG1       -0.0886
      3 C           5.1487   -2.5923    0.5885 C.ar    1  LIG1       -0.0503
      4 C           4.8516   -1.0681    2.4395 C.ar    1  LIG1       -0.0544
      5 C           4.6518    1.1774   -1.4065 C.ar    1  LIG1        0.0155
      6 C           5.4466   -3.3724    2.8556 C.ar    1  LIG1       -0.1090
      7 C           3.3809    1.2474   -0.7286 C.ar    1  LIG1        0.0849
      8 C           4.8514   -1.3161    1.0668 C.ar    1  LIG1       -0.0020
      9 C           5.0609    1.9683   -2.4695 C.ar    1  LIG1       -0.0044
     10 C           5.3764    0.1884   -0.8074 C.ar    1  LIG1       -0.0130
     11 C           2.4189    2.1841   -1.1333 C.ar    1  LIG1        0.0941
     12 C           0.8192    3.6024    0.0851 C.3     1  LIG1        0.0046
     13 C           0.5230    1.1410    0.0801 C.3     1  LIG1        0.0053
     14 C          -0.6948    3.7183    0.2213 C.3     1  LIG1        0.0213
     15 C          -0.9753    1.3883    0.2171 C.3     1  LIG1        0.0225
     16 C           5.7648   -4.4717    3.8119 C.3     1  LIG1       -0.0400
     17 C           6.3509    1.9439   -3.2030 C.3     1  LIG1       -0.0004
     18 C           6.7313   -0.3482   -1.0505 C.3     1  LIG1        0.0042
     19 N           3.3531    0.3234    0.2472 N.ar    1  LIG1       -0.2943
     20 N           4.1081    2.8656   -2.8383 N.ar    1  LIG1       -0.2969
     21 N           2.8071    2.9693   -2.1777 N.ar    1  LIG1       -0.2595
     22 N           4.5531   -0.2868    0.1723 N.ar    1  LIG1       -0.2787
     23 N           1.1651    2.3121   -0.5267 N.pl3   1  LIG1       -0.3589
     24 O          -1.2190    2.5980    0.9340 O.3     1  LIG1       -0.4566
     25 H           5.6769   -4.6118    1.1021 H       1  LIG1        0.1322
     26 H           5.1469   -1.8940    4.4017 H       1  LIG1        0.1328
     27 H           5.1511   -2.7992   -0.4790 H       1  LIG1        0.1423
     28 H           4.6215   -0.0784    2.8264 H       1  LIG1        0.1379
     29 H           1.1962    4.4338   -0.5220 H       1  LIG1        0.1054
     30 H           1.2823    3.6633    1.0783 H       1  LIG1        0.1291
     31 H           0.9574    0.9669    1.0729 H       1  LIG1        0.1310
     32 H           0.6906    0.2457   -0.5302 H       1  LIG1        0.1067
     33 H          -0.9503    4.6234    0.7814 H       1  LIG1        0.1326
     34 H          -1.1812    3.7874   -0.7593 H       1  LIG1        0.0939
     35 H          -1.4615    1.4430   -0.7646 H       1  LIG1        0.1340
     36 H          -1.4406    0.5673    0.7718 H       1  LIG1        0.0947
     37 H           6.8429   -4.5040    4.0116 H       1  LIG1        0.0607
     38 H           5.2383   -4.3353    4.7654 H       1  LIG1        0.0567
     39 H           5.4551   -5.4473    3.4150 H       1  LIG1        0.0568
     40 H           6.3008    1.2514   -4.0555 H       1  LIG1        0.0780
     41 H           6.6182    2.9399   -3.5870 H       1  LIG1        0.0797
     42 H           7.1810    1.6274   -2.5536 H       1  LIG1        0.0741
     43 H           7.4842    0.1933   -0.4557 H       1  LIG1        0.0889
     44 H           6.8039   -1.4178   -0.7914 H       1  LIG1        0.0921
     45 H           7.0214   -0.2703   -2.1118 H       1  LIG1        0.0807
@<TRIPOS>BOND
     1     1     3   ar
     2     1     6   ar
     3     2     4   ar
     4     2     6   ar
     5     3     8   ar
     6     4     8   ar
     7     5     7   ar
     8     5     9   ar
     9     5    10   ar
    10     6    16    1
    11     7    11   ar
    12     7    19   ar
    13     8    22    1
    14     9    17    1
    15     9    20   ar
    16    10    18    1
    17    10    22   ar
    18    11    21   ar
    19    11    23    1
    20    12    14    1
    21    12    23    1
    22    13    15    1
    23    13    23    1
    24    14    24    1
    25    15    24    1
    26    19    22   ar
    27    20    21   ar
    28     1    25    1
    29     2    26    1
    30     3    27    1
    31     4    28    1
    32    12    29    1
    33    12    30    1
    34    13    31    1
    35    13    32    1
    36    14    33    1
    37    14    34    1
    38    15    35    1
    39    15    36    1
    40    16    37    1
    41    16    38    1
    42    16    39    1
    43    17    40    1
    44    17    41    1
    45    17    42    1
    46    18    43    1
    47    18    44    1
    48    18    45    1
