@<TRIPOS>MOLECULE
AE-848/34408042
 44 46 0 0 0
SMALL
USER_CHARGES

@<TRIPOS>ATOM
      1 C           6.2518    1.2877   -2.4635 C.1     1  LIG1        0.0754
      2 C          -1.3054    2.1813    1.0798 C.ar    1  LIG1       -0.1033
      3 C          -0.4273    3.2648    1.0638 C.ar    1  LIG1       -0.0992
      4 C          -0.9370    0.9759    0.4824 C.ar    1  LIG1       -0.0970
      5 C           0.8195    3.1431    0.4502 C.ar    1  LIG1       -0.0791
      6 C           0.3097    0.8541   -0.1312 C.ar    1  LIG1       -0.0750
      7 C           3.7291    3.2898   -4.6894 C.ar    1  LIG1       -0.0749
      8 C           5.5930    4.1310   -3.4028 C.ar    1  LIG1       -0.0857
      9 C           4.0973    4.1076   -5.7576 C.ar    1  LIG1       -0.0518
     10 C           5.9613    4.9488   -4.4710 C.ar    1  LIG1       -0.0647
     11 C           2.8352    2.6289   -1.8427 C.ar    1  LIG1       -0.0195
     12 C           4.9477    1.4803   -1.8947 C.ar    1  LIG1        0.1146
     13 C           4.4769    3.3015   -3.5119 C.ar    1  LIG1       -0.0575
     14 C           1.1880    1.9377   -0.1473 C.ar    1  LIG1       -0.0322
     15 C           4.0952    2.4535   -2.4041 C.ar    1  LIG1       -0.0111
     16 C           5.2135    4.9371   -5.6484 C.ar    1  LIG1       -0.0108
     17 C           2.4784    1.8120   -0.7820 C.ar    1  LIG1       -0.0038
     18 C           4.4964    0.7149   -0.8315 C.ar    1  LIG1        0.0571
     19 C           4.4766   -3.4855    2.0434 C.2     1  LIG1       -0.1274
     20 C           4.9816   -2.2486    1.9706 C.2     1  LIG1       -0.1223
     21 C           4.7645    5.6723   -7.8652 C.3     1  LIG1        0.0250
     22 C           4.3617   -1.1408    1.1812 C.3     1  LIG1        0.0140
     23 N           7.3059    1.1322   -2.9232 N.1     1  LIG1       -0.3611
     24 N           3.2794    0.8561   -0.2601 N.ar    1  LIG1       -0.3616
     25 O           5.5729    5.7345   -6.6911 O.3     1  LIG1       -0.4157
     26 S           5.5062   -0.5669   -0.0904 S.3     1  LIG1       -0.1169
     27 H          -2.2755    2.2758    1.5591 H       1  LIG1        0.1212
     28 H          -0.7133    4.2028    1.5304 H       1  LIG1        0.1199
     29 H          -1.6197    0.1314    0.4957 H       1  LIG1        0.1189
     30 H           1.4931    3.9968    0.4463 H       1  LIG1        0.1299
     31 H           0.5835   -0.0919   -0.5924 H       1  LIG1        0.1378
     32 H           2.8566    2.6487   -4.7897 H       1  LIG1        0.1440
     33 H           6.1862    4.1514   -2.4917 H       1  LIG1        0.1320
     34 H           3.5111    4.0940   -6.6724 H       1  LIG1        0.1340
     35 H           6.8318    5.5928   -4.3804 H       1  LIG1        0.1164
     36 H           2.1503    3.3823   -2.2219 H       1  LIG1        0.1497
     37 H           4.9578   -4.2616    2.6281 H       1  LIG1        0.0914
     38 H           3.5659   -3.7389    1.5119 H       1  LIG1        0.0871
     39 H           5.9092   -2.0377    2.4974 H       1  LIG1        0.0991
     40 H           5.1615    6.3571   -8.6185 H       1  LIG1        0.1233
     41 H           3.7360    5.9450   -7.6153 H       1  LIG1        0.0903
     42 H           4.7840    4.6525   -8.2566 H       1  LIG1        0.0901
     43 H           4.0901   -0.2902    1.8148 H       1  LIG1        0.0979
     44 H           3.4489   -1.5020    0.6974 H       1  LIG1        0.1017
@<TRIPOS>BOND
     1     1    12    1
     2     1    23    3
     3     2     3   ar
     4     2     4   ar
     5     3     5   ar
     6     4     6   ar
     7     5    14   ar
     8     6    14   ar
     9     7     9   ar
    10     7    13   ar
    11     8    10   ar
    12     8    13   ar
    13     9    16   ar
    14    10    16   ar
    15    11    15   ar
    16    11    17   ar
    17    12    15   ar
    18    12    18   ar
    19    13    15    1
    20    14    17    1
    21    16    25    1
    22    17    24   ar
    23    18    24   ar
    24    18    26    1
    25    19    20    2
    26    20    22    1
    27    21    25    1
    28    22    26    1
    29     2    27    1
    30     3    28    1
    31     4    29    1
    32     5    30    1
    33     6    31    1
    34     7    32    1
    35     8    33    1
    36     9    34    1
    37    10    35    1
    38    11    36    1
    39    19    37    1
    40    19    38    1
    41    20    39    1
    42    21    40    1
    43    21    41    1
    44    21    42    1
    45    22    43    1
    46    22    44    1
