@<TRIPOS>MOLECULE
AK-968/12096338
 58 61 0 0 0
SMALL
USER_CHARGES

@<TRIPOS>ATOM
      1 C           4.3614   -3.3435    1.5853 C.ar    1  LIG1       -0.0964
      2 C           4.7951   -2.5589    0.5168 C.ar    1  LIG1       -0.0863
      3 C           0.2130    2.7903    1.2416 C.ar    1  LIG1       -0.0887
      4 C          -0.7343    1.3164   -0.4221 C.ar    1  LIG1       -0.0955
      5 C           4.5843    3.6865   -5.8507 C.ar    1  LIG1       -0.0864
      6 C           5.4778    5.2883   -4.2782 C.ar    1  LIG1       -0.0868
      7 C           1.2553    3.1046    0.3696 C.ar    1  LIG1       -0.0615
      8 C           0.3080    1.6308   -1.2941 C.ar    1  LIG1       -0.0711
      9 C           4.4007    2.7714   -4.8143 C.ar    1  LIG1       -0.0576
     10 C           5.2942    4.3732   -3.2417 C.ar    1  LIG1       -0.0581
     11 C           4.5298   -2.8932    2.8947 C.ar    1  LIG1       -0.0677
     12 C           5.5656   -0.8736    2.0669 C.ar    1  LIG1       -0.0437
     13 C           5.3972   -1.3239    0.7575 C.ar    1  LIG1       -0.0575
     14 C          -0.7818    1.8961    0.8458 C.ar    1  LIG1       -0.1109
     15 C           5.1229    4.9451   -5.5828 C.ar    1  LIG1       -0.1080
     16 C           1.3029    2.5249   -0.8981 C.ar    1  LIG1       -0.0299
     17 C           4.7556    3.1147   -3.5098 C.ar    1  LIG1       -0.0103
     18 C           5.1319   -1.6582    3.1356 C.ar    1  LIG1       -0.0088
     19 C           5.0971    0.4268   -0.9439 C.2     1  LIG1        0.0997
     20 C           5.5686    1.2596   -2.0814 C.2     1  LIG1        0.1672
     21 C           3.3955    2.0895   -1.7024 C.2     1  LIG1        0.1131
     22 C           5.8493   -0.5056   -0.3564 C.2     1  LIG1       -0.0235
     23 C          -1.5715    0.3559    2.6598 C.3     1  LIG1       -0.0635
     24 C           6.6942    5.7954   -7.3420 C.3     1  LIG1       -0.0628
     25 C           4.8299   -2.0709    5.4581 C.3     1  LIG1        0.0242
     26 C          -1.8959    1.5591    1.7781 C.3     1  LIG1       -0.0488
     27 C           5.3193    5.9234   -6.6911 C.3     1  LIG1       -0.0471
     28 N           2.3530    2.8431   -1.7775 N.2     1  LIG1       -0.3330
     29 N           4.5662    2.1718   -2.4411 N.am    1  LIG1       -0.2249
     30 O           6.6596    1.0738   -2.6059 O.2     1  LIG1       -0.4355
     31 O           5.2962   -1.2186    4.4132 O.3     1  LIG1       -0.4167
     32 S           3.4850    0.8142   -0.5143 S.3     1  LIG1       -0.0283
     33 H           3.8924   -4.3049    1.3978 H       1  LIG1        0.1302
     34 H           4.6572   -2.9235   -0.4985 H       1  LIG1        0.1279
     35 H           0.1838    3.2463    2.2277 H       1  LIG1        0.1266
     36 H          -1.5044    0.6179   -0.7383 H       1  LIG1        0.1242
     37 H           4.3071    3.4098   -6.8646 H       1  LIG1        0.1270
     38 H           5.8988    6.2665   -4.0605 H       1  LIG1        0.1270
     39 H           2.0267    3.8018    0.6870 H       1  LIG1        0.1372
     40 H           0.3368    1.1743   -2.2799 H       1  LIG1        0.1236
     41 H           3.9798    1.7936   -5.0346 H       1  LIG1        0.1343
     42 H           5.5752    4.6508   -2.2288 H       1  LIG1        0.1336
     43 H           4.1901   -3.5090    3.7231 H       1  LIG1        0.1181
     44 H           6.0344    0.0883    2.2646 H       1  LIG1        0.1427
     45 H           6.8610   -0.6564   -0.6956 H       1  LIG1        0.1947
     46 H          -1.3297   -0.5226    2.0520 H       1  LIG1        0.0362
     47 H          -2.4234    0.1024    3.2983 H       1  LIG1        0.0341
     48 H          -0.7125    0.5635    3.3069 H       1  LIG1        0.0337
     49 H           7.4922    5.9214   -6.6023 H       1  LIG1        0.0343
     50 H           6.8279    6.5558   -8.1177 H       1  LIG1        0.0368
     51 H           6.8187    4.8113   -7.8064 H       1  LIG1        0.0345
     52 H           5.0223   -1.6011    6.4257 H       1  LIG1        0.0896
     53 H           5.3432   -3.0341    5.4003 H       1  LIG1        0.1229
     54 H           3.7550   -2.2252    5.3379 H       1  LIG1        0.0897
     55 H          -2.1336    2.4222    2.4206 H       1  LIG1        0.0607
     56 H          -2.8199    1.3531    1.2140 H       1  LIG1        0.0610
     57 H           4.5427    5.7918   -7.4617 H       1  LIG1        0.0622
     58 H           5.1906    6.9535   -6.3214 H       1  LIG1        0.0621
@<TRIPOS>BOND
     1     1     2   ar
     2     1    11   ar
     3     2    13   ar
     4     3     7   ar
     5     3    14   ar
     6     4     8   ar
     7     4    14   ar
     8     5     9   ar
     9     5    15   ar
    10     6    10   ar
    11     6    15   ar
    12     7    16   ar
    13     8    16   ar
    14     9    17   ar
    15    10    17   ar
    16    11    18   ar
    17    12    13   ar
    18    12    18   ar
    19    13    22    1
    20    14    26    1
    21    15    27    1
    22    16    28    1
    23    17    29    1
    24    18    31    1
    25    19    20    1
    26    19    22    2
    27    19    32    1
    28    20    29   am
    29    20    30    2
    30    21    28    2
    31    21    29    1
    32    21    32    1
    33    23    26    1
    34    24    27    1
    35    25    31    1
    36     1    33    1
    37     2    34    1
    38     3    35    1
    39     4    36    1
    40     5    37    1
    41     6    38    1
    42     7    39    1
    43     8    40    1
    44     9    41    1
    45    10    42    1
    46    11    43    1
    47    12    44    1
    48    22    45    1
    49    23    46    1
    50    23    47    1
    51    23    48    1
    52    24    49    1
    53    24    50    1
    54    24    51    1
    55    25    52    1
    56    25    53    1
    57    25    54    1
    58    26    55    1
    59    26    56    1
    60    27    57    1
    61    27    58    1
