@<TRIPOS>MOLECULE
AB-131/40897260
 49 53 0 0 0
SMALL
USER_CHARGES

@<TRIPOS>ATOM
      1 C           8.5182    0.2950   -2.7822 C.ar    1  LIG1       -0.1073
      2 C           4.0727   -1.8003    2.0278 C.ar    1  LIG1       -0.1073
      3 C           5.0521    5.1797   -5.8058 C.ar    1  LIG1       -0.1030
      4 C          -1.1560    2.2564    0.9108 C.ar    1  LIG1       -0.1030
      5 C           7.5766   -0.5860   -2.2504 C.ar    1  LIG1       -0.1023
      6 C           8.1730    1.6257   -3.0183 C.ar    1  LIG1       -0.1025
      7 C           4.4712   -0.4960    2.3201 C.ar    1  LIG1       -0.1025
      8 C           3.5528   -2.1055    0.7699 C.ar    1  LIG1       -0.1023
      9 C           4.4173    3.9613   -6.0464 C.ar    1  LIG1       -0.0987
     10 C           5.3371    5.5713   -4.4976 C.ar    1  LIG1       -0.0964
     11 C          -0.7726    1.0694    0.2866 C.ar    1  LIG1       -0.0987
     12 C          -0.3055    3.3617    0.8897 C.ar    1  LIG1       -0.0964
     13 C           6.2898   -0.1363   -1.9549 C.ar    1  LIG1       -0.0875
     14 C           6.8861    2.0754   -2.7228 C.ar    1  LIG1       -0.0876
     15 C           4.3498    0.5033    1.3545 C.ar    1  LIG1       -0.0876
     16 C           3.4314   -1.1062   -0.1957 C.ar    1  LIG1       -0.0875
     17 C           4.0672    3.1344   -4.9790 C.ar    1  LIG1       -0.0789
     18 C           4.9871    4.7445   -3.4302 C.ar    1  LIG1       -0.0763
     19 C           0.4613    0.9878   -0.3587 C.ar    1  LIG1       -0.0789
     20 C           0.9284    3.2801    0.2445 C.ar    1  LIG1       -0.0763
     21 C           5.9444    1.1943   -2.1911 C.ar    1  LIG1       -0.0724
     22 C           3.8298    0.1982    0.0966 C.ar    1  LIG1       -0.0724
     23 C           4.3522    3.5260   -3.6709 C.ar    1  LIG1       -0.0340
     24 C           1.3118    2.0931   -0.3798 C.ar    1  LIG1       -0.0340
     25 C           4.6195    1.6575   -1.8871 C.ar    1  LIG1       -0.0314
     26 C           3.7046    1.2262   -0.8971 C.ar    1  LIG1       -0.0314
     27 C           3.9921    2.6730   -2.5705 C.ar    1  LIG1        0.0441
     28 C           2.5834    2.0092   -1.0459 C.ar    1  LIG1        0.0441
     29 O           2.7506    2.8937   -2.0639 O.2     1  LIG1       -0.3474
     30 H           9.5207   -0.0546   -3.0113 H       1  LIG1        0.1141
     31 H           4.1682   -2.5788    2.7791 H       1  LIG1        0.1141
     32 H           5.3252    5.8233   -6.6369 H       1  LIG1        0.1204
     33 H          -2.1171    2.3200    1.4128 H       1  LIG1        0.1204
     34 H           7.8456   -1.6217   -2.0654 H       1  LIG1        0.1158
     35 H           8.9067    2.3118   -3.4312 H       1  LIG1        0.1156
     36 H           4.8773   -0.2585    3.2990 H       1  LIG1        0.1156
     37 H           3.2437   -3.1214    0.5422 H       1  LIG1        0.1158
     38 H           4.1953    3.6568   -7.0650 H       1  LIG1        0.1200
     39 H           5.8325    6.5195   -4.3103 H       1  LIG1        0.1212
     40 H          -1.4349    0.2087    0.3033 H       1  LIG1        0.1199
     41 H          -0.6045    4.2864    1.3749 H       1  LIG1        0.1212
     42 H           5.5668   -0.8355   -1.5408 H       1  LIG1        0.1210
     43 H           6.6327    3.1158   -2.9127 H       1  LIG1        0.1214
     44 H           4.6649    1.5154    1.5977 H       1  LIG1        0.1214
     45 H           3.0240   -1.3603   -1.1715 H       1  LIG1        0.1210
     46 H           3.5752    2.1865   -5.1832 H       1  LIG1        0.1279
     47 H           5.2151    5.0644   -2.4162 H       1  LIG1        0.1308
     48 H           0.7445    0.0563   -0.8430 H       1  LIG1        0.1280
     49 H           1.5805    4.1503    0.2377 H       1  LIG1        0.1308
@<TRIPOS>BOND
     1     1     5   ar
     2     1     6   ar
     3     2     7   ar
     4     2     8   ar
     5     3     9   ar
     6     3    10   ar
     7     4    11   ar
     8     4    12   ar
     9     5    13   ar
    10     6    14   ar
    11     7    15   ar
    12     8    16   ar
    13     9    17   ar
    14    10    18   ar
    15    11    19   ar
    16    12    20   ar
    17    13    21   ar
    18    14    21   ar
    19    15    22   ar
    20    16    22   ar
    21    17    23   ar
    22    18    23   ar
    23    19    24   ar
    24    20    24   ar
    25    21    25    1
    26    22    26    1
    27    23    27    1
    28    24    28    1
    29    25    26   ar
    30    25    27   ar
    31    26    28   ar
    32    27    29   ar
    33    28    29   ar
    34     1    30    1
    35     2    31    1
    36     3    32    1
    37     4    33    1
    38     5    34    1
    39     6    35    1
    40     7    36    1
    41     8    37    1
    42     9    38    1
    43    10    39    1
    44    11    40    1
    45    12    41    1
    46    13    42    1
    47    14    43    1
    48    15    44    1
    49    16    45    1
    50    17    46    1
    51    18    47    1
    52    19    48    1
    53    20    49    1
