@<TRIPOS>MOLECULE
AN-329/14226019
 43 45 0 0 0
SMALL
USER_CHARGES

@<TRIPOS>ATOM
      1 C           6.2290    1.2298   -2.3897 C.1     1  LIG1        0.0759
      2 C           5.2259    4.8785   -5.5946 C.ar    1  LIG1       -0.1020
      3 C          -1.3419    2.1710    1.1118 C.ar    1  LIG1       -0.1031
      4 C           5.4944    5.2780   -4.2855 C.ar    1  LIG1       -0.0988
      5 C           4.5797    3.6660   -5.8352 C.ar    1  LIG1       -0.0989
      6 C          -0.7283    3.2825    0.5341 C.ar    1  LIG1       -0.0991
      7 C          -0.7061    0.9298    1.0831 C.ar    1  LIG1       -0.0968
      8 C           5.1169    4.4648   -3.2168 C.ar    1  LIG1       -0.0866
      9 C           4.2023    2.8528   -4.7665 C.ar    1  LIG1       -0.0879
     10 C           0.5211    3.1527   -0.0726 C.ar    1  LIG1       -0.0792
     11 C           0.5432    0.7999    0.4765 C.ar    1  LIG1       -0.0749
     12 C           2.8160    2.5894   -1.7905 C.ar    1  LIG1       -0.0190
     13 C           4.9230    1.4305   -1.8282 C.ar    1  LIG1        0.1152
     14 C           4.4709    3.2522   -3.4574 C.ar    1  LIG1       -0.0600
     15 C           1.1568    1.9114   -0.1014 C.ar    1  LIG1       -0.0321
     16 C           4.0779    2.4063   -2.3448 C.ar    1  LIG1       -0.0086
     17 C           2.4498    1.7775   -0.7292 C.ar    1  LIG1       -0.0035
     18 C           4.4627    0.6705   -0.7650 C.ar    1  LIG1        0.0583
     19 C           4.7580   -3.5768    1.7011 C.2     1  LIG1       -0.1274
     20 C           4.9108   -2.2920    2.0588 C.2     1  LIG1       -0.1337
     21 C           5.6461   -1.9138    3.3142 C.3     1  LIG1       -0.0527
     22 C           4.3019   -1.1760    1.2542 C.3     1  LIG1        0.0157
     23 N           7.2847    1.0676   -2.8435 N.1     1  LIG1       -0.3599
     24 N           3.2434    0.8194   -0.2002 N.ar    1  LIG1       -0.3611
     25 S           5.4481   -0.5956   -0.0256 S.3     1  LIG1       -0.1133
     26 H           5.5184    5.5126   -6.4264 H       1  LIG1        0.1223
     27 H          -2.3139    2.2728    1.5857 H       1  LIG1        0.1216
     28 H           5.9960    6.2228   -4.0978 H       1  LIG1        0.1219
     29 H           4.3691    3.3549   -6.8541 H       1  LIG1        0.1213
     30 H          -1.2224    4.2493    0.5578 H       1  LIG1        0.1200
     31 H          -1.1827    0.0643    1.5340 H       1  LIG1        0.1191
     32 H           5.3332    4.7903   -2.2019 H       1  LIG1        0.1291
     33 H           3.6987    1.9105   -4.9695 H       1  LIG1        0.1230
     34 H           0.9865    4.0286   -0.5185 H       1  LIG1        0.1296
     35 H           1.0269   -0.1738    0.4622 H       1  LIG1        0.1379
     36 H           2.1366    3.3451   -2.1753 H       1  LIG1        0.1499
     37 H           4.2103   -3.8522    0.8058 H       1  LIG1        0.0911
     38 H           5.1792   -4.3824    2.2931 H       1  LIG1        0.0875
     39 H           6.7116   -1.7761    3.1022 H       1  LIG1        0.0527
     40 H           5.5412   -2.6921    4.0762 H       1  LIG1        0.0514
     41 H           5.2717   -0.9785    3.7442 H       1  LIG1        0.0496
     42 H           3.3800   -1.4992    0.7584 H       1  LIG1        0.1019
     43 H           4.0348   -0.3383    1.9070 H       1  LIG1        0.1036
@<TRIPOS>BOND
     1     1    13    1
     2     1    23    3
     3     2     4   ar
     4     2     5   ar
     5     3     6   ar
     6     3     7   ar
     7     4     8   ar
     8     5     9   ar
     9     6    10   ar
    10     7    11   ar
    11     8    14   ar
    12     9    14   ar
    13    10    15   ar
    14    11    15   ar
    15    12    16   ar
    16    12    17   ar
    17    13    16   ar
    18    13    18   ar
    19    14    16    1
    20    15    17    1
    21    17    24   ar
    22    18    24   ar
    23    18    25    1
    24    19    20    2
    25    20    21    1
    26    20    22    1
    27    22    25    1
    28     2    26    1
    29     3    27    1
    30     4    28    1
    31     5    29    1
    32     6    30    1
    33     7    31    1
    34     8    32    1
    35     9    33    1
    36    10    34    1
    37    11    35    1
    38    12    36    1
    39    19    37    1
    40    19    38    1
    41    21    39    1
    42    21    40    1
    43    21    41    1
    44    22    42    1
    45    22    43    1
