@<TRIPOS>MOLECULE
AG-690/11191338
 45 48 0 0 0
SMALL
USER_CHARGES

@<TRIPOS>ATOM
      1 C          -1.4779    2.3230    1.0380 C.ar    1  LIG1       -0.1012
      2 C           5.3804    4.7867   -5.7679 C.ar    1  LIG1       -0.1045
      3 C          -1.0683    1.1455    0.4126 C.ar    1  LIG1       -0.0953
      4 C          -0.6719    3.4601    0.9804 C.ar    1  LIG1       -0.0947
      5 C           6.2360    4.3234   -4.7685 C.ar    1  LIG1       -0.0970
      6 C           4.0098    4.5429   -5.6809 C.ar    1  LIG1       -0.0947
      7 C           0.1472    1.1049   -0.2704 C.ar    1  LIG1       -0.0696
      8 C           0.5435    3.4195    0.2974 C.ar    1  LIG1       -0.0693
      9 C           6.4180   -2.9543    1.9185 C.ar    1  LIG1       -0.0924
     10 C           4.1919   -2.7185    2.8274 C.ar    1  LIG1       -0.0910
     11 C           5.7210    3.6162   -3.6821 C.ar    1  LIG1       -0.0571
     12 C           3.4947    3.8357   -4.5945 C.ar    1  LIG1       -0.0556
     13 C           6.1609   -1.9188    1.0202 C.ar    1  LIG1       -0.0627
     14 C           3.9348   -1.6829    1.9290 C.ar    1  LIG1       -0.0596
     15 C           0.9532    2.2420   -0.3281 C.ar    1  LIG1       -0.0090
     16 C           5.4334   -3.3542    2.8221 C.ar    1  LIG1       -0.1122
     17 C           4.3504    3.3723   -3.5951 C.ar    1  LIG1       -0.0021
     18 C           4.9194   -1.2830    1.0254 C.ar    1  LIG1       -0.0263
     19 C           2.2293    2.1993   -1.0452 C.2     1  LIG1        0.0940
     20 C           3.3855    1.3212   -0.7693 C.2     1  LIG1        0.1806
     21 C           4.4479    1.6690   -1.7437 C.2     1  LIG1        0.1883
     22 C           5.7072   -4.4616    3.7828 C.3     1  LIG1       -0.0429
     23 N           2.5288    2.9480   -2.0684 N.2     1  LIG1       -0.2693
     24 N           3.4677    0.3919    0.1108 N.2     1  LIG1       -0.2621
     25 N           3.8271    2.6534   -2.4906 N.am    1  LIG1       -0.2180
     26 N           4.6610   -0.2396    0.1226 N.pl3   1  LIG1       -0.2770
     27 O           5.5293    1.1290   -1.7507 O.2     1  LIG1       -0.4575
     28 H          -2.4242    2.3546    1.5698 H       1  LIG1        0.1235
     29 H           5.7810    5.3382   -6.6136 H       1  LIG1        0.1153
     30 H          -1.6958    0.2601    0.4577 H       1  LIG1        0.1214
     31 H          -0.9911    4.3771    1.4671 H       1  LIG1        0.1216
     32 H           7.3031    4.5137   -4.8354 H       1  LIG1        0.1254
     33 H           3.3436    4.9047   -6.4588 H       1  LIG1        0.1259
     34 H           0.4567    0.1820   -0.7542 H       1  LIG1        0.1408
     35 H           1.1635    4.3116    0.2591 H       1  LIG1        0.1387
     36 H           7.3876   -3.4447    1.9068 H       1  LIG1        0.1311
     37 H           3.4183   -3.0243    3.5265 H       1  LIG1        0.1307
     38 H           6.3974    3.2600   -2.9092 H       1  LIG1        0.1419
     39 H           2.4247    3.6517   -4.5373 H       1  LIG1        0.1363
     40 H           6.9345   -1.6160    0.3193 H       1  LIG1        0.1300
     41 H           2.9636   -1.1950    1.9414 H       1  LIG1        0.1378
     42 H           6.1293   -4.0640    4.7139 H       1  LIG1        0.0578
     43 H           4.7905   -5.0149    4.0249 H       1  LIG1        0.0545
     44 H           6.4148   -5.1880    3.3623 H       1  LIG1        0.0548
     45 H           5.3962    0.0302   -0.5216 H       1  LIG1        0.3703
@<TRIPOS>BOND
     1     1     3   ar
     2     1     4   ar
     3     2     5   ar
     4     2     6   ar
     5     3     7   ar
     6     4     8   ar
     7     5    11   ar
     8     6    12   ar
     9     7    15   ar
    10     8    15   ar
    11     9    13   ar
    12     9    16   ar
    13    10    14   ar
    14    10    16   ar
    15    11    17   ar
    16    12    17   ar
    17    13    18   ar
    18    14    18   ar
    19    15    19    1
    20    16    22    1
    21    17    25    1
    22    18    26    1
    23    19    20    1
    24    19    23    2
    25    20    21    1
    26    20    24    2
    27    21    25   am
    28    21    27    2
    29    23    25    1
    30    24    26    1
    31     1    28    1
    32     2    29    1
    33     3    30    1
    34     4    31    1
    35     5    32    1
    36     6    33    1
    37     7    34    1
    38     8    35    1
    39     9    36    1
    40    10    37    1
    41    11    38    1
    42    12    39    1
    43    13    40    1
    44    14    41    1
    45    22    42    1
    46    22    43    1
    47    22    44    1
    48    26    45    1
