@<TRIPOS>MOLECULE
AG-690/33056021
 42 45 0 0 0
SMALL
USER_CHARGES

@<TRIPOS>ATOM
      1 C          -0.8769    1.8176    1.1674 C.ar    1  LIG1       -0.1020
      2 C           4.7865    4.9787   -5.4233 C.ar    1  LIG1       -0.0982
      3 C           0.1236    2.7155    1.5395 C.ar    1  LIG1       -0.0922
      4 C          -0.8674    1.2520   -0.1076 C.ar    1  LIG1       -0.0994
      5 C           4.8638    3.6131   -5.6965 C.ar    1  LIG1       -0.0896
      6 C           4.5667    5.4175   -4.1177 C.ar    1  LIG1       -0.0901
      7 C           5.3140   -2.7461    0.7013 C.ar    1  LIG1       -0.0735
      8 C           4.9223   -0.7711    2.0367 C.ar    1  LIG1       -0.0758
      9 C           1.1335    3.0478    0.6366 C.ar    1  LIG1       -0.0634
     10 C           0.1424    1.5844   -1.0106 C.ar    1  LIG1       -0.0735
     11 C           4.7213    2.6862   -4.6640 C.ar    1  LIG1       -0.0595
     12 C           4.4242    4.4906   -3.0851 C.ar    1  LIG1       -0.0602
     13 C           4.9201   -3.5484    1.7721 C.ar    1  LIG1       -0.0398
     14 C           4.5284   -1.5735    3.1076 C.ar    1  LIG1       -0.0410
     15 C           5.3152   -1.3574    0.8336 C.ar    1  LIG1       -0.0597
     16 C           1.1429    2.4823   -0.6385 C.ar    1  LIG1       -0.0311
     17 C           4.5015    3.1249   -3.3582 C.ar    1  LIG1       -0.0113
     18 C           4.5272   -2.9621    2.9753 C.ar    1  LIG1        0.0688
     19 C           4.9479    0.4126   -0.8345 C.2     1  LIG1        0.0967
     20 C           5.3750    1.2608   -1.9782 C.2     1  LIG1        0.1664
     21 C           3.2102    2.0708   -1.5173 C.2     1  LIG1        0.1115
     22 C           5.7259   -0.5205   -0.2828 C.2     1  LIG1       -0.0280
     23 N           2.1605    2.8174   -1.5492 N.2     1  LIG1       -0.3337
     24 N           4.3547    2.1694   -2.2941 N.am    1  LIG1       -0.2254
     25 O           6.4490    1.0885   -2.5410 O.2     1  LIG1       -0.4353
     26 F           4.1473   -3.7323    4.0031 F       1  LIG1       -0.2619
     27 S           3.3485    0.7837   -0.3468 S.3     1  LIG1       -0.0318
     28 H          -1.6631    1.5589    1.8706 H       1  LIG1        0.1193
     29 H           4.8982    5.7008   -6.2270 H       1  LIG1        0.1243
     30 H           0.1163    3.1556    2.5325 H       1  LIG1        0.1258
     31 H          -1.6465    0.5528   -0.3971 H       1  LIG1        0.1232
     32 H           5.0357    3.2711   -6.7128 H       1  LIG1        0.1262
     33 H           4.5076    6.4810   -3.9052 H       1  LIG1        0.1260
     34 H           5.6173   -3.2176   -0.2305 H       1  LIG1        0.1494
     35 H           4.9178    0.3097    2.1555 H       1  LIG1        0.1453
     36 H           1.9087    3.7487    0.9348 H       1  LIG1        0.1364
     37 H           0.1412    1.1386   -2.0019 H       1  LIG1        0.1224
     38 H           4.7835    1.6243   -4.8887 H       1  LIG1        0.1337
     39 H           4.2533    4.8442   -2.0713 H       1  LIG1        0.1324
     40 H           4.9189   -4.6293    1.6694 H       1  LIG1        0.1373
     41 H           4.2220   -1.1172    4.0445 H       1  LIG1        0.1377
     42 H           6.7280   -0.6576   -0.6543 H       1  LIG1        0.1934
@<TRIPOS>BOND
     1     1     3   ar
     2     1     4   ar
     3     2     5   ar
     4     2     6   ar
     5     3     9   ar
     6     4    10   ar
     7     5    11   ar
     8     6    12   ar
     9     7    13   ar
    10     7    15   ar
    11     8    14   ar
    12     8    15   ar
    13     9    16   ar
    14    10    16   ar
    15    11    17   ar
    16    12    17   ar
    17    13    18   ar
    18    14    18   ar
    19    15    22    1
    20    16    23    1
    21    17    24    1
    22    18    26    1
    23    19    20    1
    24    19    22    2
    25    19    27    1
    26    20    24   am
    27    20    25    2
    28    21    23    2
    29    21    24    1
    30    21    27    1
    31     1    28    1
    32     2    29    1
    33     3    30    1
    34     4    31    1
    35     5    32    1
    36     6    33    1
    37     7    34    1
    38     8    35    1
    39     9    36    1
    40    10    37    1
    41    11    38    1
    42    12    39    1
    43    13    40    1
    44    14    41    1
    45    22    42    1
