@<TRIPOS>MOLECULE
AG-690/11191348
 42 45 0 0 0
SMALL
USER_CHARGES

@<TRIPOS>ATOM
      1 C          -1.4713    2.3108    1.0485 C.ar    1  LIG1       -0.1009
      2 C           5.3581    4.7944   -5.7792 C.ar    1  LIG1       -0.1042
      3 C          -1.0606    1.1346    0.4214 C.ar    1  LIG1       -0.0943
      4 C          -0.6685    3.4500    0.9886 C.ar    1  LIG1       -0.0951
      5 C           6.2182    4.3331   -4.7828 C.ar    1  LIG1       -0.0968
      6 C           3.9884    4.5470   -5.6878 C.ar    1  LIG1       -0.0945
      7 C           4.1676   -2.6932    2.8153 C.ar    1  LIG1       -0.0839
      8 C           5.4008   -3.3445    2.8295 C.ar    1  LIG1       -0.0881
      9 C           0.1527    1.0974   -0.2656 C.ar    1  LIG1       -0.0691
     10 C           0.5448    3.4129    0.3016 C.ar    1  LIG1       -0.0697
     11 C           5.7086    3.6242   -3.6949 C.ar    1  LIG1       -0.0570
     12 C           3.4788    3.8381   -4.5999 C.ar    1  LIG1       -0.0555
     13 C           3.9348   -1.6601    1.9074 C.ar    1  LIG1       -0.0489
     14 C           6.4015   -2.9628    1.9359 C.ar    1  LIG1       -0.0623
     15 C           0.9555    2.2366   -0.3256 C.ar    1  LIG1       -0.0085
     16 C           4.3389    3.3767   -3.6035 C.ar    1  LIG1       -0.0019
     17 C           4.9354   -1.2783    1.0138 C.ar    1  LIG1        0.0026
     18 C           6.1688   -1.9296    1.0280 C.ar    1  LIG1        0.0258
     19 C           2.2294    2.1974   -1.0469 C.2     1  LIG1        0.0964
     20 C           3.3888    1.3223   -0.7751 C.2     1  LIG1        0.1828
     21 C           4.4471    1.6732   -1.7528 C.2     1  LIG1        0.1918
     22 N           2.5235    2.9472   -2.0709 N.2     1  LIG1       -0.2672
     23 N           3.4763    0.3930    0.1045 N.2     1  LIG1       -0.2613
     24 N           3.8212    2.6562   -2.4974 N.am    1  LIG1       -0.2169
     25 N           4.6713   -0.2353    0.1123 N.pl3   1  LIG1       -0.2716
     26 O           5.5299    1.1361   -1.7636 O.2     1  LIG1       -0.4532
     27 CL          7.4353   -1.4886   -0.0608 Cl      1  LIG1       -0.1293
     28 H          -2.4159    2.3397    1.5835 H       1  LIG1        0.1239
     29 H           5.7544    5.3472   -6.6261 H       1  LIG1        0.1157
     30 H          -1.6856    0.2475    0.4684 H       1  LIG1        0.1220
     31 H          -0.9884    4.3661    1.4766 H       1  LIG1        0.1218
     32 H           7.2846    4.5263   -4.8532 H       1  LIG1        0.1256
     33 H           3.3187    4.9073   -6.4634 H       1  LIG1        0.1261
     34 H           3.3885   -2.9906    3.5112 H       1  LIG1        0.1391
     35 H           5.5819   -4.1490    3.5365 H       1  LIG1        0.1320
     36 H           0.4630    0.1755   -0.7507 H       1  LIG1        0.1391
     37 H           1.1623    4.3066    0.2615 H       1  LIG1        0.1402
     38 H           6.3885    3.2696   -2.9243 H       1  LIG1        0.1421
     39 H           2.4095    3.6513   -4.5392 H       1  LIG1        0.1365
     40 H           2.9694   -1.1603    1.9060 H       1  LIG1        0.1476
     41 H           7.3571   -3.4806    1.9602 H       1  LIG1        0.1464
     42 H           5.4037    0.0366   -0.5343 H       1  LIG1        0.3724
@<TRIPOS>BOND
     1     1     3   ar
     2     1     4   ar
     3     2     5   ar
     4     2     6   ar
     5     3     9   ar
     6     4    10   ar
     7     5    11   ar
     8     6    12   ar
     9     7     8   ar
    10     7    13   ar
    11     8    14   ar
    12     9    15   ar
    13    10    15   ar
    14    11    16   ar
    15    12    16   ar
    16    13    17   ar
    17    14    18   ar
    18    15    19    1
    19    16    24    1
    20    17    18   ar
    21    17    25    1
    22    18    27    1
    23    19    20    1
    24    19    22    2
    25    20    21    1
    26    20    23    2
    27    21    24   am
    28    21    26    2
    29    22    24    1
    30    23    25    1
    31     1    28    1
    32     2    29    1
    33     3    30    1
    34     4    31    1
    35     5    32    1
    36     6    33    1
    37     7    34    1
    38     8    35    1
    39     9    36    1
    40    10    37    1
    41    11    38    1
    42    12    39    1
    43    13    40    1
    44    14    41    1
    45    25    42    1
