@<TRIPOS>MOLECULE
AH-487/40652398
 59 63 0 0 0
SMALL
USER_CHARGES

@<TRIPOS>ATOM
      1 C           5.1543   -3.3245    2.9777 C.ar    1  LIG1       -0.0617
      2 C          -1.2665    2.0953    1.1442 C.ar    1  LIG1       -0.0616
      3 C           5.8114   -3.4246    1.7515 C.ar    1  LIG1       -0.0611
      4 C           4.3468   -2.2196    3.2481 C.ar    1  LIG1       -0.0611
      5 C          -0.8549    0.9540    0.4561 C.ar    1  LIG1       -0.0598
      6 C          -0.4839    3.2496    1.1116 C.ar    1  LIG1       -0.0598
      7 C           5.6610   -2.4199    0.7956 C.ar    1  LIG1       -0.0526
      8 C           4.1966   -1.2150    2.2923 C.ar    1  LIG1       -0.0526
      9 C           4.0689    3.0402   -4.8820 C.ar    1  LIG1       -0.0522
     10 C           4.9870    4.6509   -3.3330 C.ar    1  LIG1       -0.0522
     11 C           4.5986    3.7649   -5.9496 C.ar    1  LIG1       -0.0574
     12 C           5.5168    5.3757   -4.4006 C.ar    1  LIG1       -0.0574
     13 C           0.3396    0.9668   -0.2644 C.ar    1  LIG1       -0.0362
     14 C           0.7103    3.2624    0.3912 C.ar    1  LIG1       -0.0362
     15 C           5.7305   -0.0042   -0.8172 C.ar    1  LIG1       -0.0233
     16 C           4.3367    1.6911   -1.7545 C.ar    1  LIG1        0.0585
     17 C           4.8536   -1.3152    1.0660 C.ar    1  LIG1        0.0004
     18 C           4.2631    3.4833   -3.5737 C.ar    1  LIG1        0.0028
     19 C           5.3225    4.9327   -5.7090 C.ar    1  LIG1       -0.0419
     20 C           5.5577    1.0053   -1.7643 C.ar    1  LIG1        0.0696
     21 C           1.1221    2.1211   -0.2969 C.ar    1  LIG1        0.0677
     22 C           4.6979   -0.2740    0.0747 C.ar    1  LIG1        0.0739
     23 C           3.7163    2.7336   -2.4710 C.ar    1  LIG1        0.1030
     24 C           3.3917    1.3212   -0.8103 C.ar    1  LIG1        0.1650
     25 C           4.7665    6.1874   -7.8213 C.3     1  LIG1       -0.0560
     26 C           6.8884    4.8407   -7.6802 C.3     1  LIG1       -0.0560
     27 C           6.6830    6.9970   -6.4597 C.3     1  LIG1       -0.0560
     28 C           5.8895    5.7061   -6.8509 C.3     1  LIG1       -0.0127
     29 C           6.6644    1.2992   -2.7227 C.3     1  LIG1        0.4182
     30 N           3.5014    0.3603    0.1237 N.ar    1  LIG1       -0.2272
     31 N           2.4852    3.0070   -2.0262 N.ar    1  LIG1       -0.1638
     32 N           2.3158    2.1330   -1.0175 N.ar    1  LIG1       -0.2134
     33 F           7.7626    0.5075   -2.5478 F       1  LIG1       -0.1659
     34 F           6.3102    1.1353   -4.0309 F       1  LIG1       -0.1659
     35 F           7.1166    2.5824   -2.6222 F       1  LIG1       -0.1659
     36 H           5.2702   -4.1076    3.7212 H       1  LIG1        0.0618
     37 H          -2.1971    2.0865    1.7036 H       1  LIG1        0.0618
     38 H           6.4386   -4.2855    1.5400 H       1  LIG1        0.0618
     39 H           3.8339   -2.1417    4.2023 H       1  LIG1        0.0618
     40 H          -1.4647    0.0557    0.4801 H       1  LIG1        0.0618
     41 H          -0.8061    4.1384    1.6465 H       1  LIG1        0.0618
     42 H           6.1796   -2.5128   -0.1559 H       1  LIG1        0.0624
     43 H           3.5634   -0.3599    2.5170 H       1  LIG1        0.0624
     44 H           3.5063    2.1323   -5.0867 H       1  LIG1        0.0624
     45 H           5.1471    5.0094   -2.3188 H       1  LIG1        0.0624
     46 H           4.4434    3.4125   -6.9658 H       1  LIG1        0.0621
     47 H           6.0797    6.2844   -4.2045 H       1  LIG1        0.0621
     48 H           0.6485    0.0707   -0.7970 H       1  LIG1        0.0639
     49 H           1.3103    4.1690    0.3736 H       1  LIG1        0.0639
     50 H           6.6602   -0.5664   -0.7811 H       1  LIG1        0.0645
     51 H           5.1572    6.7595   -8.6710 H       1  LIG1        0.0238
     52 H           4.2049    5.3428   -8.2354 H       1  LIG1        0.0238
     53 H           4.0532    6.8271   -7.2881 H       1  LIG1        0.0238
     54 H           7.3072    5.4056   -8.5203 H       1  LIG1        0.0238
     55 H           7.7345    4.4809   -7.0830 H       1  LIG1        0.0238
     56 H           6.3768    3.9644   -8.0955 H       1  LIG1        0.0238
     57 H           7.0794    7.5301   -7.3323 H       1  LIG1        0.0238
     58 H           6.0401    7.7005   -5.9178 H       1  LIG1        0.0238
     59 H           7.5369    6.7503   -5.8180 H       1  LIG1        0.0238
@<TRIPOS>BOND
     1     1     3   ar
     2     1     4   ar
     3     2     5   ar
     4     2     6   ar
     5     3     7   ar
     6     4     8   ar
     7     5    13   ar
     8     6    14   ar
     9     7    17   ar
    10     8    17   ar
    11     9    11   ar
    12     9    18   ar
    13    10    12   ar
    14    10    18   ar
    15    11    19   ar
    16    12    19   ar
    17    13    21   ar
    18    14    21   ar
    19    15    20   ar
    20    15    22   ar
    21    16    20   ar
    22    16    23   ar
    23    16    24   ar
    24    17    22    1
    25    18    23    1
    26    19    28    1
    27    20    29    1
    28    21    32    1
    29    22    30   ar
    30    23    31   ar
    31    24    30   ar
    32    24    32   ar
    33    25    28    1
    34    26    28    1
    35    27    28    1
    36    29    33    1
    37    29    34    1
    38    29    35    1
    39    31    32   ar
    40     1    36    1
    41     2    37    1
    42     3    38    1
    43     4    39    1
    44     5    40    1
    45     6    41    1
    46     7    42    1
    47     8    43    1
    48     9    44    1
    49    10    45    1
    50    11    46    1
    51    12    47    1
    52    13    48    1
    53    14    49    1
    54    15    50    1
    55    25    51    1
    56    25    52    1
    57    25    53    1
    58    26    54    1
    59    26    55    1
    60    26    56    1
    61    27    57    1
    62    27    58    1
    63    27    59    1
