@<TRIPOS>MOLECULE
DB00669
 42 43 0 0 0
SMALL
USER_CHARGES

@<TRIPOS>ATOM
      1 C           7.4218   -3.5720    1.3961 C.ar    1  LIG1       -0.0556
      2 C           7.7277   -2.2081    1.3962 C.ar    1  LIG1       -0.0399
      3 C           5.0403   -3.0970    1.3961 C.ar    1  LIG1       -0.0480
      4 C           5.3726    0.5430    1.3968 C.ar    1  LIG1       -0.0034
      5 C           5.3242   -1.7168    1.3962 C.ar    1  LIG1        0.0004
      6 C           6.0996   -4.0119    1.3961 C.ar    1  LIG1       -0.0287
      7 C           4.5242   -0.5401    1.3964 C.ar    1  LIG1       -0.0268
      8 C           6.6587   -1.3051    1.3963 C.ar    1  LIG1        0.0375
      9 C           4.4217   -8.3496    3.8894 C.3     1  LIG1        0.0104
     10 C           0.4120   -1.1908    0.1538 C.3     1  LIG1       -0.1038
     11 C           0.4143    0.9050    1.4986 C.3     1  LIG1       -0.1038
     12 C           3.0485   -0.4803    1.3964 C.3     1  LIG1       -0.0408
     13 C           5.8072   -5.4757    1.3962 C.3     1  LIG1        0.0585
     14 C           2.4367    0.2586    0.1975 C.3     1  LIG1       -0.0875
     15 N           6.6579    0.0716    1.3965 N.ar    1  LIG1       -0.3203
     16 N           4.6710   -7.5321    2.6885 N.3     1  LIG1       -0.2971
     17 N           0.9556    0.2121    0.2721 N.4     1  LIG1        0.3782
     18 O           5.7704   -5.5986    4.0103 O.2     1  LIG1       -0.4811
     19 O           3.6100   -5.1963    2.7746 O.2     1  LIG1       -0.4811
     20 S           4.9075   -5.8478    2.8664 S.O2    1  LIG1       -0.1930
     21 H           8.2364   -4.2929    1.3953 H       1  LIG1        0.0627
     22 H           8.7575   -1.8666    1.3965 H       1  LIG1        0.0643
     23 H           4.0113   -3.4467    1.3959 H       1  LIG1        0.0633
     24 H           5.1787    1.6067    1.3977 H       1  LIG1        0.0792
     25 H           5.0041   -7.9672    4.7317 H       1  LIG1        0.0443
     26 H           4.7088   -9.3885    3.7057 H       1  LIG1        0.0443
     27 H           3.3610   -8.3204    4.1529 H       1  LIG1        0.0443
     28 H           0.7906   -1.7679    0.9994 H       1  LIG1        0.0022
     29 H          -0.6776   -1.1299    0.1763 H       1  LIG1        0.0022
     30 H           0.7625   -1.6061   -0.7930 H       1  LIG1        0.0022
     31 H           0.7929    0.3764    2.3753 H       1  LIG1        0.0022
     32 H           0.7660    1.9383    1.4810 H       1  LIG1        0.0022
     33 H          -0.6755    0.8605    1.4538 H       1  LIG1        0.0022
     34 H           2.6332   -1.5056    1.3960 H       1  LIG1        0.0297
     35 H           2.6608   -0.0256    2.3277 H       1  LIG1        0.0297
     36 H           6.7202   -6.0810    1.3963 H       1  LIG1        0.0530
     37 H           5.1937   -5.7761    0.5397 H       1  LIG1        0.0530
     38 H           2.7118   -0.2140   -0.7501 H       1  LIG1        0.0062
     39 H           2.7212    1.3149    0.1717 H       1  LIG1        0.0062
     40 H           7.4867    0.6498    1.3967 H       1  LIG1        0.1522
     41 H           4.1502   -7.8415    1.8576 H       1  LIG1        0.1632
     42 H           0.5815    0.7331   -0.5393 H       1  LIG1       -0.0829
@<TRIPOS>BOND
     1     1     2   ar
     2     1     6   ar
     3     2     8   ar
     4     3     5   ar
     5     3     6   ar
     6     4     7   ar
     7     4    15   ar
     8     5     7   ar
     9     5     8   ar
    10     6    13    1
    11     7    12    1
    12     8    15   ar
    13     9    16    1
    14    10    17    1
    15    11    17    1
    16    12    14    1
    17    13    20    1
    18    14    17    1
    19    16    20    1
    20    18    20    2
    21    19    20    2
    22     1    21    1
    23     2    22    1
    24     3    23    1
    25     4    24    1
    26     9    25    1
    27     9    26    1
    28     9    27    1
    29    10    28    1
    30    10    29    1
    31    10    30    1
    32    11    31    1
    33    11    32    1
    34    11    33    1
    35    12    34    1
    36    12    35    1
    37    13    36    1
    38    13    37    1
    39    14    38    1
    40    14    39    1
    41    15    40    1
    42    16    41    1
    43    17    42    1
