@<TRIPOS>MOLECULE
DB00730
 21 23 0 0 0
SMALL
USER_CHARGES

@<TRIPOS>ATOM
      1 C           7.0075   -4.0797    1.5404 C.ar    1  LIG1       -0.0600
      2 C           8.0242   -3.1531    1.7199 C.ar    1  LIG1       -0.0602
      3 C           5.7192   -3.6643    1.2907 C.ar    1  LIG1       -0.0344
      4 C           7.7585   -1.8013    1.6510 C.ar    1  LIG1       -0.0385
      5 C           2.2404    0.4703    0.5800 C.ar    1  LIG1        0.0061
      6 C           3.0375    2.9964    0.6849 C.ar    1  LIG1        0.0648
      7 C           5.4321   -2.2979    1.2172 C.ar    1  LIG1        0.0867
      8 C           6.4665   -1.3634    1.3999 C.ar    1  LIG1        0.0576
      9 C           3.5601    0.7616    0.8199 C.ar    1  LIG1        0.1106
     10 C           4.5537   -0.3117    1.0231 C.ar    1  LIG1        0.1490
     11 N           3.9124    2.0389    0.8636 N.ar    1  LIG1       -0.2454
     12 N           4.2923   -1.5968    0.9974 N.ar    1  LIG1       -0.2291
     13 N           5.8857   -0.1150    1.2724 N.ar    1  LIG1       -0.2960
     14 S           1.5633    2.1167    0.4262 S.2     1  LIG1       -0.0836
     15 H           7.2285   -5.1354    1.5974 H       1  LIG1        0.0623
     16 H           9.0307   -3.4925    1.9152 H       1  LIG1        0.0623
     17 H           4.9327   -4.3914    1.1523 H       1  LIG1        0.0646
     18 H           8.5548   -1.0854    1.7913 H       1  LIG1        0.0643
     19 H           1.7478   -0.4879    0.5054 H       1  LIG1        0.0725
     20 H           3.1936    4.0650    0.6953 H       1  LIG1        0.0920
     21 H           6.3376    0.7402    1.3455 H       1  LIG1        0.1544
@<TRIPOS>BOND
     1     1     2   ar
     2     1     3   ar
     3     2     4   ar
     4     3     7   ar
     5     4     8   ar
     6     5     9   ar
     7     5    14   ar
     8     6    11   ar
     9     6    14   ar
    10     7     8   ar
    11     7    12   ar
    12     8    13   ar
    13     9    10    1
    14     9    11   ar
    15    10    12   ar
    16    10    13   ar
    17     1    15    1
    18     2    16    1
    19     3    17    1
    20     4    18    1
    21     5    19    1
    22     6    20    1
    23    13    21    1
