@<TRIPOS>MOLECULE
DB00830
 29 30 0 0 0
SMALL
USER_CHARGES

@<TRIPOS>ATOM
      1 C           7.1741   -1.2352    1.6102 C.ar    1  LIG1       -0.0622
      2 C           6.9459    0.1335    1.7528 C.ar    1  LIG1       -0.0619
      3 C           6.1111   -2.0941    1.3304 C.ar    1  LIG1       -0.0619
      4 C           5.6547    0.6432    1.6157 C.ar    1  LIG1       -0.0565
      5 C           4.8200   -1.5843    1.1934 C.ar    1  LIG1       -0.0565
      6 C           4.5918   -0.2156    1.3361 C.ar    1  LIG1       -0.0209
      7 C           1.1110    1.6434   -0.2700 C.3     1  LIG1       -0.0690
      8 C           2.0473    2.3323    0.7041 C.3     1  LIG1        0.0323
      9 C           3.2111    0.3287    1.1896 C.3     1  LIG1        0.0700
     10 C           2.3497   -0.5008    0.2200 C.3     1  LIG1       -0.0527
     11 C           2.9407   -0.6857   -1.1781 C.3     1  LIG1       -0.0751
     12 N           1.0172    0.1964    0.0976 N.4     1  LIG1        0.3859
     13 O           3.3204    1.6830    0.7258 O.3     1  LIG1       -0.3771
     14 H           8.1797   -1.6318    1.7155 H       1  LIG1        0.0622
     15 H           7.7735    0.8025    1.9695 H       1  LIG1        0.0623
     16 H           6.2887   -3.1595    1.2183 H       1  LIG1        0.0623
     17 H           5.4863    1.7110    1.7287 H       1  LIG1        0.0626
     18 H           3.9980   -2.2611    0.9756 H       1  LIG1        0.0626
     19 H           0.0989    2.0551   -0.2265 H       1  LIG1        0.0077
     20 H           1.4791    1.6916   -1.2986 H       1  LIG1        0.0077
     21 H           2.2080    3.3694    0.3935 H       1  LIG1        0.0547
     22 H           1.6305    2.3535    1.7181 H       1  LIG1        0.0547
     23 H           2.7601    0.3351    2.1899 H       1  LIG1        0.0637
     24 H           2.1334   -1.4870    0.6475 H       1  LIG1        0.0117
     25 H           3.1606    0.2862   -1.6153 H       1  LIG1        0.0215
     26 H           2.2283   -1.2103   -1.8116 H       1  LIG1        0.0215
     27 H           3.8590   -1.2661   -1.1148 H       1  LIG1        0.0215
     28 H           0.5192    0.1147    0.9953 H       1  LIG1       -0.0855
     29 H           0.4259   -0.2954   -0.5867 H       1  LIG1       -0.0855
@<TRIPOS>BOND
     1     1     2   ar
     2     1     3   ar
     3     2     4   ar
     4     3     5   ar
     5     4     6   ar
     6     5     6   ar
     7     6     9    1
     8     7     8    1
     9     7    12    1
    10     8    13    1
    11     9    10    1
    12     9    13    1
    13    10    11    1
    14    10    12    1
    15     1    14    1
    16     2    15    1
    17     3    16    1
    18     4    17    1
    19     5    18    1
    20     7    19    1
    21     7    20    1
    22     8    21    1
    23     8    22    1
    24     9    23    1
    25    10    24    1
    26    11    25    1
    27    11    26    1
    28    11    27    1
    29    12    28    1
    30    12    29    1
