@<TRIPOS>MOLECULE
DB00370
 40 43 0 0 0
SMALL
USER_CHARGES

@<TRIPOS>ATOM
      1 C           6.6139   -4.0063    1.1044 C.ar    1  LIG1       -0.0619
      2 C           7.7053   -3.1918    0.8663 C.ar    1  LIG1       -0.0619
      3 C           1.9431    0.6464   -0.1636 C.ar    1  LIG1       -0.0434
      4 C           5.4237   -3.4371    1.4954 C.ar    1  LIG1       -0.0583
      5 C           7.5811   -1.8316    1.0207 C.ar    1  LIG1       -0.0569
      6 C           2.3464   -0.4885    0.5293 C.ar    1  LIG1       -0.0537
      7 C           2.6776    1.8078   -0.0284 C.ar    1  LIG1        0.0291
      8 C           5.2977   -2.0554    1.6576 C.ar    1  LIG1       -0.0385
      9 C           6.3720   -1.2458    1.4165 C.ar    1  LIG1       -0.0259
     10 C           3.4746   -0.4000    1.3257 C.ar    1  LIG1       -0.0032
     11 C           4.1742    0.7804    1.4099 C.ar    1  LIG1        0.1238
     12 C           3.9441   -1.5894    2.1062 C.3     1  LIG1        0.0012
     13 C           5.5612    2.3543    2.2225 C.3     1  LIG1       -0.0013
     14 C           6.8605    2.6639    2.9612 C.3     1  LIG1       -0.0750
     15 C           7.7624    0.5955    2.2051 C.3     1  LIG1       -0.0678
     16 C           6.4274    0.2533    1.5260 C.3     1  LIG1        0.0349
     17 C           9.2449    2.3550    2.8875 C.3     1  LIG1       -0.1033
     18 N           3.7496    1.8510    0.7357 N.ar    1  LIG1       -0.2411
     19 N           5.3230    0.9022    2.1697 N.pl3   1  LIG1       -0.3121
     20 N           7.9727    2.0459    2.2211 N.4     1  LIG1        0.3824
     21 H           6.6946   -5.0766    0.9851 H       1  LIG1        0.0623
     22 H           8.6483   -3.6209    0.5617 H       1  LIG1        0.0623
     23 H           1.0690    0.6206   -0.7974 H       1  LIG1        0.0639
     24 H           4.5696   -4.0717    1.6810 H       1  LIG1        0.0626
     25 H           8.4362   -1.1995    0.8323 H       1  LIG1        0.0626
     26 H           1.7949   -1.4136    0.4484 H       1  LIG1        0.0627
     27 H           2.3674    2.6964   -0.5580 H       1  LIG1        0.0840
     28 H           3.2289   -2.4020    1.9786 H       1  LIG1        0.0367
     29 H           3.9923   -1.3240    3.1623 H       1  LIG1        0.0367
     30 H           5.6244    2.7446    1.2068 H       1  LIG1        0.0450
     31 H           4.7311    2.8353    2.7398 H       1  LIG1        0.0450
     32 H           6.8168    2.2523    3.9696 H       1  LIG1        0.0075
     33 H           7.0067    3.7430    3.0106 H       1  LIG1        0.0075
     34 H           7.7522    0.2216    3.2289 H       1  LIG1        0.0081
     35 H           8.5768    0.1194    1.6591 H       1  LIG1        0.0081
     36 H           6.4807    0.6395    0.5081 H       1  LIG1        0.0537
     37 H          10.0629    1.8773    2.3482 H       1  LIG1        0.0022
     38 H           9.3972    3.4342    2.8972 H       1  LIG1        0.0022
     39 H           9.2184    1.9825    3.9116 H       1  LIG1        0.0022
     40 H           7.9895    2.3979    1.2756 H       1  LIG1       -0.0823
@<TRIPOS>BOND
     1     1     2   ar
     2     1     4   ar
     3     2     5   ar
     4     3     6   ar
     5     3     7   ar
     6     4     8   ar
     7     5     9   ar
     8     6    10   ar
     9     7    18   ar
    10     8     9   ar
    11     8    12    1
    12     9    16    1
    13    10    11   ar
    14    10    12    1
    15    11    18   ar
    16    11    19    1
    17    13    14    1
    18    13    19    1
    19    14    20    1
    20    15    16    1
    21    15    20    1
    22    16    19    1
    23    17    20    1
    24     1    21    1
    25     2    22    1
    26     3    23    1
    27     4    24    1
    28     5    25    1
    29     6    26    1
    30     7    27    1
    31    12    28    1
    32    12    29    1
    33    13    30    1
    34    13    31    1
    35    14    32    1
    36    14    33    1
    37    15    34    1
    38    15    35    1
    39    16    36    1
    40    17    37    1
    41    17    38    1
    42    17    39    1
    43    20    40    1
