@<TRIPOS>MOLECULE
DB00749
 41 43 0 0 0
SMALL
USER_CHARGES

@<TRIPOS>ATOM
      1 C           6.1128   -4.0963    1.3581 C.ar    1  LIG1        0.0000
      2 C           5.0821   -3.1954    1.0667 C.ar    1  LIG1        0.0000
      3 C           7.3873   -3.6396    1.6869 C.ar    1  LIG1        0.0000
      4 C           5.3448   -1.8116    1.1088 C.ar    1  LIG1        0.0000
      5 C           4.5704   -0.6436    0.8785 C.ar    1  LIG1        0.0000
      6 C           7.6725   -2.2721    1.7357 C.ar    1  LIG1        0.0000
      7 C           6.6335   -1.3813    1.4430 C.ar    1  LIG1        0.0000
      8 C           5.3835    0.4505    1.0827 C.ar    1  LIG1        0.0000
      9 C           5.0689    1.9566    3.5023 C.2     1  LIG1        0.0000
     10 C           3.1466   -0.4673    0.4990 C.3     1  LIG1        0.0000
     11 C           2.9522    0.9428   -0.0770 C.3     1  LIG1        0.0000
     12 C           4.9763    1.8844    0.9296 C.3     1  LIG1        0.0000
     13 C           9.8446   -1.3664    0.8707 C.3     1  LIG1        0.0000
     14 C           5.2241    3.9580   -0.4443 C.3     1  LIG1        0.0000
     15 C           9.0490   -1.8191    2.0919 C.3     1  LIG1        0.0000
     16 C           5.3024    2.6937    2.1881 C.3     1  LIG1        0.0000
     17 C           5.6314    2.5304   -0.2944 C.3     1  LIG1        0.0000
     18 N           6.6300   -0.0025    1.4148 N.ar    1  LIG1        0.0000
     19 O           3.8904    1.5807    3.7497 O.co2   1  LIG1       -0.5000
     20 O           6.1182    1.8122    4.1943 O.co2   1  LIG1       -0.5000
     21 O           3.5306    1.9326    0.7911 O.3     1  LIG1        0.0000
     22 H           5.9151   -5.1644    1.3265 H       1  LIG1        0.0000
     23 H           4.0936   -3.5666    0.8114 H       1  LIG1        0.0000
     24 H           8.1668   -4.3657    1.9075 H       1  LIG1        0.0000
     25 H           2.8288   -1.2201   -0.2292 H       1  LIG1        0.0000
     26 H           2.5325   -0.5815    1.4004 H       1  LIG1        0.0000
     27 H           3.3836    1.0309   -1.0801 H       1  LIG1        0.0000
     28 H           1.8826    1.1603   -0.1621 H       1  LIG1        0.0000
     29 H           9.9089   -2.1659    0.1249 H       1  LIG1        0.0000
     30 H          10.8636   -1.0854    1.1551 H       1  LIG1        0.0000
     31 H           9.3740   -0.4996    0.3943 H       1  LIG1        0.0000
     32 H           4.1343    4.0178   -0.5481 H       1  LIG1        0.0000
     33 H           5.6752    4.4027   -1.3377 H       1  LIG1        0.0000
     34 H           5.5142    4.5426    0.4351 H       1  LIG1        0.0000
     35 H           9.0044   -0.9932    2.8194 H       1  LIG1        0.0000
     36 H           9.5986   -2.6269    2.6009 H       1  LIG1        0.0000
     37 H           4.6902    3.5975    2.1819 H       1  LIG1        0.0000
     38 H           6.3504    2.9956    2.1392 H       1  LIG1        0.0000
     39 H           6.7163    2.4645   -0.1905 H       1  LIG1        0.0000
     40 H           5.3451    1.9689   -1.1859 H       1  LIG1        0.0000
     41 H           7.4308    0.5825    1.6101 H       1  LIG1        0.0000
@<TRIPOS>BOND
     1     1     2   ar
     2     1     3   ar
     3     2     4   ar
     4     3     6   ar
     5     4     5   ar
     6     4     7   ar
     7     5     8   ar
     8     5    10    1
     9     6     7   ar
    10     6    15    1
    11     7    18   ar
    12     8    12    1
    13     8    18   ar
    14     9    16    1
    15     9    19   ar
    16     9    20   ar
    17    10    11    1
    18    11    21    1
    19    12    16    1
    20    12    17    1
    21    12    21    1
    22    13    15    1
    23    14    17    1
    24     1    22    1
    25     2    23    1
    26     3    24    1
    27    10    25    1
    28    10    26    1
    29    11    27    1
    30    11    28    1
    31    13    29    1
    32    13    30    1
    33    13    31    1
    34    14    32    1
    35    14    33    1
    36    14    34    1
    37    15    35    1
    38    15    36    1
    39    16    37    1
    40    16    38    1
    41    17    39    1
    42    17    40    1
    43    18    41    1
