@<TRIPOS>MOLECULE
DB00998
 36 38 0 0 0
SMALL
USER_CHARGES

@<TRIPOS>ATOM
      1 C           7.7533   -3.4485    1.7009 C.ar    1  LIG1       -0.0478
      2 C           7.7862   -2.0859    1.6768 C.ar    1  LIG1       -0.0394
      3 C           5.3812   -3.4333    1.2234 C.ar    1  LIG1       -0.0402
      4 C           5.4098   -2.0408    1.2027 C.ar    1  LIG1        0.0012
      5 C           6.5548   -4.1385    1.4702 C.ar    1  LIG1        0.0375
      6 C           4.4059   -1.0039    0.9811 C.ar    1  LIG1       -0.0233
      7 C           6.6228   -1.3591    1.4320 C.ar    1  LIG1        0.0377
      8 C           5.0286    0.1851    1.0843 C.ar    1  LIG1        0.0107
      9 C           6.5370   -5.6147    1.4953 C.2     1  LIG1        0.2404
     10 C           2.9389   -1.1823    0.6869 C.3     1  LIG1       -0.0381
     11 C           4.3277    1.5143    0.9202 C.3     1  LIG1       -0.0159
     12 C           2.8174    1.2881    1.0504 C.3     1  LIG1       -0.0602
     13 C           2.3911    0.1387    0.1328 C.3     1  LIG1       -0.0771
     14 C           0.4070    1.2938   -0.5626 C.3     1  LIG1       -0.1058
     15 N           6.3537   -0.0129    1.3540 N.ar    1  LIG1       -0.3175
     16 N           7.6736   -6.2984    1.7345 N.am    1  LIG1       -0.3251
     17 N           0.9246    0.0757    0.0747 N.4     1  LIG1        0.3810
     18 O           5.4980   -6.2136    1.2953 O.2     1  LIG1       -0.2721
     19 H           8.6609   -4.0019    1.8919 H       1  LIG1        0.0631
     20 H           8.7173   -1.5675    1.8517 H       1  LIG1        0.0643
     21 H           4.4554   -3.9615    1.0490 H       1  LIG1        0.0638
     22 H           2.8066   -1.9725   -0.0520 H       1  LIG1        0.0300
     23 H           2.4105   -1.4419    1.6043 H       1  LIG1        0.0300
     24 H           4.6629    2.2032    1.6954 H       1  LIG1        0.0328
     25 H           4.5524    1.9278   -0.0630 H       1  LIG1        0.0328
     26 H           2.5755    1.0371    2.0832 H       1  LIG1        0.0254
     27 H           2.2881    2.1969    0.7641 H       1  LIG1        0.0254
     28 H           2.7886    0.3058   -0.8684 H       1  LIG1        0.0093
     29 H          -0.6812    1.2470   -0.6056 H       1  LIG1        0.0017
     30 H           0.7105    2.1648    0.0182 H       1  LIG1        0.0017
     31 H           0.8075    1.3735   -1.5732 H       1  LIG1        0.0017
     32 H           7.0085    0.6928    1.4728 H       1  LIG1        0.1525
     33 H           7.6628   -7.2682    1.7469 H       1  LIG1        0.1458
     34 H           8.5026   -5.8205    1.8940 H       1  LIG1        0.1458
     35 H           0.6437   -0.7306   -0.4629 H       1  LIG1       -0.0862
     36 H           0.5539    0.0019    1.0102 H       1  LIG1       -0.0862
@<TRIPOS>BOND
     1     1     2   ar
     2     1     5   ar
     3     2     7   ar
     4     3     4   ar
     5     3     5   ar
     6     4     6   ar
     7     4     7   ar
     8     5     9    1
     9     6     8   ar
    10     6    10    1
    11     7    15   ar
    12     8    11    1
    13     8    15   ar
    14     9    16   am
    15     9    18    2
    16    10    13    1
    17    11    12    1
    18    12    13    1
    19    13    17    1
    20    14    17    1
    21     1    19    1
    22     2    20    1
    23     3    21    1
    24    10    22    1
    25    10    23    1
    26    11    24    1
    27    11    25    1
    28    12    26    1
    29    12    27    1
    30    13    28    1
    31    14    29    1
    32    14    30    1
    33    14    31    1
    34    15    32    1
    35    16    33    1
    36    16    34    1
    37    17    35    1
    38    17    36    1
