@<TRIPOS>MOLECULE
DB00573
 31 32 0 0 0
SMALL
USER_CHARGES

@<TRIPOS>ATOM
      1 C           6.3181   -6.7776    1.2183 C.ar    1  LIG1        0.0000
      2 C           7.0457   -5.7045    0.7038 C.ar    1  LIG1        0.0000
      3 C           5.4651   -6.5847    2.3050 C.ar    1  LIG1        0.0000
      4 C           6.7943   -0.1595    0.7752 C.ar    1  LIG1        0.0000
      5 C           5.5233    0.2534    0.3758 C.ar    1  LIG1        0.0000
      6 C           6.9205   -4.4386    1.2761 C.ar    1  LIG1        0.0000
      7 C           5.3398   -5.3189    2.8773 C.ar    1  LIG1        0.0000
      8 C           6.9358   -1.2492    1.6345 C.ar    1  LIG1        0.0000
      9 C           4.5349   -1.5130    1.6949 C.ar    1  LIG1        0.0000
     10 C           4.3935   -0.4234    0.8356 C.ar    1  LIG1        0.0000
     11 C           6.0676   -4.2457    2.3628 C.ar    1  LIG1        0.0000
     12 C           5.8060   -1.9259    2.0944 C.ar    1  LIG1        0.0000
     13 C           3.0769    1.5196    0.0320 C.2     1  LIG1        0.0000
     14 C           1.9509   -0.3074    1.4472 C.3     1  LIG1        0.0000
     15 C           3.0347    0.0184    0.4087 C.3     1  LIG1        0.0000
     16 O           3.4127    2.2871    0.9810 O.co2   1  LIG1       -0.5000
     17 O           2.7814    1.8120   -1.1602 O.co2   1  LIG1       -0.5000
     18 O           5.9441   -2.9896    2.9324 O.3     1  LIG1        0.0000
     19 H           6.4150   -7.7632    0.7726 H       1  LIG1        0.0000
     20 H           7.7102   -5.8545   -0.1423 H       1  LIG1        0.0000
     21 H           4.8986   -7.4208    2.7050 H       1  LIG1        0.0000
     22 H           7.6738    0.3671    0.4168 H       1  LIG1        0.0000
     23 H           5.4230    1.1037   -0.2936 H       1  LIG1        0.0000
     24 H           7.4913   -3.6072    0.8715 H       1  LIG1        0.0000
     25 H           4.6753   -5.1749    3.7248 H       1  LIG1        0.0000
     26 H           7.9285   -1.5658    1.9420 H       1  LIG1        0.0000
     27 H           3.6560   -2.0425    2.0551 H       1  LIG1        0.0000
     28 H           2.1783    0.1778    2.4031 H       1  LIG1        0.0000
     29 H           0.9654    0.0410    1.1191 H       1  LIG1        0.0000
     30 H           1.8718   -1.3842    1.6333 H       1  LIG1        0.0000
     31 H           2.7324   -0.5050   -0.5191 H       1  LIG1        0.0000
@<TRIPOS>BOND
     1     1     2   ar
     2     1     3   ar
     3     2     6   ar
     4     3     7   ar
     5     4     5   ar
     6     4     8   ar
     7     5    10   ar
     8     6    11   ar
     9     7    11   ar
    10     8    12   ar
    11     9    10   ar
    12     9    12   ar
    13    10    15    1
    14    11    18    1
    15    12    18    1
    16    13    15    1
    17    13    16   ar
    18    13    17   ar
    19    14    15    1
    20     1    19    1
    21     2    20    1
    22     3    21    1
    23     4    22    1
    24     5    23    1
    25     6    24    1
    26     7    25    1
    27     8    26    1
    28     9    27    1
    29    14    28    1
    30    14    29    1
    31    14    30    1
    32    15    31    1
