@<TRIPOS>MOLECULE
DB00821
 30 32 0 0 0
SMALL
USER_CHARGES

@<TRIPOS>ATOM
      1 C           2.9359   -1.1237    1.4701 C.ar    1  LIG1        0.0000
      2 C           2.2059    0.0654    1.3624 C.ar    1  LIG1        0.0000
      3 C           7.8295   -2.0660    1.4430 C.ar    1  LIG1        0.0000
      4 C           7.8095   -3.4551    1.5929 C.ar    1  LIG1        0.0000
      5 C           5.3833   -3.4673    1.6570 C.ar    1  LIG1        0.0000
      6 C           4.2503    1.3613    1.1696 C.ar    1  LIG1        0.0000
      7 C           4.3452   -1.0763    1.4279 C.ar    1  LIG1        0.0000
      8 C           5.3773   -2.0646    1.5068 C.ar    1  LIG1        0.0000
      9 C           2.8556    1.2885    1.2144 C.ar    1  LIG1        0.0000
     10 C           6.5993   -1.3996    1.4036 C.ar    1  LIG1        0.0000
     11 C           4.9666    0.1638    1.2788 C.ar    1  LIG1        0.0000
     12 C           6.6057   -4.1477    1.6984 C.ar    1  LIG1        0.0000
     13 C           2.2677    3.1636   -0.2996 C.2     1  LIG1        0.0000
     14 C           2.3298    3.5281    2.2448 C.3     1  LIG1        0.0000
     15 C           2.0522    2.5420    1.1012 C.3     1  LIG1        0.0000
     16 N           6.3233   -0.0596    1.2671 N.ar    1  LIG1        0.0000
     17 O           2.5401    2.3247   -1.2077 O.co2   1  LIG1       -0.5000
     18 O           2.1481    4.4178   -0.3859 O.co2   1  LIG1       -0.5000
     19 CL          6.6175   -5.8605    1.8825 Cl      1  LIG1        0.0000
     20 H           2.4149   -2.0700    1.5861 H       1  LIG1        0.0000
     21 H           1.1198    0.0224    1.3958 H       1  LIG1        0.0000
     22 H           8.7673   -1.5267    1.3609 H       1  LIG1        0.0000
     23 H           8.7567   -3.9893    1.6257 H       1  LIG1        0.0000
     24 H           4.4443   -4.0085    1.7406 H       1  LIG1        0.0000
     25 H           4.7640    2.3106    1.0544 H       1  LIG1        0.0000
     26 H           3.3891    3.8083    2.2607 H       1  LIG1        0.0000
     27 H           1.7409    4.4450    2.1321 H       1  LIG1        0.0000
     28 H           2.0858    3.1009    3.2237 H       1  LIG1        0.0000
     29 H           0.9710    2.3114    1.1543 H       1  LIG1        0.0000
     30 H           7.0231    0.6633    1.1725 H       1  LIG1        0.0000
@<TRIPOS>BOND
     1     1     2   ar
     2     1     7   ar
     3     2     9   ar
     4     3     4   ar
     5     3    10   ar
     6     4    12   ar
     7     5     8   ar
     8     5    12   ar
     9     6     9   ar
    10     6    11   ar
    11     7     8   ar
    12     7    11   ar
    13     8    10   ar
    14     9    15    1
    15    10    16   ar
    16    11    16   ar
    17    12    19    1
    18    13    15    1
    19    13    17   ar
    20    13    18   ar
    21    14    15    1
    22     1    20    1
    23     2    21    1
    24     3    22    1
    25     4    23    1
    26     5    24    1
    27     6    25    1
    28    14    26    1
    29    14    27    1
    30    14    28    1
    31    15    29    1
    32    16    30    1
