@<TRIPOS>MOLECULE
DB00382
 30 32 0 0 0
SMALL
USER_CHARGES

@<TRIPOS>ATOM
      1 C           6.4859   -4.1850    1.3975 C.3     1  LIG1       -0.0614
      2 C           7.6987   -3.4978    1.3923 C.3     1  LIG1       -0.0601
      3 C           5.2799   -3.4813    1.4009 C.3     1  LIG1       -0.0510
      4 C           7.7127   -2.1036    1.3915 C.3     1  LIG1       -0.0379
      5 C           5.2759   -2.0772    1.3991 C.3     1  LIG1        0.0191
      6 C           4.1410    0.0696    1.3912 C.3     1  LIG1       -0.0072
      7 C           6.5082   -1.3923    1.3956 C.3     1  LIG1        0.0474
      8 C           4.0940   -1.3265    1.4004 C.3     1  LIG1        0.0378
      9 C           5.3910    0.6980    1.4061 C.3     1  LIG1        0.0203
     10 C           2.8653    0.8691    1.4314 C.3     1  LIG1       -0.0243
     11 C           5.5505    2.1873    1.3729 C.3     1  LIG1       -0.0123
     12 C           3.0660    2.3373    1.0517 C.3     1  LIG1       -0.0487
     13 C           4.2740    2.9237    1.7764 C.3     1  LIG1       -0.0475
     14 N           6.5106   -0.0467    1.3965 N.3     1  LIG1       -0.3580
     15 N           2.8353   -1.9811    1.4204 N.3     1  LIG1       -0.3575
     16 H           6.4793   -5.2714    1.3980 H       1  LIG1        0.0623
     17 H           8.6342   -4.0497    1.3894 H       1  LIG1        0.0623
     18 H           4.3556   -4.0539    1.4034 H       1  LIG1        0.0630
     19 H           8.6640   -1.5781    1.3876 H       1  LIG1        0.0645
     20 H           2.1211    0.4448    0.7473 H       1  LIG1        0.0317
     21 H           2.4574    0.8141    2.4486 H       1  LIG1        0.0317
     22 H           6.3689    2.4899    2.0358 H       1  LIG1        0.0331
     23 H           5.8301    2.4750    0.3522 H       1  LIG1        0.0331
     24 H           3.2131    2.4248   -0.0324 H       1  LIG1        0.0270
     25 H           2.1634    2.9079    1.2988 H       1  LIG1        0.0270
     26 H           4.1238    2.8442    2.8605 H       1  LIG1        0.0270
     27 H           4.3744    3.9896    1.5431 H       1  LIG1        0.0270
     28 H           7.4090    0.4377    1.3893 H       1  LIG1        0.1662
     29 H           2.8116   -2.9760    1.3857 H       1  LIG1        0.1427
     30 H           2.0076   -1.4293    1.3734 H       1  LIG1        0.1427
@<TRIPOS>BOND
     1     1     2    1
     2     1     3    1
     3     2     4    1
     4     3     5    1
     5     4     7    1
     6     5     7    1
     7     5     8    1
     8     6     8    1
     9     6     9    1
    10     6    10    1
    11     7    14    1
    12     8    15    1
    13     9    11    1
    14     9    14    1
    15    10    12    1
    16    11    13    1
    17    12    13    1
    18     1    16    1
    19     2    17    1
    20     3    18    1
    21     4    19    1
    22    10    20    1
    23    10    21    1
    24    11    22    1
    25    11    23    1
    26    12    24    1
    27    12    25    1
    28    13    26    1
    29    13    27    1
    30    14    28    1
    31    15    29    1
    32    15    30    1
