@<TRIPOS>MOLECULE
DB00311
 26 27 0 0 0
SMALL
USER_CHARGES

@<TRIPOS>ATOM
      1 C           4.6633   -3.1512    1.4144 C.ar    1  LIG1       -0.0326
      2 C           5.9195   -3.5851    1.8477 C.ar    1  LIG1       -0.0296
      3 C           6.7311   -1.3011    1.9046 C.ar    1  LIG1       -0.0155
      4 C           4.4269   -1.7730    1.2201 C.ar    1  LIG1        0.0800
      5 C           6.9385   -2.6704    2.0891 C.ar    1  LIG1        0.0762
      6 C           5.4668   -0.8723    1.4693 C.ar    1  LIG1        0.0434
      7 C           3.3789    0.1045    0.7268 C.ar    1  LIG1        0.1821
      8 C           9.8316   -4.2940    1.2740 C.3     1  LIG1       -0.0410
      9 C           8.5572   -4.4128    2.0823 C.3     1  LIG1        0.0505
     10 N           3.2376   -1.1985    0.7958 N.ar    1  LIG1       -0.2246
     11 N           0.8385    0.1691   -0.0776 N.3     1  LIG1       -0.3018
     12 O           1.7971    2.0639    1.3840 O.2     1  LIG1       -0.4746
     13 O           2.5466    1.8560   -1.0123 O.2     1  LIG1       -0.4746
     14 O           8.1565   -3.1133    2.5113 O.3     1  LIG1       -0.3463
     15 S           4.9122    0.7299    1.1557 S.2     1  LIG1       -0.0511
     16 S           2.1429    1.2279    0.2405 S.O2    1  LIG1       -0.1468
     17 H           3.8744   -3.8745    1.2286 H       1  LIG1        0.0647
     18 H           6.0931   -4.6484    1.9951 H       1  LIG1        0.0651
     19 H           7.5278   -0.5877    2.0934 H       1  LIG1        0.0663
     20 H           9.6768   -3.6675    0.3912 H       1  LIG1        0.0254
     21 H          10.6338   -3.8597    1.8795 H       1  LIG1        0.0254
     22 H          10.1764   -5.2816    0.9501 H       1  LIG1        0.0254
     23 H           8.7189   -5.0405    2.9637 H       1  LIG1        0.0569
     24 H           7.7565   -4.8461    1.4756 H       1  LIG1        0.0569
     25 H           0.0494    0.1636    0.5803 H       1  LIG1        0.1602
     26 H           0.5640    0.0212   -1.0564 H       1  LIG1        0.1602
@<TRIPOS>BOND
     1     1     2   ar
     2     1     4   ar
     3     2     5   ar
     4     3     5   ar
     5     3     6   ar
     6     4     6   ar
     7     4    10   ar
     8     5    14    1
     9     6    15   ar
    10     7    10   ar
    11     7    15   ar
    12     7    16    1
    13     8     9    1
    14     9    14    1
    15    11    16    1
    16    12    16    2
    17    13    16    2
    18     1    17    1
    19     2    18    1
    20     3    19    1
    21     8    20    1
    22     8    21    1
    23     8    22    1
    24     9    23    1
    25     9    24    1
    26    11    25    1
    27    11    26    1
