@<TRIPOS>MOLECULE
DB00181
 26 26 0 0 0
SMALL
USER_CHARGES

@<TRIPOS>ATOM
      1 C           6.8783   -1.3334    1.4879 C.ar    1  LIG1        0.0000
      2 C           4.8468   -2.5390    1.0950 C.ar    1  LIG1        0.0000
      3 C           7.5842   -2.5217    1.4876 C.ar    1  LIG1        0.0000
      4 C           5.5526   -3.7273    1.0879 C.ar    1  LIG1        0.0000
      5 C           5.5099   -1.3420    1.2916 C.ar    1  LIG1        0.0000
      6 C           6.9213   -3.7199    1.2904 C.ar    1  LIG1        0.0000
      7 C           3.3772    1.4852   -0.1022 C.2     1  LIG1        0.0000
      8 C           4.0447    0.1348   -0.0580 C.3     1  LIG1        0.0000
      9 C           3.6925   -0.0759    2.4066 C.3     1  LIG1        0.0000
     10 C           4.7408   -0.0461    1.2924 C.3     1  LIG1        0.0000
     11 N           4.3659   -0.1291    3.7111 N.4     1  LIG1        0.0000
     12 O           2.7631    1.8293   -1.0977 O.co2   1  LIG1       -0.5000
     13 O           3.4515    2.2336    0.8573 O.co2   1  LIG1       -0.5000
     14 CL          7.8072   -5.2128    1.2901 Cl      1  LIG1        0.0000
     15 H           7.3958   -0.3980    1.6418 H       1  LIG1        0.0000
     16 H           3.7776   -2.5450    0.9424 H       1  LIG1        0.0000
     17 H           8.6532   -2.5149    1.6417 H       1  LIG1        0.0000
     18 H           5.0345   -4.6622    0.9340 H       1  LIG1        0.0000
     19 H           4.7815    0.0672   -0.8585 H       1  LIG1        0.0000
     20 H           3.2948   -0.6456   -0.1876 H       1  LIG1        0.0000
     21 H           3.0779    0.8225    2.3513 H       1  LIG1        0.0000
     22 H           3.0609   -0.9562    2.2876 H       1  LIG1        0.0000
     23 H           5.4271    0.7837    1.4615 H       1  LIG1        0.0000
     24 H           4.9348   -0.9607    3.7622 H       1  LIG1        0.0000
     25 H           4.9506    0.6858    3.8212 H       1  LIG1        0.0000
     26 H           3.6746   -0.1487    4.4458 H       1  LIG1        0.0000
@<TRIPOS>BOND
     1     1     3   ar
     2     1     5   ar
     3     2     4   ar
     4     2     5   ar
     5     3     6   ar
     6     4     6   ar
     7     5    10    1
     8     6    14    1
     9     7     8    1
    10     7    12   ar
    11     7    13   ar
    12     8    10    1
    13     9    10    1
    14     9    11    1
    15     1    15    1
    16     2    16    1
    17     3    17    1
    18     4    18    1
    19     8    19    1
    20     8    20    1
    21     9    21    1
    22     9    22    1
    23    10    23    1
    24    11    24    1
    25    11    25    1
    26    11    26    1
