@<TRIPOS>MOLECULE
DB00744
 28 29 0 0 0
SMALL
USER_CHARGES

@<TRIPOS>ATOM
      1 C           7.6930   -3.0527    1.9393 C.ar    1  LIG1       -0.0616
      2 C           6.9235   -4.0813    1.4129 C.ar    1  LIG1       -0.0611
      3 C           7.2183   -1.7812    2.0237 C.ar    1  LIG1       -0.0538
      4 C           5.6455   -3.8133    0.9633 C.ar    1  LIG1       -0.0476
      5 C           5.2357   -0.1773    1.5819 C.ar    1  LIG1       -0.0419
      6 C           5.9146   -1.4649    1.5746 C.ar    1  LIG1       -0.0108
      7 C           5.1529   -2.5287    1.0437 C.ar    1  LIG1        0.0192
      8 C           3.9858   -0.0913    1.1043 C.ar    1  LIG1        0.0133
      9 C           1.5416    0.0836   -0.5369 C.2     1  LIG1        0.3217
     10 C           2.1091    1.1221    2.1788 C.3     1  LIG1       -0.0392
     11 C           3.1030    1.1268    1.0158 C.3     1  LIG1        0.0823
     12 N           0.9793   -0.0095   -1.7582 N.am    1  LIG1       -0.3111
     13 N           2.3703    1.1077   -0.2527 N.am    1  LIG1       -0.1607
     14 O           1.3011   -0.7565    0.3086 O.2     1  LIG1       -0.2519
     15 O           2.5329    2.1652   -1.1803 O.3     1  LIG1       -0.2920
     16 S           3.6168   -1.7605    0.5992 S.2     1  LIG1       -0.0918
     17 H           8.6916   -3.2673    2.2899 H       1  LIG1        0.0623
     18 H           7.3212   -5.0837    1.3557 H       1  LIG1        0.0623
     19 H           7.8433   -1.0043    2.4387 H       1  LIG1        0.0629
     20 H           5.0365   -4.6046    0.5519 H       1  LIG1        0.0635
     21 H           5.7338    0.6998    1.9677 H       1  LIG1        0.0638
     22 H           2.6542    1.1363    3.1227 H       1  LIG1        0.0254
     23 H           1.4706    2.0031    2.1148 H       1  LIG1        0.0254
     24 H           1.4944    0.2233    2.1278 H       1  LIG1        0.0254
     25 H           3.7177    2.0255    1.0668 H       1  LIG1        0.0587
     26 H           1.2606    0.5883   -2.4684 H       1  LIG1        0.1472
     27 H           0.2933   -0.6742   -1.9270 H       1  LIG1        0.1472
     28 H           2.0211    1.9289   -1.9661 H       1  LIG1        0.2431
@<TRIPOS>BOND
     1     1     2   ar
     2     1     3   ar
     3     2     4   ar
     4     3     6   ar
     5     4     7   ar
     6     5     6   ar
     7     5     8   ar
     8     6     7   ar
     9     7    16   ar
    10     8    11    1
    11     8    16   ar
    12     9    12   am
    13     9    13   am
    14     9    14    2
    15    10    11    1
    16    11    13    1
    17    13    15    1
    18     1    17    1
    19     2    18    1
    20     3    19    1
    21     4    20    1
    22     5    21    1
    23    10    22    1
    24    10    23    1
    25    10    24    1
    26    11    25    1
    27    12    26    1
    28    12    27    1
    29    15    28    1
