@<TRIPOS>MOLECULE
DB00788
 30 31 0 0 0
SMALL
USER_CHARGES

@<TRIPOS>ATOM
      1 C           5.8542   -0.3643    2.3945 C.ar    1  LIG1        0.0000
      2 C           5.6658   -3.5496    0.4852 C.ar    1  LIG1        0.0000
      3 C           4.6945    0.2254    1.9954 C.ar    1  LIG1        0.0000
      4 C           6.8262   -4.1398    0.8781 C.ar    1  LIG1        0.0000
      5 C           4.1367   -1.6394    0.5954 C.ar    1  LIG1        0.0000
      6 C           7.3848   -2.2729    2.2864 C.ar    1  LIG1        0.0000
      7 C           5.3255   -2.2800    0.9841 C.ar    1  LIG1        0.0000
      8 C           6.1964   -1.6336    1.8964 C.ar    1  LIG1        0.0000
      9 C           3.8381   -0.4104    1.0983 C.ar    1  LIG1        0.0000
     10 C           7.6846   -3.5062    1.7823 C.ar    1  LIG1        0.0000
     11 C           2.8912    1.5845    0.0122 C.2     1  LIG1        0.0000
     12 C           1.6926    0.5312    1.9103 C.3     1  LIG1        0.0000
     13 C           8.8758   -5.3761    1.4736 C.3     1  LIG1        0.0000
     14 C           2.5625    0.2734    0.6784 C.3     1  LIG1        0.0000
     15 O           3.7826    2.2877    0.4568 O.co2   1  LIG1       -0.5000
     16 O           2.2657    1.9424   -0.9712 O.co2   1  LIG1       -0.5000
     17 O           8.8347   -4.1234    2.1600 O.3     1  LIG1        0.0000
     18 H           6.5084    0.1403    3.0900 H       1  LIG1        0.0000
     19 H           5.0103   -4.0523   -0.2105 H       1  LIG1        0.0000
     20 H           4.4338    1.2005    2.3796 H       1  LIG1        0.0000
     21 H           7.0846   -5.1150    0.4927 H       1  LIG1        0.0000
     22 H           3.4635   -2.1196   -0.0994 H       1  LIG1        0.0000
     23 H           8.0574   -1.7919    2.9812 H       1  LIG1        0.0000
     24 H           0.7700    1.0258    1.6067 H       1  LIG1        0.0000
     25 H           1.4548   -0.4172    2.3922 H       1  LIG1        0.0000
     26 H           2.2334    1.1687    2.6100 H       1  LIG1        0.0000
     27 H           9.7859   -5.9102    1.7465 H       1  LIG1        0.0000
     28 H           8.0071   -5.9722    1.7530 H       1  LIG1        0.0000
     29 H           8.8658   -5.2014    0.3977 H       1  LIG1        0.0000
     30 H           2.0218   -0.3640   -0.0212 H       1  LIG1        0.0000
@<TRIPOS>BOND
     1     1     3   ar
     2     1     8   ar
     3     2     4   ar
     4     2     7   ar
     5     3     9   ar
     6     4    10   ar
     7     5     7   ar
     8     5     9   ar
     9     6     8   ar
    10     6    10   ar
    11     7     8   ar
    12     9    14    1
    13    10    17    1
    14    11    14    1
    15    11    15   ar
    16    11    16   ar
    17    12    14    1
    18    13    17    1
    19     1    18    1
    20     2    19    1
    21     3    20    1
    22     4    21    1
    23     5    22    1
    24     6    23    1
    25    12    24    1
    26    12    25    1
    27    12    26    1
    28    13    27    1
    29    13    28    1
    30    13    29    1
    31    14    30    1
