@<TRIPOS>MOLECULE
DB00724
 34 36 0 0 0
SMALL
USER_CHARGES

@<TRIPOS>ATOM
      1 C           5.9276   -4.0316    1.0274 C.ar    1  LIG1       -0.0614
      2 C           7.1235   -3.7130    1.6654 C.ar    1  LIG1       -0.0601
      3 C           5.0157   -3.0246    0.7345 C.ar    1  LIG1       -0.0508
      4 C           7.4105   -2.3869    2.0126 C.ar    1  LIG1       -0.0357
      5 C           2.8414    0.7846    0.2553 C.ar    1  LIG1        0.0879
      6 C           5.3211   -1.6966    1.0911 C.ar    1  LIG1        0.0241
      7 C           6.5246   -1.3499    1.7376 C.ar    1  LIG1        0.0745
      8 C           4.7588    0.6859    1.1842 C.ar    1  LIG1        0.1265
      9 C           4.4518   -0.6228    0.8297 C.ar    1  LIG1        0.0729
     10 C           5.9712    0.9370    1.8203 C.ar    1  LIG1        0.1434
     11 C           0.2119   -0.6500    0.5778 C.3     1  LIG1       -0.0613
     12 C           0.2048   -2.3037   -1.3013 C.3     1  LIG1       -0.0613
     13 C           2.4018   -1.5790   -0.3285 C.3     1  LIG1        0.0199
     14 C           0.9646   -1.1403   -0.6610 C.3     1  LIG1       -0.0309
     15 N           3.7499    1.5464    0.8211 N.ar    1  LIG1       -0.2355
     16 N           6.8291   -0.0823    2.0845 N.ar    1  LIG1       -0.2309
     17 N           3.2174   -0.5294    0.2363 N.ar    1  LIG1       -0.2889
     18 N           6.3174    2.2485    2.1938 N.pl3   1  LIG1       -0.3414
     19 H           5.7098   -5.0612    0.7605 H       1  LIG1        0.0623
     20 H           7.8386   -4.4975    1.8962 H       1  LIG1        0.0623
     21 H           4.0937   -3.3007    0.2377 H       1  LIG1        0.0630
     22 H           8.3557   -2.1728    2.5083 H       1  LIG1        0.0645
     23 H           1.9016    1.1264   -0.1568 H       1  LIG1        0.1016
     24 H           0.1561   -1.4395    1.3351 H       1  LIG1        0.0234
     25 H           0.7091    0.2154    1.0287 H       1  LIG1        0.0234
     26 H          -0.8151   -0.3634    0.3309 H       1  LIG1        0.0234
     27 H           0.1465   -3.1554   -0.6152 H       1  LIG1        0.0234
     28 H          -0.8192   -2.0082   -1.5524 H       1  LIG1        0.0234
     29 H           0.6957   -2.6419   -2.2202 H       1  LIG1        0.0234
     30 H           2.4018   -2.4253    0.3695 H       1  LIG1        0.0476
     31 H           2.9202   -1.9186   -1.2344 H       1  LIG1        0.0476
     32 H           0.9937   -0.3178   -1.3870 H       1  LIG1        0.0313
     33 H           5.7054    3.0050    1.9558 H       1  LIG1        0.1442
     34 H           7.2129    2.4210    2.6080 H       1  LIG1        0.1442
@<TRIPOS>BOND
     1     1     2   ar
     2     1     3   ar
     3     2     4   ar
     4     3     6   ar
     5     4     7   ar
     6     5    15   ar
     7     5    17   ar
     8     6     7   ar
     9     6     9   ar
    10     7    16   ar
    11     8     9   ar
    12     8    10   ar
    13     8    15   ar
    14     9    17   ar
    15    10    16   ar
    16    10    18    1
    17    11    14    1
    18    12    14    1
    19    13    14    1
    20    13    17    1
    21     1    19    1
    22     2    20    1
    23     3    21    1
    24     4    22    1
    25     5    23    1
    26    11    24    1
    27    11    25    1
    28    11    26    1
    29    12    27    1
    30    12    28    1
    31    12    29    1
    32    13    30    1
    33    13    31    1
    34    14    32    1
    35    18    33    1
    36    18    34    1
