@<TRIPOS>MOLECULE
DB00120
 23 23 0 0 0
SMALL
USER_CHARGES

@<TRIPOS>ATOM
      1 CZ          6.6547   -3.9613    1.3791 C.ar    1  PHE1        0.0000
      2 CE1         7.5125   -2.8631    1.4394 C.ar    1  PHE1        0.0000
      3 CE2         5.2846   -3.7673    1.2037 C.ar    1  PHE1        0.0000
      4 CD1         7.0002   -1.5708    1.3245 C.ar    1  PHE1        0.0000
      5 CD2         4.7723   -2.4750    1.0889 C.ar    1  PHE1        0.0000
      6 CG          5.6300   -1.3767    1.1492 C.ar    1  PHE1        0.0000
      7 C           3.3094    1.5250   -0.0061 C.2     1  PHE1        0.0000
      8 CB          5.0770    0.0159    1.0256 C.3     1  PHE1        0.0000
      9 CA          3.8145    0.0838    0.1567 C.3     1  PHE1        0.0000
     10 N           4.1393   -0.5468   -1.1614 N.4     1  PHE1        0.0000
     11 O           2.7725    1.7738   -1.1228 O.co2   1  PHE1       -0.5000
     12 OXT         3.4963    2.2859    0.9846 O.co2   1  PHE1       -0.5000
     13 HZ          7.0540   -4.9675    1.4672 H       1  PHE1        0.0000
     14 HE1         8.5795   -3.0140    1.5748 H       1  PHE1        0.0000
     15 HE2         4.6165   -4.6221    1.1556 H       1  PHE1        0.0000
     16 HD1         7.6761   -0.7210    1.3729 H       1  PHE1        0.0000
     17 HD2         3.7033   -2.3335    0.9527 H       1  PHE1        0.0000
     18 HB1         5.8577    0.6593    0.5958 H       1  PHE1        0.0000
     19 HB2         4.8774    0.4268    2.0246 H       1  PHE1        0.0000
     20 HA          3.0207   -0.5418    0.5819 H       1  PHE1        0.0000
     21 H1          4.8915   -1.2280   -1.0518 H       1  PHE1        0.0000
     22 H2          4.4379    0.1655   -1.8294 H       1  PHE1        0.0000
     23 H3          3.3184   -1.0236   -1.5369 H       1  PHE1        0.0000
@<TRIPOS>BOND
     1     1     2   ar
     2     1     3   ar
     3     2     4   ar
     4     3     5   ar
     5     4     6   ar
     6     5     6   ar
     7     6     8    1
     8     7     9    1
     9     7    11   ar
    10     7    12   ar
    11     8     9    1
    12     9    10    1
    13     1    13    1
    14     2    14    1
    15     3    15    1
    16     4    16    1
    17     5    17    1
    18     8    18    1
    19     8    19    1
    20     9    20    1
    21    10    21    1
    22    10    22    1
    23    10    23    1
