@<TRIPOS>MOLECULE
DB00909
 22 23 0 0 0
SMALL
USER_CHARGES

@<TRIPOS>ATOM
      1 C           6.1441   -3.8530    1.5452 C.ar    1  LIG1       -0.0614
      2 C           7.4380   -3.3249    1.4877 C.ar    1  LIG1       -0.0595
      3 C           5.0181   -3.0181    1.5112 C.ar    1  LIG1       -0.0503
      4 C           7.6570   -1.9466    1.3945 C.ar    1  LIG1       -0.0283
      5 C           5.2229   -1.6336    1.4180 C.ar    1  LIG1        0.0330
      6 C           6.5176   -1.1479    1.3633 C.ar    1  LIG1        0.1168
      7 C           4.4307   -0.4708    1.3579 C.ar    1  LIG1        0.0968
      8 C           2.9614   -0.3736    1.3785 C.3     1  LIG1        0.0786
      9 N           5.1657    0.6421    1.2735 N.ar    1  LIG1       -0.1311
     10 N           0.7218    0.0806    0.0259 N.3     1  LIG1       -0.3074
     11 O           2.8707    1.3613   -0.5733 O.2     1  LIG1       -0.4812
     12 O           2.7002   -1.1004   -1.1178 O.2     1  LIG1       -0.4812
     13 O           6.4864    0.2102    1.2772 O.2     1  LIG1       -0.2130
     14 S           2.4022    0.0257   -0.2523 S.O2    1  LIG1       -0.1935
     15 H           6.0088   -4.9294    1.6175 H       1  LIG1        0.0623
     16 H           8.2906   -3.9989    1.5160 H       1  LIG1        0.0623
     17 H           4.0199   -3.4416    1.5569 H       1  LIG1        0.0630
     18 H           8.6551   -1.5280    1.3504 H       1  LIG1        0.0651
     19 H           2.5873    0.4149    2.0532 H       1  LIG1        0.0547
     20 H           2.4674   -1.3159    1.6703 H       1  LIG1        0.0547
     21 H           0.2630    0.9997    0.0077 H       1  LIG1        0.1598
     22 H           0.1470   -0.6770   -0.3630 H       1  LIG1        0.1598
@<TRIPOS>BOND
     1     1     2   ar
     2     1     3   ar
     3     2     4   ar
     4     3     5   ar
     5     4     6   ar
     6     5     6   ar
     7     5     7   ar
     8     6    13   ar
     9     7     8    1
    10     7     9   ar
    11     8    14    1
    12     9    13   ar
    13    10    14    1
    14    11    14    2
    15    12    14    2
    16     1    15    1
    17     2    16    1
    18     3    17    1
    19     4    18    1
    20     8    19    1
    21     8    20    1
    22    10    21    1
    23    10    22    1
