@<TRIPOS>MOLECULE
DB00856
 24 24 0 0 0
SMALL
USER_CHARGES

@<TRIPOS>ATOM
      1 C           4.9976   -2.4171    0.9477 C.ar    1  LIG1       -0.0303
      2 C           7.2395   -1.6648    1.4430 C.ar    1  LIG1       -0.0303
      3 C           5.3908   -3.7364    1.1719 C.ar    1  LIG1       -0.0409
      4 C           7.6326   -2.9843    1.6672 C.ar    1  LIG1       -0.0409
      5 C           5.9219   -1.3812    1.0833 C.ar    1  LIG1        0.0752
      6 C           6.7083   -4.0201    1.5316 C.ar    1  LIG1        0.0408
      7 C           2.1494    1.0029   -0.3705 C.3     1  LIG1        0.0714
      8 C           4.4894    0.1185   -0.0804 C.3     1  LIG1        0.0816
      9 C           3.2913    0.7622    0.6082 C.3     1  LIG1        0.1009
     10 O           2.5942    1.8915   -1.3900 O.3     1  LIG1       -0.3935
     11 O           3.6924    2.0278    1.1382 O.3     1  LIG1       -0.3882
     12 O           5.5363   -0.0858    0.8627 O.3     1  LIG1       -0.3433
     13 CL          7.1939   -5.6479    1.8067 Cl      1  LIG1       -0.0843
     14 H           3.9700   -2.2031    0.6674 H       1  LIG1        0.0651
     15 H           7.9641   -0.8623    1.5497 H       1  LIG1        0.0651
     16 H           4.6601   -4.5339    1.0616 H       1  LIG1        0.0639
     17 H           8.6629   -3.1908    1.9460 H       1  LIG1        0.0639
     18 H           1.2908    1.4651    0.1275 H       1  LIG1        0.0592
     19 H           1.8362    0.0691   -0.8479 H       1  LIG1        0.0592
     20 H           4.8777    0.7493   -0.8861 H       1  LIG1        0.0600
     21 H           4.2279   -0.8609   -0.4932 H       1  LIG1        0.0600
     22 H           2.9508    0.1584    1.4570 H       1  LIG1        0.0649
     23 H           1.8445    2.0210   -1.9920 H       1  LIG1        0.2101
     24 H           2.9136    2.3967    1.5802 H       1  LIG1        0.2107
@<TRIPOS>BOND
     1     1     3   ar
     2     1     5   ar
     3     2     4   ar
     4     2     5   ar
     5     3     6   ar
     6     4     6   ar
     7     5    12    1
     8     6    13    1
     9     7     9    1
    10     7    10    1
    11     8     9    1
    12     8    12    1
    13     9    11    1
    14     1    14    1
    15     2    15    1
    16     3    16    1
    17     4    17    1
    18     7    18    1
    19     7    19    1
    20     8    20    1
    21     8    21    1
    22     9    22    1
    23    10    23    1
    24    11    24    1
