@<TRIPOS>MOLECULE
DB00633
 31 32 0 0 0
SMALL
USER_CHARGES

@<TRIPOS>ATOM
      1 C           6.6319    0.5251    1.4959 C.ar    1  LIG1       -0.0617
      2 C           7.0001   -0.8056    1.4346 C.ar    1  LIG1       -0.0590
      3 C           5.2960    0.8692    1.5887 C.ar    1  LIG1       -0.0581
      4 C           3.1841    1.8183   -0.2575 C.ar    1  LIG1        0.0461
      5 C           1.2657    1.6596   -1.2328 C.ar    1  LIG1        0.0841
      6 C           6.0328   -1.7929    1.4699 C.ar    1  LIG1       -0.0479
      7 C           4.3294   -0.1179    1.6293 C.ar    1  LIG1       -0.0362
      8 C           4.6977   -1.4491    1.5670 C.ar    1  LIG1       -0.0443
      9 C           2.4442    0.9645    0.4757 C.ar    1  LIG1        0.0336
     10 C           6.4343   -3.2438    1.4030 C.3     1  LIG1       -0.0395
     11 C           3.6434   -2.5251    1.6055 C.3     1  LIG1       -0.0392
     12 C           2.6717    1.1842    2.9352 C.3     1  LIG1       -0.0530
     13 C           2.8736    0.2569    1.7351 C.3     1  LIG1        0.0211
     14 N           2.4391    2.2273   -1.2950 N.ar    1  LIG1       -0.2476
     15 N           1.2272    0.8635   -0.1426 N.ar    1  LIG1       -0.3074
     16 H           7.3875    1.2964    1.4686 H       1  LIG1        0.0623
     17 H           8.0435   -1.0743    1.3594 H       1  LIG1        0.0625
     18 H           5.0083    1.9091    1.6365 H       1  LIG1        0.0626
     19 H           4.1993    2.1206   -0.0468 H       1  LIG1        0.0857
     20 H           0.4591    1.8025   -1.9365 H       1  LIG1        0.1013
     21 H           6.4640   -3.5651    0.3618 H       1  LIG1        0.0280
     22 H           7.4206   -3.3689    1.8501 H       1  LIG1        0.0280
     23 H           5.7089   -3.8471    1.9488 H       1  LIG1        0.0280
     24 H           3.2539   -2.6884    0.6006 H       1  LIG1        0.0280
     25 H           4.0818   -3.4502    1.9799 H       1  LIG1        0.0280
     26 H           2.8318   -2.2152    2.2638 H       1  LIG1        0.0280
     27 H           3.2702    2.0855    2.8028 H       1  LIG1        0.0240
     28 H           1.6187    1.4554    3.0118 H       1  LIG1        0.0240
     29 H           2.9822    0.6724    3.8460 H       1  LIG1        0.0240
     30 H           2.2750   -0.6443    1.8675 H       1  LIG1        0.0413
     31 H           0.4784    0.3186    0.1461 H       1  LIG1        0.1534
@<TRIPOS>BOND
     1     1     2   ar
     2     1     3   ar
     3     2     6   ar
     4     3     7   ar
     5     4     9   ar
     6     4    14   ar
     7     5    14   ar
     8     5    15   ar
     9     6     8   ar
    10     6    10    1
    11     7     8   ar
    12     7    13    1
    13     8    11    1
    14     9    13    1
    15     9    15   ar
    16    12    13    1
    17     1    16    1
    18     2    17    1
    19     3    18    1
    20     4    19    1
    21     5    20    1
    22    10    21    1
    23    10    22    1
    24    10    23    1
    25    11    24    1
    26    11    25    1
    27    11    26    1
    28    12    27    1
    29    12    28    1
    30    12    29    1
    31    13    30    1
    32    15    31    1
