@<TRIPOS>MOLECULE
DB01488
 31 32 0 0 0
SMALL
USER_CHARGES

@<TRIPOS>ATOM
      1 C           5.8286   -4.0059    1.3152 C.ar    1  LIG1       -0.0615
      2 C           7.1943   -3.7319    1.3512 C.ar    1  LIG1       -0.0603
      3 C           4.8892   -2.9685    1.3290 C.ar    1  LIG1       -0.0528
      4 C           7.6644   -2.4165    1.4017 C.ar    1  LIG1       -0.0402
      5 C           5.6633    0.6016    1.4569 C.ar    1  LIG1       -0.0034
      6 C           5.3394   -1.6343    1.3798 C.ar    1  LIG1        0.0001
      7 C           4.6892   -0.3688    1.4066 C.ar    1  LIG1       -0.0268
      8 C           6.7139   -1.3896    1.4150 C.ar    1  LIG1        0.0375
      9 C           0.4309   -1.1289    0.9986 C.3     1  LIG1       -0.1038
     10 C           0.7549    1.2993    0.5522 C.3     1  LIG1       -0.1038
     11 C           3.2320   -0.1279    1.3864 C.3     1  LIG1       -0.0408
     12 C           2.5700   -0.3183    0.0142 C.3     1  LIG1       -0.0875
     13 N           6.8812   -0.0238    1.4613 N.ar    1  LIG1       -0.3203
     14 N           1.1056   -0.1036    0.1209 N.4     1  LIG1        0.3782
     15 H           5.4873   -5.0368    1.2755 H       1  LIG1        0.0623
     16 H           7.9064   -4.5531    1.3397 H       1  LIG1        0.0623
     17 H           3.8279   -3.1985    1.2996 H       1  LIG1        0.0630
     18 H           8.7278   -2.2042    1.4308 H       1  LIG1        0.0642
     19 H           5.6002    1.6806    1.4884 H       1  LIG1        0.0792
     20 H           0.8405   -1.0280    2.0054 H       1  LIG1        0.0022
     21 H          -0.6413   -0.9237    0.9885 H       1  LIG1        0.0022
     22 H           0.6455   -2.1161    0.5849 H       1  LIG1        0.0022
     23 H           1.1720    1.4565    1.5486 H       1  LIG1        0.0022
     24 H           1.1931    1.9905   -0.1703 H       1  LIG1        0.0022
     25 H          -0.3335    1.3827    0.5648 H       1  LIG1        0.0022
     26 H           2.7299   -0.8168    2.0911 H       1  LIG1        0.0297
     27 H           2.9828    0.8825    1.7625 H       1  LIG1        0.0297
     28 H           2.7047   -1.3375   -0.3600 H       1  LIG1        0.0062
     29 H           2.9428    0.3929   -0.7290 H       1  LIG1        0.0062
     30 H           7.7744    0.4480    1.4941 H       1  LIG1        0.1522
     31 H           0.6990   -0.2228   -0.8228 H       1  LIG1       -0.0829
@<TRIPOS>BOND
     1     1     2   ar
     2     1     3   ar
     3     2     4   ar
     4     3     6   ar
     5     4     8   ar
     6     5     7   ar
     7     5    13   ar
     8     6     7   ar
     9     6     8   ar
    10     7    11    1
    11     8    13   ar
    12     9    14    1
    13    10    14    1
    14    11    12    1
    15    12    14    1
    16     1    15    1
    17     2    16    1
    18     3    17    1
    19     4    18    1
    20     5    19    1
    21     9    20    1
    22     9    21    1
    23     9    22    1
    24    10    23    1
    25    10    24    1
    26    10    25    1
    27    11    26    1
    28    11    27    1
    29    12    28    1
    30    12    29    1
    31    13    30    1
    32    14    31    1
