@<TRIPOS>MOLECULE
DB01546
 31 32 0 0 0
SMALL
USER_CHARGES

@<TRIPOS>ATOM
      1 C           5.4516   -3.8706    1.1332 C.ar    1  LIG1       -0.0615
      2 C           6.8286   -3.7596    1.3162 C.ar    1  LIG1       -0.0603
      3 C           4.6353   -2.7337    1.1306 C.ar    1  LIG1       -0.0528
      4 C           7.4327   -2.5128    1.5019 C.ar    1  LIG1       -0.0402
      5 C           5.7798    0.7088    1.5783 C.ar    1  LIG1       -0.0034
      6 C           5.2219   -1.4660    1.3161 C.ar    1  LIG1        0.0001
      7 C           4.7151   -0.1374    1.3695 C.ar    1  LIG1       -0.0266
      8 C           6.6042   -1.3850    1.4972 C.ar    1  LIG1        0.0375
      9 C           4.4280    0.8866   -1.5280 C.3     1  LIG1       -0.0669
     10 C           3.2780    0.2790    1.2267 C.3     1  LIG1       -0.0389
     11 C           2.9389    0.7532   -1.2375 C.3     1  LIG1       -0.0688
     12 C           2.6180   -0.1990   -0.0773 C.3     1  LIG1       -0.0801
     13 N           6.9149   -0.0530    1.6537 N.ar    1  LIG1       -0.3203
     14 N           1.1386   -0.2522    0.1170 N.4     1  LIG1        0.3815
     15 H           5.0051   -4.8509    0.9901 H       1  LIG1        0.0623
     16 H           7.4436   -4.6557    1.3146 H       1  LIG1        0.0623
     17 H           3.5637   -2.8369    0.9858 H       1  LIG1        0.0630
     18 H           8.5044   -2.4275    1.6454 H       1  LIG1        0.0642
     19 H           5.8327    1.7841    1.6785 H       1  LIG1        0.0792
     20 H           4.9506    1.2563   -0.6399 H       1  LIG1        0.0230
     21 H           4.6073    1.5934   -2.3444 H       1  LIG1        0.0230
     22 H           4.8753   -0.0749   -1.7957 H       1  LIG1        0.0230
     23 H           3.1897    1.3705    1.3130 H       1  LIG1        0.0300
     24 H           2.7209   -0.1288    2.0816 H       1  LIG1        0.0300
     25 H           2.4496    0.3819   -2.1466 H       1  LIG1        0.0247
     26 H           2.5218    1.7486   -1.0404 H       1  LIG1        0.0247
     27 H           2.9286   -1.2203   -0.3259 H       1  LIG1        0.0088
     28 H           7.8466    0.3093    1.8027 H       1  LIG1        0.1522
     29 H           0.8721   -1.1144    0.5972 H       1  LIG1       -0.0899
     30 H           0.6590   -0.2226   -0.7854 H       1  LIG1       -0.0899
     31 H           0.8232    0.5420    0.6780 H       1  LIG1       -0.0899
@<TRIPOS>BOND
     1     1     2   ar
     2     1     3   ar
     3     2     4   ar
     4     3     6   ar
     5     4     8   ar
     6     5     7   ar
     7     5    13   ar
     8     6     7   ar
     9     6     8   ar
    10     7    10    1
    11     8    13   ar
    12     9    11    1
    13    10    12    1
    14    11    12    1
    15    12    14    1
    16     1    15    1
    17     2    16    1
    18     3    17    1
    19     4    18    1
    20     5    19    1
    21     9    20    1
    22     9    21    1
    23     9    22    1
    24    10    23    1
    25    10    24    1
    26    11    25    1
    27    11    26    1
    28    12    27    1
    29    13    28    1
    30    14    29    1
    31    14    30    1
    32    14    31    1
