@<TRIPOS>MOLECULE
DB01065
 33 34 0 0 0
SMALL
USER_CHARGES

@<TRIPOS>ATOM
      1 C           7.8136   -2.2379    1.4580 C.ar    1  LIG1       -0.0376
      2 C           7.6357   -3.6170    1.6007 C.ar    1  LIG1       -0.0299
      3 C           5.2212   -3.3601    1.6392 C.ar    1  LIG1       -0.0223
      4 C           5.2140    0.2771    1.2761 C.ar    1  LIG1       -0.0032
      5 C           5.3757   -1.9668    1.4958 C.ar    1  LIG1        0.0028
      6 C           4.4701   -0.8725    1.4104 C.ar    1  LIG1       -0.0233
      7 C           6.6657   -1.4390    1.4087 C.ar    1  LIG1        0.0377
      8 C           6.3605   -4.1716    1.6900 C.ar    1  LIG1        0.0753
      9 C           2.6558    1.1740   -1.6032 C.2     1  LIG1        0.2086
     10 C           3.0324    0.8645   -3.0141 C.3     1  LIG1        0.0127
     11 C           4.8884   -6.0258    1.9137 C.3     1  LIG1        0.0422
     12 C           2.9958   -0.9456    1.4556 C.3     1  LIG1       -0.0103
     13 C           2.2876    0.1437    0.6296 C.3     1  LIG1        0.0151
     14 N           6.5371   -0.0747    1.2758 N.ar    1  LIG1       -0.3203
     15 N           2.6241    0.0696   -0.7669 N.am    1  LIG1       -0.3153
     16 O           2.4103    2.3312   -1.2833 O.2     1  LIG1       -0.2780
     17 O           6.2187   -5.5201    1.8278 O.3     1  LIG1       -0.3493
     18 H           8.8069   -1.8072    1.3892 H       1  LIG1        0.0643
     19 H           8.5112   -4.2608    1.6431 H       1  LIG1        0.0651
     20 H           4.2308   -3.8018    1.7091 H       1  LIG1        0.0657
     21 H           4.9218    1.3137    1.1808 H       1  LIG1        0.0792
     22 H           2.1572    0.6314   -3.6415 H       1  LIG1        0.0328
     23 H           3.5300    1.7121   -3.5120 H       1  LIG1        0.0328
     24 H           3.7168    0.0107   -3.1427 H       1  LIG1        0.0328
     25 H           4.9172   -7.1130    2.0209 H       1  LIG1        0.0535
     26 H           4.3348   -5.7526    1.0119 H       1  LIG1        0.0535
     27 H           4.3976   -5.5889    2.7866 H       1  LIG1        0.0535
     28 H           2.6428   -0.8607    2.5024 H       1  LIG1        0.0333
     29 H           2.6307   -1.9374    1.1198 H       1  LIG1        0.0333
     30 H           1.1998    0.0432    0.6980 H       1  LIG1        0.0470
     31 H           2.5610    1.1435    0.9827 H       1  LIG1        0.0470
     32 H           7.3085    0.5726    1.1911 H       1  LIG1        0.1522
     33 H           2.8507   -0.8418   -1.1615 H       1  LIG1        0.1493
@<TRIPOS>BOND
     1     1     2   ar
     2     1     7   ar
     3     2     8   ar
     4     3     5   ar
     5     3     8   ar
     6     4     6   ar
     7     4    14   ar
     8     5     6   ar
     9     5     7   ar
    10     6    12    1
    11     7    14   ar
    12     8    17    1
    13     9    10    1
    14     9    15   am
    15     9    16    2
    16    11    17    1
    17    12    13    1
    18    13    15    1
    19     1    18    1
    20     2    19    1
    21     3    20    1
    22     4    21    1
    23    10    22    1
    24    10    23    1
    25    10    24    1
    26    11    25    1
    27    11    26    1
    28    11    27    1
    29    12    28    1
    30    12    29    1
    31    13    30    1
    32    13    31    1
    33    14    32    1
    34    15    33    1
