@<TRIPOS>MOLECULE
DB01275
 20 21 0 0 0
SMALL
USER_CHARGES

@<TRIPOS>ATOM
      1 C           6.6359   -1.8162    1.9076 C.ar    1  LIG1       -0.0615
      2 C           5.4795   -2.5270    1.5964 C.ar    1  LIG1       -0.0615
      3 C           6.6608   -0.4538    1.8511 C.ar    1  LIG1       -0.0526
      4 C           4.3371   -1.8828    1.2211 C.ar    1  LIG1       -0.0507
      5 C           5.4552    1.6429    1.3768 C.ar    1  LIG1        0.0576
      6 C           5.5070    0.2389    1.4642 C.ar    1  LIG1        0.0054
      7 C           4.3289   -0.4864    1.1477 C.ar    1  LIG1        0.0266
      8 C           3.1888    0.2523    0.7559 C.ar    1  LIG1        0.1616
      9 N           4.3352    2.2185    1.0057 N.ar    1  LIG1       -0.1565
     10 N           3.2697    1.5705    0.7135 N.ar    1  LIG1       -0.1335
     11 N           0.9143    0.3334    0.0516 N.3     1  LIG1       -0.2562
     12 N           2.0081   -0.3931    0.4285 N.pl3   1  LIG1       -0.2664
     13 H           7.5260   -2.3521    2.2021 H       1  LIG1        0.0623
     14 H           5.4873   -3.6055    1.6535 H       1  LIG1        0.0623
     15 H           7.5643    0.0852    2.0950 H       1  LIG1        0.0630
     16 H           3.4470   -2.4461    0.9832 H       1  LIG1        0.0630
     17 H           6.3250    2.2384    1.6116 H       1  LIG1        0.0866
     18 H           1.1455    0.7701   -0.8281 H       1  LIG1        0.1410
     19 H           0.1776   -0.3293   -0.1384 H       1  LIG1        0.1410
     20 H           1.9565   -1.3609    0.4705 H       1  LIG1        0.1684
@<TRIPOS>BOND
     1     1     2   ar
     2     1     3   ar
     3     2     4   ar
     4     3     6   ar
     5     4     7   ar
     6     5     6   ar
     7     5     9   ar
     8     6     7   ar
     9     7     8   ar
    10     8    10   ar
    11     8    12    1
    12     9    10   ar
    13    11    12    1
    14     1    13    1
    15     2    14    1
    16     3    15    1
    17     4    16    1
    18     5    17    1
    19    11    18    1
    20    11    19    1
    21    12    20    1
