@<TRIPOS>MOLECULE
DB01662
 24 24 0 0 0
SMALL
USER_CHARGES

@<TRIPOS>ATOM
      1 C           5.6696   -3.8021    1.0302 C.ar    1  LIG1        0.0000
      2 C           7.0188   -3.5276    1.2536 C.ar    1  LIG1        0.0000
      3 C           4.7400   -2.7623    1.0114 C.ar    1  LIG1        0.0000
      4 C           7.4384   -2.2132    1.4582 C.ar    1  LIG1        0.0000
      5 C           5.1596   -1.4478    1.2160 C.ar    1  LIG1        0.0000
      6 C           6.5089   -1.1733    1.4394 C.ar    1  LIG1        0.0000
      7 C           3.2636    1.6398   -0.1972 C.2     1  LIG1        0.0000
      8 C           3.0282   -0.6427   -1.0445 C.3     1  LIG1        0.0000
      9 C           4.1391   -0.3349    1.1926 C.3     1  LIG1        0.0000
     10 C           3.9388    0.2545   -0.2091 C.3     1  LIG1        0.0000
     11 O           3.5254    2.3786    0.7932 O.co2   1  LIG1       -0.5000
     12 O           2.5239    1.8708   -1.1967 O.co2   1  LIG1       -0.5000
     13 O           6.9353    0.1048    1.6418 O.3     1  LIG1        0.0000
     14 H           5.3421   -4.8257    0.8713 H       1  LIG1        0.0000
     15 H           7.7419   -4.3376    1.2690 H       1  LIG1        0.0000
     16 H           3.6908   -2.9868    0.8380 H       1  LIG1        0.0000
     17 H           8.4908   -2.0055    1.6318 H       1  LIG1        0.0000
     18 H           2.0451   -0.7554   -0.5740 H       1  LIG1        0.0000
     19 H           3.4640   -1.6418   -1.1507 H       1  LIG1        0.0000
     20 H           2.8706   -0.2367   -2.0501 H       1  LIG1        0.0000
     21 H           3.1888   -0.6969    1.6056 H       1  LIG1        0.0000
     22 H           4.4768    0.4507    1.8818 H       1  LIG1        0.0000
     23 H           4.9068    0.3356   -0.7205 H       1  LIG1        0.0000
     24 H           7.8951    0.1195    1.7815 H       1  LIG1        0.0000
@<TRIPOS>BOND
     1     1     2   ar
     2     1     3   ar
     3     2     4   ar
     4     3     5   ar
     5     4     6   ar
     6     5     6   ar
     7     5     9    1
     8     6    13    1
     9     7    10    1
    10     7    11   ar
    11     7    12   ar
    12     8    10    1
    13     9    10    1
    14     1    14    1
    15     2    15    1
    16     3    16    1
    17     4    17    1
    18     8    18    1
    19     8    19    1
    20     8    20    1
    21     9    21    1
    22     9    22    1
    23    10    23    1
    24    13    24    1
