@<TRIPOS>MOLECULE
DB01050
 32 32 0 0 0
SMALL
USER_CHARGES

@<TRIPOS>ATOM
      1 C           6.3043   -0.8484    0.7311 C.ar    1  LIG1        0.0000
      2 C           5.0371   -2.2975    2.1911 C.ar    1  LIG1        0.0000
      3 C           5.1292   -0.1949    0.3599 C.ar    1  LIG1        0.0000
      4 C           3.8621   -1.6440    1.8198 C.ar    1  LIG1        0.0000
      5 C           6.2583   -1.8998    1.6467 C.ar    1  LIG1        0.0000
      6 C           3.9082   -0.5927    0.9043 C.ar    1  LIG1        0.0000
      7 C           2.9904    1.5453    0.0433 C.2     1  LIG1        0.0000
      8 C           1.5801    0.0708    1.6072 C.3     1  LIG1        0.0000
      9 C           6.7836   -4.8820    1.1789 C.3     1  LIG1        0.0000
     10 C           8.1134   -3.3445   -0.2812 C.3     1  LIG1        0.0000
     11 C           7.5293   -2.6071    2.0492 C.3     1  LIG1        0.0000
     12 C           2.6524    0.1076    0.5081 C.3     1  LIG1        0.0000
     13 C           7.8801   -3.8139    1.1571 C.3     1  LIG1        0.0000
     14 O           3.5292    2.2685    0.9314 O.co2   1  LIG1       -0.5000
     15 O           2.7013    1.8360   -1.1511 O.co2   1  LIG1       -0.5000
     16 H           7.2512   -0.5319    0.3016 H       1  LIG1        0.0000
     17 H           4.9924   -3.1148    2.9062 H       1  LIG1        0.0000
     18 H           5.1751    0.6242   -0.3527 H       1  LIG1        0.0000
     19 H           2.9147   -1.9601    2.2487 H       1  LIG1        0.0000
     20 H           1.9540    0.5420    2.5229 H       1  LIG1        0.0000
     21 H           0.6742    0.6049    1.2996 H       1  LIG1        0.0000
     22 H           1.2857   -0.9541    1.8587 H       1  LIG1        0.0000
     23 H           5.8271   -4.4766    0.8321 H       1  LIG1        0.0000
     24 H           6.6385   -5.2831    2.1868 H       1  LIG1        0.0000
     25 H           7.0489   -5.7228    0.5289 H       1  LIG1        0.0000
     26 H           7.2120   -2.8744   -0.6883 H       1  LIG1        0.0000
     27 H           8.9293   -2.6156   -0.3342 H       1  LIG1        0.0000
     28 H           8.3699   -4.1890   -0.9296 H       1  LIG1        0.0000
     29 H           8.3652   -1.8954    2.0604 H       1  LIG1        0.0000
     30 H           7.4108   -2.9373    3.0902 H       1  LIG1        0.0000
     31 H           2.1986   -0.3835   -0.3745 H       1  LIG1        0.0000
     32 H           8.8107   -4.2745    1.5126 H       1  LIG1        0.0000
@<TRIPOS>BOND
     1     1     3   ar
     2     1     5   ar
     3     2     4   ar
     4     2     5   ar
     5     3     6   ar
     6     4     6   ar
     7     5    11    1
     8     6    12    1
     9     7    12    1
    10     7    14   ar
    11     7    15   ar
    12     8    12    1
    13     9    13    1
    14    10    13    1
    15    11    13    1
    16     1    16    1
    17     2    17    1
    18     3    18    1
    19     4    19    1
    20     8    20    1
    21     8    21    1
    22     8    22    1
    23     9    23    1
    24     9    24    1
    25     9    25    1
    26    10    26    1
    27    10    27    1
    28    10    28    1
    29    11    29    1
    30    11    30    1
    31    12    31    1
    32    13    32    1
