@<TRIPOS>MOLECULE
DB01441
 47 48 0 0 0
SMALL
USER_CHARGES

@<TRIPOS>ATOM
      1 C           7.7277   -2.2081    1.3962 C.ar    1  LIG1       -0.0376
      2 C           7.4218   -3.5720    1.3961 C.ar    1  LIG1       -0.0299
      3 C           5.0404   -3.0971    1.3961 C.ar    1  LIG1       -0.0223
      4 C           5.3725    0.5430    1.3968 C.ar    1  LIG1       -0.0034
      5 C           5.3243   -1.7168    1.3962 C.ar    1  LIG1        0.0027
      6 C           4.5241   -0.5401    1.3964 C.ar    1  LIG1       -0.0267
      7 C           6.6587   -1.3051    1.3963 C.ar    1  LIG1        0.0377
      8 C           6.0996   -4.0119    1.3961 C.ar    1  LIG1        0.0753
      9 C           1.0317    1.5003   -1.8236 C.3     1  LIG1       -0.0777
     10 C           0.3532    2.5937    0.3485 C.3     1  LIG1       -0.0777
     11 C           0.3155   -1.1750   -1.6570 C.3     1  LIG1       -0.0777
     12 C          -0.9640   -1.3024    0.5157 C.3     1  LIG1       -0.0777
     13 C           4.4599   -5.7345    1.3951 C.3     1  LIG1        0.0422
     14 C           3.0486   -0.4801    1.3949 C.3     1  LIG1       -0.0407
     15 C           2.4380    0.2582    0.1951 C.3     1  LIG1       -0.0861
     16 C           0.3023    1.3335   -0.5003 C.3     1  LIG1       -0.0840
     17 C           0.3966   -1.1285   -0.1396 C.3     1  LIG1       -0.0840
     18 N           6.6578    0.0716    1.3965 N.ar    1  LIG1       -0.3203
     19 N           0.9567    0.2119    0.2686 N.4     1  LIG1        0.3849
     20 O           5.8325   -5.3484    1.3951 O.3     1  LIG1       -0.3493
     21 H           8.7575   -1.8669    1.3968 H       1  LIG1        0.0643
     22 H           8.2340   -4.2954    1.3973 H       1  LIG1        0.0651
     23 H           4.0124   -3.4495    1.3955 H       1  LIG1        0.0657
     24 H           5.1782    1.6067    1.3974 H       1  LIG1        0.0792
     25 H           2.0694    1.8070   -1.6553 H       1  LIG1        0.0214
     26 H           1.0450    0.5664   -2.3965 H       1  LIG1        0.0214
     27 H           0.5527    2.2676   -2.4416 H       1  LIG1        0.0214
     28 H           1.3903    2.9014    0.5190 H       1  LIG1        0.0214
     29 H          -0.1176    2.4403    1.3257 H       1  LIG1        0.0214
     30 H          -0.1633    3.4222   -0.1481 H       1  LIG1        0.0214
     31 H          -0.3874   -0.4218   -2.0281 H       1  LIG1        0.0214
     32 H           1.2905   -0.9825   -2.1184 H       1  LIG1        0.0214
     33 H          -0.0324   -2.1551   -2.0014 H       1  LIG1        0.0214
     34 H          -1.6681   -0.5492    0.1467 H       1  LIG1        0.0214
     35 H          -0.9022   -1.2009    1.6048 H       1  LIG1        0.0214
     36 H          -1.3835   -2.2893    0.2926 H       1  LIG1        0.0214
     37 H           4.3872   -6.8248    1.3943 H       1  LIG1        0.0535
     38 H           3.9654   -5.3250    0.5106 H       1  LIG1        0.0535
     39 H           3.9797   -5.3402    2.2938 H       1  LIG1        0.0535
     40 H           2.6329   -1.5052    1.3949 H       1  LIG1        0.0297
     41 H           2.6601   -0.0246    2.3256 H       1  LIG1        0.0297
     42 H           2.7136   -0.2149   -0.7520 H       1  LIG1        0.0062
     43 H           2.7226    1.3144    0.1688 H       1  LIG1        0.0062
     44 H          -0.7349    1.0270   -0.6700 H       1  LIG1        0.0089
     45 H           1.0997   -1.8819    0.2301 H       1  LIG1        0.0089
     46 H           7.4868    0.6497    1.3970 H       1  LIG1        0.1522
     47 H           0.6847    0.3463    1.2575 H       1  LIG1       -0.0813
@<TRIPOS>BOND
     1     1     2   ar
     2     1     7   ar
     3     2     8   ar
     4     3     5   ar
     5     3     8   ar
     6     4     6   ar
     7     4    18   ar
     8     5     6   ar
     9     5     7   ar
    10     6    14    1
    11     7    18   ar
    12     8    20    1
    13     9    16    1
    14    10    16    1
    15    11    17    1
    16    12    17    1
    17    13    20    1
    18    14    15    1
    19    15    19    1
    20    16    19    1
    21    17    19    1
    22     1    21    1
    23     2    22    1
    24     3    23    1
    25     4    24    1
    26     9    25    1
    27     9    26    1
    28     9    27    1
    29    10    28    1
    30    10    29    1
    31    10    30    1
    32    11    31    1
    33    11    32    1
    34    11    33    1
    35    12    34    1
    36    12    35    1
    37    12    36    1
    38    13    37    1
    39    13    38    1
    40    13    39    1
    41    14    40    1
    42    14    41    1
    43    15    42    1
    44    15    43    1
    45    16    44    1
    46    17    45    1
    47    18    46    1
    48    19    47    1
