@<TRIPOS>MOLECULE
DB01811
 18 19 0 0 0
SMALL
USER_CHARGES

@<TRIPOS>ATOM
      1 C           5.3373   -1.6207    2.0499 C.ar    1  LIG1       -0.0391
      2 C           3.0119   -0.8662    1.0688 C.ar    1  LIG1       -0.0202
      3 C           4.5238    1.1551   -0.1249 C.ar    1  LIG1       -0.0074
      4 C           6.5528   -1.0777    1.8796 C.ar    1  LIG1       -0.0065
      5 C           4.3921   -0.8066    1.2809 C.ar    1  LIG1       -0.0002
      6 C           5.1535    0.2110    0.6803 C.ar    1  LIG1        0.0400
      7 C           2.4029    0.0769    0.2686 C.ar    1  LIG1        0.1020
      8 C           3.1608    1.0848   -0.3323 C.ar    1  LIG1        0.1032
      9 N           6.4638    0.0184    1.0639 N.ar    1  LIG1       -0.3205
     10 O           1.0596    0.0225    0.0589 O.3     1  LIG1       -0.3582
     11 O           2.5495    2.0099   -1.1202 O.3     1  LIG1       -0.3581
     12 H           5.1006   -2.4923    2.6421 H       1  LIG1        0.0643
     13 H           2.4254   -1.6473    1.5298 H       1  LIG1        0.0658
     14 H           5.1015    1.9401   -0.5901 H       1  LIG1        0.0671
     15 H           7.4657   -1.4500    2.3208 H       1  LIG1        0.0789
     16 H           7.2109    0.5760    0.7958 H       1  LIG1        0.1522
     17 H           0.9207   -0.5313   -0.7215 H       1  LIG1        0.2183
     18 H           2.5643    1.6622   -2.0224 H       1  LIG1        0.2183
@<TRIPOS>BOND
     1     1     4   ar
     2     1     5   ar
     3     2     5   ar
     4     2     7   ar
     5     3     6   ar
     6     3     8   ar
     7     4     9   ar
     8     5     6   ar
     9     6     9   ar
    10     7     8   ar
    11     7    10    1
    12     8    11    1
    13     1    12    1
    14     2    13    1
    15     3    14    1
    16     4    15    1
    17     9    16    1
    18    10    17    1
    19    11    18    1
