@<TRIPOS>MOLECULE
DB01427
 23 24 0 0 0
SMALL
USER_CHARGES

@<TRIPOS>ATOM
      1 C           5.1696   -3.1821    1.0190 C.ar    1  LIG1       -0.0359
      2 C           6.8578   -1.5125    1.4021 C.ar    1  LIG1       -0.0359
      3 C           6.0498   -4.1149    1.5434 C.ar    1  LIG1        0.0274
      4 C           7.6623   -2.5199    1.9095 C.ar    1  LIG1        0.0274
      5 C           5.5891   -1.8582    0.9505 C.ar    1  LIG1       -0.0140
      6 C           3.2533   -0.9022    0.4942 C.ar    1  LIG1       -0.0268
      7 C           5.2517    0.2227   -0.2046 C.ar    1  LIG1        0.0038
      8 C           4.7034   -0.8395    0.4085 C.ar    1  LIG1       -0.0022
      9 C           2.4494    0.0481   -0.0128 C.ar    1  LIG1        0.0879
     10 C           3.0901    1.2252   -0.6955 C.ar    1  LIG1        0.2605
     11 N           7.2897   -3.8169    1.9920 N.ar    1  LIG1       -0.2646
     12 N           4.4735    1.2179   -0.7377 N.ar    1  LIG1       -0.2862
     13 N           1.0872    0.0398    0.0389 N.pl3   1  LIG1       -0.3540
     14 O           2.4084    2.1274   -1.1789 O.2     1  LIG1       -0.2700
     15 H           4.1869   -3.4894    0.6764 H       1  LIG1        0.0645
     16 H           7.2204   -0.4904    1.3654 H       1  LIG1        0.0645
     17 H           5.7706   -5.1607    1.6196 H       1  LIG1        0.0840
     18 H           8.6607   -2.3029    2.2746 H       1  LIG1        0.0840
     19 H           2.8255   -1.7672    0.9946 H       1  LIG1        0.0651
     20 H           6.3207    0.3632   -0.3182 H       1  LIG1        0.0797
     21 H           4.9511    1.9934   -1.1879 H       1  LIG1        0.1554
     22 H           0.6302   -0.7259    0.4854 H       1  LIG1        0.1428
     23 H           0.5882    0.7995   -0.3713 H       1  LIG1        0.1428
@<TRIPOS>BOND
     1     1     3   ar
     2     1     5   ar
     3     2     4   ar
     4     2     5   ar
     5     3    11   ar
     6     4    11   ar
     7     5     8    1
     8     6     8   ar
     9     6     9   ar
    10     7     8   ar
    11     7    12   ar
    12     9    10   ar
    13     9    13    1
    14    10    12   ar
    15    10    14    2
    16     1    15    1
    17     2    16    1
    18     3    17    1
    19     4    18    1
    20     6    19    1
    21     7    20    1
    22    12    21    1
    23    13    22    1
    24    13    23    1
