@<TRIPOS>MOLECULE
DB01980
 26 26 0 0 0
SMALL
USER_CHARGES

@<TRIPOS>ATOM
      1 C           4.2281   -1.7925    1.8794 C.ar    1  LIG1       -0.0580
      2 C           5.2936    0.1661    0.9489 C.ar    1  LIG1       -0.0580
      3 C           5.4740   -2.4039    2.0194 C.ar    1  LIG1       -0.0486
      4 C           6.5395   -0.4452    1.0890 C.ar    1  LIG1       -0.0486
      5 C           4.1378   -0.5076    1.3441 C.ar    1  LIG1       -0.0490
      6 C           6.6297   -1.7302    1.6242 C.ar    1  LIG1        0.0130
      7 C           2.6609    0.8099   -1.2291 C.2     1  LIG1        0.2203
      8 C           2.7898    0.1532    1.1902 C.3     1  LIG1       -0.0322
      9 C           2.1195   -0.1256   -0.1612 C.3     1  LIG1        0.0014
     10 N           3.1800    0.1282   -2.3033 N.am    1  LIG1       -0.1996
     11 N           0.6441    0.0577   -0.0276 N.4     1  LIG1        0.3874
     12 O           2.6161    2.0339   -1.1270 O.2     1  LIG1       -0.2773
     13 O           3.6882    0.9181   -3.3430 O.3     1  LIG1       -0.2968
     14 I           8.4849   -2.6425    1.8306 I       1  LIG1       -0.0443
     15 H           3.3327   -2.3247    2.1897 H       1  LIG1        0.0626
     16 H           5.2329    1.1668    0.5297 H       1  LIG1        0.0626
     17 H           5.5209   -3.4067    2.4367 H       1  LIG1        0.0634
     18 H           7.4273    0.0972    0.7737 H       1  LIG1        0.0634
     19 H           2.1494   -0.1991    2.0103 H       1  LIG1        0.0304
     20 H           2.8815    1.2361    1.3502 H       1  LIG1        0.0304
     21 H           2.2623   -1.1633   -0.4837 H       1  LIG1        0.0187
     22 H           3.1944   -0.8847   -2.3411 H       1  LIG1        0.1835
     23 H           0.4200    0.5257    0.8532 H       1  LIG1       -0.0891
     24 H           0.1690   -0.8477   -0.0429 H       1  LIG1       -0.0891
     25 H           0.2831    0.6258   -0.7971 H       1  LIG1       -0.0891
     26 H           3.5172    1.8052   -2.9838 H       1  LIG1        0.2427
@<TRIPOS>BOND
     1     1     3   ar
     2     1     5   ar
     3     2     4   ar
     4     2     5   ar
     5     3     6   ar
     6     4     6   ar
     7     5     8    1
     8     6    14    1
     9     7     9    1
    10     7    10   am
    11     7    12    2
    12     8     9    1
    13     9    11    1
    14    10    13    1
    15     1    15    1
    16     2    16    1
    17     3    17    1
    18     4    18    1
    19     8    19    1
    20     8    20    1
    21     9    21    1
    22    10    22    1
    23    11    23    1
    24    11    24    1
    25    11    25    1
    26    13    26    1
