@<TRIPOS>MOLECULE
DB01445
 32 33 0 0 0
SMALL
USER_CHARGES

@<TRIPOS>ATOM
      1 C           7.6639   -2.4173    1.3990 C.ar    1  LIG1       -0.0376
      2 C           7.1929   -3.7325    1.3501 C.ar    1  LIG1       -0.0302
      3 C           4.8881   -2.9679    1.3310 C.ar    1  LIG1       -0.0226
      4 C           5.6645    0.6019    1.4549 C.ar    1  LIG1       -0.0034
      5 C           5.3392   -1.6339    1.3801 C.ar    1  LIG1        0.0027
      6 C           4.6897   -0.3680    1.4069 C.ar    1  LIG1       -0.0267
      7 C           6.7139   -1.3899    1.4129 C.ar    1  LIG1        0.0377
      8 C           5.8269   -4.0059    1.3166 C.ar    1  LIG1        0.0720
      9 C           0.4312   -1.1272    1.0011 C.3     1  LIG1       -0.1038
     10 C           0.7564    1.2999    0.5495 C.3     1  LIG1       -0.1038
     11 C           3.2330   -0.1266    1.3861 C.3     1  LIG1       -0.0408
     12 C           2.5704   -0.3198    0.0144 C.3     1  LIG1       -0.0875
     13 N           6.8820   -0.0242    1.4579 N.ar    1  LIG1       -0.3203
     14 N           1.1063   -0.1041    0.1210 N.4     1  LIG1        0.3782
     15 O           5.3979   -5.2987    1.2683 O.3     1  LIG1       -0.3609
     16 H           8.7276   -2.2058    1.4256 H       1  LIG1        0.0643
     17 H           7.9100   -4.5502    1.3396 H       1  LIG1        0.0651
     18 H           3.8249   -3.1909    1.3040 H       1  LIG1        0.0657
     19 H           5.6021    1.6807    1.4873 H       1  LIG1        0.0792
     20 H           0.8410   -1.0244    2.0076 H       1  LIG1        0.0022
     21 H          -0.6409   -0.9215    0.9909 H       1  LIG1        0.0022
     22 H           0.6452   -2.1153    0.5895 H       1  LIG1        0.0022
     23 H           1.1738    1.4588    1.5454 H       1  LIG1        0.0022
     24 H           1.1948    1.9893   -0.1746 H       1  LIG1        0.0022
     25 H          -0.3320    1.3839    0.5622 H       1  LIG1        0.0022
     26 H           2.7302   -0.8137    2.0924 H       1  LIG1        0.0297
     27 H           2.9838    0.8847    1.7599 H       1  LIG1        0.0297
     28 H           2.7045   -1.3399   -0.3576 H       1  LIG1        0.0062
     29 H           2.9435    0.3895   -0.7305 H       1  LIG1        0.0062
     30 H           7.7755    0.4470    1.4893 H       1  LIG1        0.1522
     31 H           0.6992   -0.2251   -0.8223 H       1  LIG1       -0.0829
     32 H           4.4288   -5.3290    1.2495 H       1  LIG1        0.2182
@<TRIPOS>BOND
     1     1     2   ar
     2     1     7   ar
     3     2     8   ar
     4     3     5   ar
     5     3     8   ar
     6     4     6   ar
     7     4    13   ar
     8     5     6   ar
     9     5     7   ar
    10     6    11    1
    11     7    13   ar
    12     8    15    1
    13     9    14    1
    14    10    14    1
    15    11    12    1
    16    12    14    1
    17     1    16    1
    18     2    17    1
    19     3    18    1
    20     4    19    1
    21     9    20    1
    22     9    21    1
    23     9    22    1
    24    10    23    1
    25    10    24    1
    26    10    25    1
    27    11    26    1
    28    11    27    1
    29    12    28    1
    30    12    29    1
    31    13    30    1
    32    14    31    1
    33    15    32    1
