@<TRIPOS>MOLECULE
DB01976
 26 28 0 0 0
SMALL
USER_CHARGES

@<TRIPOS>ATOM
      1 C           7.4640   -3.4269    1.6087 C.ar    1  LIG1       -0.0616
      2 C           6.4443   -4.1371    0.9832 C.ar    1  LIG1       -0.0616
      3 C           3.2134    2.5269    1.7788 C.ar    1  LIG1       -0.0598
      4 C           7.2733   -2.0879    1.9504 C.ar    1  LIG1       -0.0543
      5 C           5.2314   -3.5100    0.6976 C.ar    1  LIG1       -0.0543
      6 C           4.4263    1.8998    2.0643 C.ar    1  LIG1       -0.0542
      7 C           2.1937    1.8168    1.1530 C.ar    1  LIG1       -0.0407
      8 C           5.8504   -0.0936    2.0077 C.ar    1  LIG1       -0.0464
      9 C           3.8073   -1.5165    0.7541 C.ar    1  LIG1       -0.0446
     10 C           6.0580   -1.4414    1.6700 C.ar    1  LIG1       -0.0177
     11 C           5.0230   -2.1623    1.0350 C.ar    1  LIG1       -0.0177
     12 C           4.6348    0.5520    1.7269 C.ar    1  LIG1       -0.0159
     13 C           3.5997   -0.1687    1.0917 C.ar    1  LIG1        0.0031
     14 C           2.3845    0.4778    0.8112 C.ar    1  LIG1        0.0313
     15 N           1.3138   -0.1969    0.1744 N.pl3   1  LIG1       -0.3578
     16 H           8.4086   -3.9145    1.8317 H       1  LIG1        0.0623
     17 H           6.5917   -5.1797    0.7173 H       1  LIG1        0.0623
     18 H           3.0650    3.5693    2.0450 H       1  LIG1        0.0623
     19 H           8.0844   -1.5520    2.4391 H       1  LIG1        0.0629
     20 H           4.4481   -4.0852    0.2081 H       1  LIG1        0.0629
     21 H           5.2098    2.4744    2.5541 H       1  LIG1        0.0629
     22 H           1.2534    2.3171    0.9351 H       1  LIG1        0.0642
     23 H           6.6494    0.4628    2.4979 H       1  LIG1        0.0636
     24 H           3.0201   -2.0882    0.2638 H       1  LIG1        0.0636
     25 H           0.4535    0.2875    0.0364 H       1  LIG1        0.1427
     26 H           1.4126   -1.1665   -0.0352 H       1  LIG1        0.1427
@<TRIPOS>BOND
     1     1     2   ar
     2     1     4   ar
     3     2     5   ar
     4     3     6   ar
     5     3     7   ar
     6     4    10   ar
     7     5    11   ar
     8     6    12   ar
     9     7    14   ar
    10     8    10   ar
    11     8    12   ar
    12     9    11   ar
    13     9    13   ar
    14    10    11   ar
    15    12    13   ar
    16    13    14   ar
    17    14    15    1
    18     1    16    1
    19     2    17    1
    20     3    18    1
    21     4    19    1
    22     5    20    1
    23     6    21    1
    24     7    22    1
    25     8    23    1
    26     9    24    1
    27    15    25    1
    28    15    26    1
