@<TRIPOS>MOLECULE
DB01579
 32 33 0 0 0
SMALL
USER_CHARGES

@<TRIPOS>ATOM
      1 C           7.1814   -1.2290    1.6249 C.ar    1  LIG1       -0.0622
      2 C           6.9420    0.1348    1.7931 C.ar    1  LIG1       -0.0619
      3 C           6.1293   -2.0878    1.3067 C.ar    1  LIG1       -0.0619
      4 C           5.6504    0.6399    1.6432 C.ar    1  LIG1       -0.0565
      5 C           4.8377   -1.5827    1.1570 C.ar    1  LIG1       -0.0565
      6 C           4.5983   -0.2189    1.3252 C.ar    1  LIG1       -0.0209
      7 C           1.1055    1.6608   -0.2600 C.3     1  LIG1       -0.0666
      8 C           2.0545    2.3324    0.7174 C.3     1  LIG1        0.0328
      9 C           3.2170    0.3204    1.1651 C.3     1  LIG1        0.0704
     10 C           2.3710   -0.4908    0.1599 C.3     1  LIG1       -0.0504
     11 C           2.9995   -0.6034   -1.2334 C.3     1  LIG1       -0.0747
     12 C          -0.0162   -0.5263   -0.7407 C.3     1  LIG1       -0.1028
     13 N           1.0048    0.1953    0.0942 N.4     1  LIG1        0.3850
     14 O           3.3259    1.6827    0.7273 O.3     1  LIG1       -0.3770
     15 H           8.1874   -1.6218    1.7402 H       1  LIG1        0.0622
     16 H           7.7614    0.8039    2.0396 H       1  LIG1        0.0623
     17 H           6.3155   -3.1495    1.1747 H       1  LIG1        0.0623
     18 H           5.4733    1.7039    1.7763 H       1  LIG1        0.0626
     19 H           4.0241   -2.2593    0.9093 H       1  LIG1        0.0626
     20 H           0.1011    2.0901   -0.1909 H       1  LIG1        0.0082
     21 H           1.4636    1.7281   -1.2916 H       1  LIG1        0.0082
     22 H           2.2162    3.3729    0.4187 H       1  LIG1        0.0547
     23 H           1.6428    2.3440    1.7337 H       1  LIG1        0.0547
     24 H           2.7515    0.3039    2.1588 H       1  LIG1        0.0638
     25 H           2.1889   -1.4972    0.5571 H       1  LIG1        0.0122
     26 H           3.1820    0.3915   -1.6316 H       1  LIG1        0.0215
     27 H           2.3235   -1.1385   -1.8953 H       1  LIG1        0.0215
     28 H           3.9407   -1.1431   -1.1654 H       1  LIG1        0.0215
     29 H           0.3313   -0.5165   -1.7754 H       1  LIG1        0.0023
     30 H          -0.0957   -1.5473   -0.3628 H       1  LIG1        0.0023
     31 H          -0.9651    0.0044   -0.6405 H       1  LIG1        0.0023
     32 H           0.6336    0.1588    1.0536 H       1  LIG1       -0.0818
@<TRIPOS>BOND
     1     1     2   ar
     2     1     3   ar
     3     2     4   ar
     4     3     5   ar
     5     4     6   ar
     6     5     6   ar
     7     6     9    1
     8     7     8    1
     9     7    13    1
    10     8    14    1
    11     9    10    1
    12     9    14    1
    13    10    11    1
    14    10    13    1
    15    12    13    1
    16     1    15    1
    17     2    16    1
    18     3    17    1
    19     4    18    1
    20     5    19    1
    21     7    20    1
    22     7    21    1
    23     8    22    1
    24     8    23    1
    25     9    24    1
    26    10    25    1
    27    11    26    1
    28    11    27    1
    29    11    28    1
    30    12    29    1
    31    12    30    1
    32    12    31    1
    33    13    32    1
