@<TRIPOS>MOLECULE
DB01460
 37 38 0 0 0
SMALL
USER_CHARGES

@<TRIPOS>ATOM
      1 C           5.8285   -4.0060    1.3153 C.ar    1  LIG1       -0.0615
      2 C           7.1943   -3.7319    1.3511 C.ar    1  LIG1       -0.0603
      3 C           4.8892   -2.9685    1.3290 C.ar    1  LIG1       -0.0528
      4 C           7.6645   -2.4165    1.4016 C.ar    1  LIG1       -0.0402
      5 C           5.6633    0.6015    1.4568 C.ar    1  LIG1       -0.0034
      6 C           5.3394   -1.6343    1.3799 C.ar    1  LIG1        0.0001
      7 C           4.6892   -0.3688    1.4066 C.ar    1  LIG1       -0.0268
      8 C           6.7139   -1.3896    1.4149 C.ar    1  LIG1        0.0375
      9 C           0.7121   -2.5067    0.4963 C.3     1  LIG1       -0.0802
     10 C           1.3438    2.2757   -0.4727 C.3     1  LIG1       -0.0802
     11 C           3.2321   -0.1279    1.3863 C.3     1  LIG1       -0.0408
     12 C           0.4345   -1.1140    1.0186 C.3     1  LIG1       -0.0939
     13 C           0.7542    1.3063    0.5283 C.3     1  LIG1       -0.0939
     14 C           2.5699   -0.3183    0.0142 C.3     1  LIG1       -0.0868
     15 N           6.8812   -0.0239    1.4611 N.ar    1  LIG1       -0.3203
     16 N           1.1057   -0.1036    0.1209 N.4     1  LIG1        0.3816
     17 H           5.4872   -5.0369    1.2757 H       1  LIG1        0.0623
     18 H           7.9064   -4.5532    1.3397 H       1  LIG1        0.0623
     19 H           3.8279   -3.1985    1.2998 H       1  LIG1        0.0630
     20 H           8.7278   -2.2042    1.4307 H       1  LIG1        0.0642
     21 H           5.6002    1.6806    1.4882 H       1  LIG1        0.0792
     22 H           0.2961   -2.6232   -0.5091 H       1  LIG1        0.0211
     23 H           1.7882   -2.7017    0.4419 H       1  LIG1        0.0211
     24 H           0.2601   -3.2685    1.1401 H       1  LIG1        0.0211
     25 H           2.4349    2.1920   -0.4824 H       1  LIG1        0.0211
     26 H           0.9796    2.0702   -1.4847 H       1  LIG1        0.0211
     27 H           1.0859    3.3099   -0.2215 H       1  LIG1        0.0211
     28 H           2.7299   -0.8167    2.0911 H       1  LIG1        0.0297
     29 H           2.9828    0.8824    1.7624 H       1  LIG1        0.0297
     30 H           0.8405   -0.9705    2.0237 H       1  LIG1        0.0056
     31 H          -0.6351   -0.8866    1.0149 H       1  LIG1        0.0056
     32 H          -0.3371    1.3695    0.5581 H       1  LIG1        0.0056
     33 H           1.1620    1.4622    1.5307 H       1  LIG1        0.0056
     34 H           2.7046   -1.3376   -0.3599 H       1  LIG1        0.0062
     35 H           2.9427    0.3927   -0.7291 H       1  LIG1        0.0062
     36 H           7.7744    0.4480    1.4937 H       1  LIG1        0.1522
     37 H           0.6966   -0.2401   -0.8193 H       1  LIG1       -0.0821
@<TRIPOS>BOND
     1     1     2   ar
     2     1     3   ar
     3     2     4   ar
     4     3     6   ar
     5     4     8   ar
     6     5     7   ar
     7     5    15   ar
     8     6     7   ar
     9     6     8   ar
    10     7    11    1
    11     8    15   ar
    12     9    12    1
    13    10    13    1
    14    11    14    1
    15    12    16    1
    16    13    16    1
    17    14    16    1
    18     1    17    1
    19     2    18    1
    20     3    19    1
    21     4    20    1
    22     5    21    1
    23     9    22    1
    24     9    23    1
    25     9    24    1
    26    10    25    1
    27    10    26    1
    28    10    27    1
    29    11    28    1
    30    11    29    1
    31    12    30    1
    32    12    31    1
    33    13    32    1
    34    13    33    1
    35    14    34    1
    36    14    35    1
    37    15    36    1
    38    16    37    1
