@<TRIPOS>MOLECULE
DB01754
 22 23 0 0 0
SMALL
USER_CHARGES

@<TRIPOS>ATOM
      1 C           6.1090   -3.8781    1.3206 C.ar    1  LIG1       -0.0614
      2 C           7.0532   -2.9007    1.5842 C.ar    1  LIG1       -0.0603
      3 C           4.8043   -3.5078    0.9946 C.ar    1  LIG1       -0.0502
      4 C           6.6907   -1.5567    1.5213 C.ar    1  LIG1       -0.0398
      5 C           4.4064   -2.1500    0.9228 C.ar    1  LIG1        0.0326
      6 C           5.3758   -1.1655    1.1934 C.ar    1  LIG1        0.0456
      7 C           2.9823   -1.7926    0.5656 C.ar    1  LIG1        0.1580
      8 C           2.7310   -0.4622    0.5300 C.ar    1  LIG1        0.1700
      9 C           3.7282    0.6110    0.8096 C.ar    1  LIG1        0.2755
     10 C           6.0223    1.2326    1.4157 C.3     1  LIG1        0.0084
     11 N           5.0156    0.2118    1.1322 N.ar    1  LIG1       -0.2681
     12 O           2.1341   -2.7065    0.3279 O.3     1  LIG1       -0.1888
     13 O           3.3580    1.7846    0.7397 O.2     1  LIG1       -0.2688
     14 O           1.4509   -0.0153    0.2110 O.3     1  LIG1       -0.3540
     15 H           6.3813   -4.9283    1.3669 H       1  LIG1        0.0623
     16 H           8.0714   -3.1785    1.8389 H       1  LIG1        0.0623
     17 H           4.1015   -4.3150    0.7963 H       1  LIG1        0.0630
     18 H           7.4668   -0.8277    1.7368 H       1  LIG1        0.0643
     19 H           6.5376    1.5180    0.4949 H       1  LIG1        0.0437
     20 H           6.7591    0.8496    2.1270 H       1  LIG1        0.0437
     21 H           5.5500    2.1206    1.8443 H       1  LIG1        0.0437
     22 H           0.8857   -0.7721    0.0493 H       1  LIG1        0.2185
@<TRIPOS>BOND
     1     1     2   ar
     2     1     3   ar
     3     2     4   ar
     4     3     5   ar
     5     4     6   ar
     6     5     6   ar
     7     5     7   ar
     8     6    11   ar
     9     7     8   ar
    10     7    12    1
    11     8     9   ar
    12     8    14    1
    13     9    11   ar
    14     9    13    2
    15    10    11    1
    16     1    15    1
    17     2    16    1
    18     3    17    1
    19     4    18    1
    20    10    19    1
    21    10    20    1
    22    10    21    1
    23    14    22    1
