@<TRIPOS>MOLECULE
DB01486
 25 25 0 0 0
SMALL
USER_CHARGES

@<TRIPOS>ATOM
      1 C           7.1643   -1.2517    1.6345 C.ar    1  LIG1       -0.0622
      2 C           6.9323    0.1080    1.8420 C.ar    1  LIG1       -0.0619
      3 C           6.1127   -2.0903    1.2650 C.ar    1  LIG1       -0.0619
      4 C           5.6487    0.6291    1.6801 C.ar    1  LIG1       -0.0565
      5 C           4.8290   -1.5690    1.1030 C.ar    1  LIG1       -0.0565
      6 C           4.5970   -0.2094    1.3106 C.ar    1  LIG1       -0.0212
      7 C           2.9012   -0.2833   -1.3332 C.3     1  LIG1       -0.0756
      8 C           3.2038    0.3554    1.1349 C.3     1  LIG1        0.0661
      9 C           2.3656   -0.4046    0.0899 C.3     1  LIG1       -0.0559
     10 N           0.9809    0.1648    0.0878 N.4     1  LIG1        0.3831
     11 O           3.3590    1.7197    0.7362 O.3     1  LIG1       -0.3901
     12 H           8.1641   -1.6570    1.7593 H       1  LIG1        0.0622
     13 H           7.7512    0.7613    2.1287 H       1  LIG1        0.0623
     14 H           6.2931   -3.1487    1.1022 H       1  LIG1        0.0623
     15 H           5.4772    1.6897    1.8441 H       1  LIG1        0.0626
     16 H           4.0157   -2.2299    0.8150 H       1  LIG1        0.0626
     17 H           3.0318    0.7652   -1.6228 H       1  LIG1        0.0215
     18 H           2.2151   -0.7470   -2.0507 H       1  LIG1        0.0215
     19 H           3.8672   -0.7869   -1.4382 H       1  LIG1        0.0215
     20 H           2.6871    0.3606    2.1033 H       1  LIG1        0.0634
     21 H           2.2404   -1.4575    0.3651 H       1  LIG1        0.0112
     22 H           1.0181    1.1842    0.0480 H       1  LIG1       -0.0898
     23 H           0.4847   -0.1116    0.9362 H       1  LIG1       -0.0898
     24 H           0.4602   -0.1756   -0.7217 H       1  LIG1       -0.0898
     25 H           3.8449    2.1577    1.4502 H       1  LIG1        0.2108
@<TRIPOS>BOND
     1     1     2   ar
     2     1     3   ar
     3     2     4   ar
     4     3     5   ar
     5     4     6   ar
     6     5     6   ar
     7     6     8    1
     8     7     9    1
     9     8     9    1
    10     8    11    1
    11     9    10    1
    12     1    12    1
    13     2    13    1
    14     3    14    1
    15     4    15    1
    16     5    16    1
    17     7    17    1
    18     7    18    1
    19     7    19    1
    20     8    20    1
    21     9    21    1
    22    10    22    1
    23    10    23    1
    24    10    24    1
    25    11    25    1
