@<TRIPOS>MOLECULE
DB01446
 28 29 0 0 0
SMALL
USER_CHARGES

@<TRIPOS>ATOM
      1 C           5.8311   -3.9808    1.3045 C.ar    1  LIG1       -0.0615
      2 C           7.1851   -3.6519    1.3041 C.ar    1  LIG1       -0.0603
      3 C           4.8514   -2.9824    1.3531 C.ar    1  LIG1       -0.0528
      4 C           7.6032   -2.3189    1.3520 C.ar    1  LIG1       -0.0402
      5 C           5.4844    0.6152    1.4876 C.ar    1  LIG1       -0.0034
      6 C           5.2488   -1.6314    1.4019 C.ar    1  LIG1        0.0001
      7 C           4.5491   -0.3935    1.4571 C.ar    1  LIG1       -0.0266
      8 C           6.6127   -1.3314    1.4002 C.ar    1  LIG1        0.0375
      9 C           2.5532    1.7634   -0.0453 C.3     1  LIG1       -0.0780
     10 C           3.0834   -0.2117    1.4798 C.3     1  LIG1       -0.0391
     11 C           2.4716    0.2537    0.1398 C.3     1  LIG1       -0.0828
     12 N           6.7261    0.0396    1.4527 N.ar    1  LIG1       -0.3203
     13 N           1.0317   -0.1339    0.0965 N.4     1  LIG1        0.3813
     14 H           5.5307   -5.0244    1.2663 H       1  LIG1        0.0623
     15 H           7.9292   -4.4434    1.2660 H       1  LIG1        0.0623
     16 H           3.7999   -3.2550    1.3518 H       1  LIG1        0.0630
     17 H           8.6575   -2.0639    1.3527 H       1  LIG1        0.0642
     18 H           5.3787    1.6905    1.5294 H       1  LIG1        0.0792
     19 H           2.0810    2.2877    0.7926 H       1  LIG1        0.0214
     20 H           3.5921    2.1043   -0.1143 H       1  LIG1        0.0214
     21 H           2.0363    2.0676   -0.9615 H       1  LIG1        0.0214
     22 H           2.8178    0.5363    2.2515 H       1  LIG1        0.0300
     23 H           2.5673   -1.1357    1.8058 H       1  LIG1        0.0300
     24 H           2.9483   -0.2527   -0.7067 H       1  LIG1        0.0085
     25 H           7.6001    0.5471    1.4639 H       1  LIG1        0.1522
     26 H           0.7974   -0.5434   -0.8109 H       1  LIG1       -0.0899
     27 H           0.4360    0.6842    0.2450 H       1  LIG1       -0.0899
     28 H           0.8233   -0.8214    0.8245 H       1  LIG1       -0.0899
@<TRIPOS>BOND
     1     1     2   ar
     2     1     3   ar
     3     2     4   ar
     4     3     6   ar
     5     4     8   ar
     6     5     7   ar
     7     5    12   ar
     8     6     7   ar
     9     6     8   ar
    10     7    10    1
    11     8    12   ar
    12     9    11    1
    13    10    11    1
    14    11    13    1
    15     1    14    1
    16     2    15    1
    17     3    16    1
    18     4    17    1
    19     5    18    1
    20     9    19    1
    21     9    20    1
    22     9    21    1
    23    10    22    1
    24    10    23    1
    25    11    24    1
    26    12    25    1
    27    13    26    1
    28    13    27    1
    29    13    28    1
