@<TRIPOS>MOLECULE
DB01699
 20 19 0 0 0
SMALL
USER_CHARGES

@<TRIPOS>ATOM
      1 C           6.1021   -2.1978    1.2985 C.2     1  LIG1        0.0000
      2 C           4.8669   -1.8543    1.5673 C.2     1  LIG1        0.0000
      3 C           3.3794    1.2318   -0.0951 C.2     1  LIG1        0.0000
      4 C           6.5321   -3.6353    1.4400 C.3     1  LIG1        0.0000
      5 C           4.4369   -0.4168    1.4258 C.3     1  LIG1        0.0000
      6 C           3.8095   -0.2056    0.0464 C.3     1  LIG1        0.0000
      7 N           3.9476   -2.8209    1.9854 N.pl3   1  LIG1        0.0000
      8 O           2.8528    1.6118   -1.1269 O.co2   1  LIG1       -0.5000
      9 O           3.5582    2.0147    0.8223 O.co2   1  LIG1       -0.5000
     10 H           6.8122   -1.4510    0.9754 H       1  LIG1        0.0000
     11 H           7.5854   -3.7272    1.1748 H       1  LIG1        0.0000
     12 H           6.3875   -3.9580    2.4710 H       1  LIG1        0.0000
     13 H           5.9345   -4.2603    0.7764 H       1  LIG1        0.0000
     14 H           3.7053   -0.1787    2.1980 H       1  LIG1        0.0000
     15 H           5.3043    0.2343    1.5339 H       1  LIG1        0.0000
     16 H           4.5410   -0.4436   -0.7258 H       1  LIG1        0.0000
     17 H           2.9421   -0.8567   -0.0618 H       1  LIG1        0.0000
     18 H           4.4010   -3.7214    2.0249 H       1  LIG1        0.0000
     19 H           3.5988   -2.5796    2.9009 H       1  LIG1        0.0000
     20 H           3.1796   -2.8594    1.3323 H       1  LIG1        0.0000
@<TRIPOS>BOND
     1     1     2    2
     2     1     4    1
     3     2     5    1
     4     2     7    1
     5     3     6    1
     6     3     8   ar
     7     3     9   ar
     8     5     6    1
     9     1    10    1
    10     4    11    1
    11     4    12    1
    12     4    13    1
    13     5    14    1
    14     5    15    1
    15     6    16    1
    16     6    17    1
    17     7    18    1
    18     7    19    1
    19     7    20    1
