@<TRIPOS>MOLECULE
DB02000
 23 23 0 0 0
SMALL
USER_CHARGES

@<TRIPOS>ATOM
      1 C           7.4189   -3.8124    1.4906 C.ar    1  LIG1        0.0000
      2 C           7.7198   -2.5148    1.9042 C.ar    1  LIG1        0.0000
      3 C           6.1396   -4.1175    1.0258 C.ar    1  LIG1        0.0000
      4 C           6.7411   -1.5220    1.8531 C.ar    1  LIG1        0.0000
      5 C           5.1611   -3.1248    0.9748 C.ar    1  LIG1        0.0000
      6 C           5.4618   -1.8270    1.3884 C.ar    1  LIG1        0.0000
      7 C           2.8724    1.5668   -0.0855 C.2     1  LIG1        0.0000
      8 C           4.4034   -0.7545    1.3332 C.3     1  LIG1        0.0000
      9 C           2.3241    0.1513    0.1174 C.3     1  LIG1        0.0000
     10 C           3.3714   -0.9569    0.2159 C.3     1  LIG1        0.0000
     11 O           3.5597    2.0372    0.8626 O.co2   1  LIG1       -0.5000
     12 O           2.5772    2.0876   -1.1990 O.co2   1  LIG1       -0.5000
     13 H           8.1814   -4.5850    1.5291 H       1  LIG1        0.0000
     14 H           8.7161   -2.2768    2.2650 H       1  LIG1        0.0000
     15 H           5.9054   -5.1274    0.7026 H       1  LIG1        0.0000
     16 H           6.9845   -0.5137    2.1776 H       1  LIG1        0.0000
     17 H           4.1670   -3.3716    0.6114 H       1  LIG1        0.0000
     18 H           4.9040    0.2110    1.1831 H       1  LIG1        0.0000
     19 H           3.9002   -0.6731    2.3042 H       1  LIG1        0.0000
     20 H           1.6747    0.1342    1.0006 H       1  LIG1        0.0000
     21 H           1.6772   -0.0572   -0.7442 H       1  LIG1        0.0000
     22 H           2.8537   -1.9136    0.3591 H       1  LIG1        0.0000
     23 H           3.9071   -1.0381   -0.7380 H       1  LIG1        0.0000
@<TRIPOS>BOND
     1     1     2   ar
     2     1     3   ar
     3     2     4   ar
     4     3     5   ar
     5     4     6   ar
     6     5     6   ar
     7     6     8    1
     8     7     9    1
     9     7    11   ar
    10     7    12   ar
    11     8    10    1
    12     9    10    1
    13     1    13    1
    14     2    14    1
    15     3    15    1
    16     4    16    1
    17     5    17    1
    18     8    18    1
    19     8    19    1
    20     9    20    1
    21     9    21    1
    22    10    22    1
    23    10    23    1
