@<TRIPOS>MOLECULE
DB02087
 17 17 0 0 0
SMALL
USER_CHARGES

@<TRIPOS>ATOM
      1 C           5.9228   -0.8714    2.1369 C.ar    1  LIG1        0.0097
      2 C           4.3115    0.6886    1.2889 C.ar    1  LIG1       -0.0035
      3 C           4.4139   -1.5298    0.3936 C.ar    1  LIG1       -0.0035
      4 C           5.3501    0.3886    2.1543 C.ar    1  LIG1        0.1275
      5 C           5.4563   -1.8303    1.2541 C.ar    1  LIG1        0.1275
      6 C           3.8467   -0.2695    0.4081 C.ar    1  LIG1        0.0598
      7 N           1.1106   -0.2606    0.0831 N.3     1  LIG1       -0.3036
      8 O           2.6344   -0.8127   -1.7645 O.2     1  LIG1       -0.4766
      9 O           2.5304    1.5285   -0.8244 O.2     1  LIG1       -0.4766
     10 F           5.8047    1.3255    3.0149 F       1  LIG1       -0.2068
     11 F           6.0146   -3.0604    1.2357 F       1  LIG1       -0.2068
     12 S           2.5251    0.1136   -0.6925 S.O2    1  LIG1       -0.1704
     13 H           6.7331   -1.1062    2.8112 H       1  LIG1        0.0684
     14 H           3.8648    1.6718    1.3021 H       1  LIG1        0.0673
     15 H           4.0497   -2.2778   -0.2950 H       1  LIG1        0.0673
     16 H           0.5087   -0.9193   -0.2972 H       1  LIG1        0.1601
     17 H           0.8861    0.1760    0.9197 H       1  LIG1        0.1601
@<TRIPOS>BOND
     1     1     4   ar
     2     1     5   ar
     3     2     4   ar
     4     2     6   ar
     5     3     5   ar
     6     3     6   ar
     7     4    10    1
     8     5    11    1
     9     6    12    1
    10     7    12    1
    11     8    12    2
    12     9    12    2
    13     1    13    1
    14     2    14    1
    15     3    15    1
    16     7    16    1
    17     7    17    1
