@<TRIPOS>MOLECULE
DB02884
 29 29 0 0 0
SMALL
USER_CHARGES

@<TRIPOS>ATOM
      1 C           2.8512    1.5495   -0.0833 C.2     1  PHE1        0.0000
      2 CZ          6.3000   -1.0033    2.5730 C.3     1  PHE1        0.0000
      3 CE1         6.5698   -0.5328    1.1472 C.3     1  PHE1        0.0000
      4 CE2         5.3328   -2.1826    2.6011 C.3     1  PHE1        0.0000
      5 CD1         5.2742   -0.2122    0.4051 C.3     1  PHE1        0.0000
      6 CD2         4.0353   -1.8650    1.8615 C.3     1  PHE1        0.0000
      7 CG          4.3021   -1.3996    0.4236 C.3     1  PHE1        0.0000
      8 CB          2.9943   -1.0371   -0.2775 C.3     1  PHE1        0.0000
      9 CA          2.2747    0.1793    0.3140 C.3     1  PHE1        0.0000
     10 N           0.8137    0.0201    0.0298 N.4     1  PHE1        0.0000
     11 O           2.8235    1.8220   -1.3163 O.co2   1  PHE1       -0.5000
     12 OXT         3.2639    2.2584    0.8789 O.co2   1  PHE1       -0.5000
     13 HZ1         7.2432   -1.2886    3.0526 H       1  PHE1        0.0000
     14 HZ2         5.8817   -0.1744    3.1574 H       1  PHE1        0.0000
     15 HE11        7.2122    0.3546    1.1679 H       1  PHE1        0.0000
     16 HE12        7.1185   -1.3117    0.6036 H       1  PHE1        0.0000
     17 HE21        5.8104   -3.0568    2.1417 H       1  PHE1        0.0000
     18 HE22        5.1088   -2.4504    3.6400 H       1  PHE1        0.0000
     19 HD11        4.8019    0.6644    0.8668 H       1  PHE1        0.0000
     20 HD12        5.5094    0.0626   -0.6301 H       1  PHE1        0.0000
     21 HD21        3.3966   -2.7563    1.8540 H       1  PHE1        0.0000
     22 HD22        3.4886   -1.0872    2.4099 H       1  PHE1        0.0000
     23 HG          4.7613   -2.2304   -0.1286 H       1  PHE1        0.0000
     24 HB1         2.3303   -1.9089   -0.2424 H       1  PHE1        0.0000
     25 HB2         3.2089   -0.8602   -1.3374 H       1  PHE1        0.0000
     26 HA          2.3572    0.1248    1.4068 H       1  PHE1        0.0000
     27 H1          0.5072   -0.9231    0.2716 H       1  PHE1        0.0000
     28 H2          0.6273    0.1805   -0.9612 H       1  PHE1        0.0000
     29 H3          0.2720    0.6905    0.5771 H       1  PHE1        0.0000
@<TRIPOS>BOND
     1     1     9    1
     2     1    11   ar
     3     1    12   ar
     4     2     3    1
     5     2     4    1
     6     3     5    1
     7     4     6    1
     8     5     7    1
     9     6     7    1
    10     7     8    1
    11     8     9    1
    12     9    10    1
    13     2    13    1
    14     2    14    1
    15     3    15    1
    16     3    16    1
    17     4    17    1
    18     4    18    1
    19     5    19    1
    20     5    20    1
    21     6    21    1
    22     6    22    1
    23     7    23    1
    24     8    24    1
    25     8    25    1
    26     9    26    1
    27    10    27    1
    28    10    28    1
    29    10    29    1
