@<TRIPOS>MOLECULE
DB02740
 27 28 0 0 0
SMALL
USER_CHARGES

@<TRIPOS>ATOM
      1 C           5.8976   -3.9416    1.2066 C.ar    1  LIG1        0.0000
      2 C           7.2049   -3.5470    0.9295 C.ar    1  LIG1        0.0000
      3 C           4.9146   -2.9952    1.5182 C.ar    1  LIG1        0.0000
      4 C           7.5715   -2.1983    0.9544 C.ar    1  LIG1        0.0000
      5 C           5.4222    0.6201    1.6981 C.ar    1  LIG1        0.0000
      6 C           5.2605   -1.6296    1.5494 C.ar    1  LIG1        0.0000
      7 C           4.5426   -0.4309    1.8190 C.ar    1  LIG1        0.0000
      8 C           6.5783   -1.2634    1.2674 C.ar    1  LIG1        0.0000
      9 C           1.9596    1.2539   -0.3198 C.2     1  LIG1        0.0000
     10 C           3.1116   -0.3223    2.1685 C.3     1  LIG1        0.0000
     11 C           2.2628   -0.2462   -0.2639 C.3     1  LIG1        0.0000
     12 C           2.1371   -0.8966    1.1130 C.3     1  LIG1        0.0000
     13 N           6.6474    0.1081    1.3649 N.ar    1  LIG1        0.0000
     14 O           1.0510    1.6658    0.4533 O.co2   1  LIG1       -0.5000
     15 O           2.6780    1.9031   -1.1325 O.co2   1  LIG1       -0.5000
     16 H           5.6367   -4.9961    1.1805 H       1  LIG1        0.0000
     17 H           7.9526   -4.2988    0.6900 H       1  LIG1        0.0000
     18 H           3.8996   -3.3188    1.7309 H       1  LIG1        0.0000
     19 H           8.5898   -1.8922    0.7396 H       1  LIG1        0.0000
     20 H           5.2868    1.6863    1.8174 H       1  LIG1        0.0000
     21 H           2.8460    0.7425    2.3211 H       1  LIG1        0.0000
     22 H           2.8952   -0.7945    3.1468 H       1  LIG1        0.0000
     23 H           1.6308   -0.7739   -0.9880 H       1  LIG1        0.0000
     24 H           3.2964   -0.3668   -0.6124 H       1  LIG1        0.0000
     25 H           1.1065   -0.7673    1.4664 H       1  LIG1        0.0000
     26 H           2.2962   -1.9781    1.0212 H       1  LIG1        0.0000
     27 H           7.4823    0.6569    1.2125 H       1  LIG1        0.0000
@<TRIPOS>BOND
     1     1     2   ar
     2     1     3   ar
     3     2     4   ar
     4     3     6   ar
     5     4     8   ar
     6     5     7   ar
     7     5    13   ar
     8     6     7   ar
     9     6     8   ar
    10     7    10    1
    11     8    13   ar
    12     9    11    1
    13     9    14   ar
    14     9    15   ar
    15    10    12    1
    16    11    12    1
    17     1    16    1
    18     2    17    1
    19     3    18    1
    20     4    19    1
    21     5    20    1
    22    10    21    1
    23    10    22    1
    24    11    23    1
    25    11    24    1
    26    12    25    1
    27    12    26    1
    28    13    27    1
