@<TRIPOS>MOLECULE
DB02428
 19 20 0 0 0
SMALL
USER_CHARGES

@<TRIPOS>ATOM
      1 C           7.3848   -3.8595    1.7725 C.ar    1  LIG1        0.0000
      2 C           6.2348   -4.3210    1.1329 C.ar    1  LIG1        0.0000
      3 C           7.5450   -2.5377    2.0562 C.ar    1  LIG1        0.0000
      4 C           6.6683   -0.2508    1.9804 C.ar    1  LIG1        0.0000
      5 C           5.2396   -3.4664    0.7746 C.ar    1  LIG1        0.0000
      6 C           5.6523    0.5820    1.6088 C.ar    1  LIG1        0.0000
      7 C           6.5388   -1.6244    1.7027 C.ar    1  LIG1        0.0000
      8 C           5.3666   -2.0910    1.0513 C.ar    1  LIG1        0.0000
      9 CA          4.5192    0.0574    0.9683 C.ar    1  LIG1        0.0000
     10 C           3.4245    0.9720    0.5707 C.2     1  LIG1        0.0000
     11 N           4.4071   -1.2320    0.7118 N.ar    1  LIG1        0.0000
     12 O           3.5139    2.1689    0.8015 O.co2   1  LIG1       -0.5000
     13 OXT         2.4315    0.5299    0.0116 O.co2   1  LIG1       -0.5000
     14 H           8.1596   -4.5605    2.0459 H       1  LIG1        0.0000
     15 H           6.1326   -5.3747    0.9188 H       1  LIG1        0.0000
     16 H           8.4408   -2.1936    2.5517 H       1  LIG1        0.0000
     17 H           7.5483    0.1343    2.4740 H       1  LIG1        0.0000
     18 H           4.3554   -3.8407    0.2802 H       1  LIG1        0.0000
     19 H           5.7206    1.6415    1.8070 H       1  LIG1        0.0000
@<TRIPOS>BOND
     1     1     2   ar
     2     1     3   ar
     3     2     5   ar
     4     3     7   ar
     5     4     6   ar
     6     4     7   ar
     7     5     8   ar
     8     6     9   ar
     9     7     8   ar
    10     8    11   ar
    11     9    10    1
    12     9    11   ar
    13    10    12   ar
    14    10    13   ar
    15     1    14    1
    16     2    15    1
    17     3    16    1
    18     4    17    1
    19     5    18    1
    20     6    19    1
