@<TRIPOS>MOLECULE
DB02036
 26 27 0 0 0
SMALL
USER_CHARGES

@<TRIPOS>ATOM
      1 C           7.5530   -3.6291    1.4586 C.ar    1  LIG1       -0.0603
      2 C           6.2784   -4.1752    1.3306 C.ar    1  LIG1       -0.0610
      3 C           7.7082   -2.2519    1.6128 C.ar    1  LIG1       -0.0396
      4 C           5.1568   -3.3457    1.3623 C.ar    1  LIG1       -0.0467
      5 C           6.5876   -1.4123    1.6218 C.ar    1  LIG1        0.0462
      6 C           5.3051   -1.9606    1.5055 C.ar    1  LIG1        0.0295
      7 C           5.8451    0.9596    1.6811 C.2     1  LIG1        0.2300
      8 C           2.4666    1.5823   -0.0424 C.2     1  LIG1        0.2360
      9 C           4.5584    0.5861    0.9608 C.3     1  LIG1        0.0951
     10 C           3.5150    1.6949    1.0440 C.3     1  LIG1        0.0474
     11 N           6.7969   -0.0325    1.8110 N.am    1  LIG1       -0.2834
     12 N           1.4033    0.8136    0.3649 N.am    1  LIG1       -0.1981
     13 O           6.0797    2.1193    2.0293 O.2     1  LIG1       -0.2760
     14 O           2.5732    2.1140   -1.1444 O.2     1  LIG1       -0.2754
     15 O           0.3783    0.6434   -0.5751 O.3     1  LIG1       -0.2967
     16 S           3.8546   -0.9395    1.6347 S.3     1  LIG1       -0.1104
     17 H           8.4252   -4.2759    1.4438 H       1  LIG1        0.0623
     18 H           6.1564   -5.2484    1.2172 H       1  LIG1        0.0623
     19 H           8.7098   -1.8420    1.7188 H       1  LIG1        0.0643
     20 H           4.1703   -3.7961    1.2800 H       1  LIG1        0.0635
     21 H           4.8081    0.4191   -0.0942 H       1  LIG1        0.0525
     22 H           3.0194    1.6513    2.0179 H       1  LIG1        0.0382
     23 H           4.0123    2.6650    0.9545 H       1  LIG1        0.0382
     24 H           7.7281    0.2533    2.1023 H       1  LIG1        0.1557
     25 H           1.3630    0.3957    1.2878 H       1  LIG1        0.1836
     26 H           0.7342    1.1603   -1.3173 H       1  LIG1        0.2427
@<TRIPOS>BOND
     1     1     2   ar
     2     1     3   ar
     3     2     4   ar
     4     3     5   ar
     5     4     6   ar
     6     5     6   ar
     7     5    11    1
     8     6    16    1
     9     7     9    1
    10     7    11   am
    11     7    13    2
    12     8    10    1
    13     8    12   am
    14     8    14    2
    15     9    10    1
    16     9    16    1
    17    12    15    1
    18     1    17    1
    19     2    18    1
    20     3    19    1
    21     4    20    1
    22     9    21    1
    23    10    22    1
    24    10    23    1
    25    11    24    1
    26    12    25    1
    27    15    26    1
