@<TRIPOS>MOLECULE
DB02494
 21 21 0 0 0
SMALL
USER_CHARGES

@<TRIPOS>ATOM
      1 C           7.2508   -3.6523    1.2867 C.ar    1  LIG1        0.0000
      2 C           5.9512   -3.9661    0.8895 C.ar    1  LIG1        0.0000
      3 C           7.5709   -2.3461    1.6570 C.ar    1  LIG1        0.0000
      4 C           4.9713   -2.9737    0.8625 C.ar    1  LIG1        0.0000
      5 C           6.5910   -1.3536    1.6300 C.ar    1  LIG1        0.0000
      6 C           5.2912   -1.6674    1.2327 C.ar    1  LIG1        0.0000
      7 C           3.4208    1.4619   -0.1224 C.2     1  LIG1        0.0000
      8 C           4.2441   -0.6057    1.2039 C.3     1  LIG1        0.0000
      9 C           4.1629    0.1170   -0.1498 C.3     1  LIG1        0.0000
     10 O           3.5623    2.1114    0.9544 O.co2   1  LIG1       -0.5000
     11 O           2.7684    1.7671   -1.1585 O.co2   1  LIG1       -0.5000
     12 O           3.4580   -0.7163   -1.0696 O.3     1  LIG1        0.0000
     13 H           8.0134   -4.4254    1.3090 H       1  LIG1        0.0000
     14 H           5.7016   -4.9833    0.6022 H       1  LIG1        0.0000
     15 H           8.5824   -2.1016    1.9674 H       1  LIG1        0.0000
     16 H           3.9614   -3.2274    0.5515 H       1  LIG1        0.0000
     17 H           6.8495   -0.3386    1.9201 H       1  LIG1        0.0000
     18 H           3.2602   -1.0442    1.4473 H       1  LIG1        0.0000
     19 H           4.4449    0.1266    2.0049 H       1  LIG1        0.0000
     20 H           5.1719    0.2840   -0.5465 H       1  LIG1        0.0000
     21 H           3.4855   -0.2636   -1.9262 H       1  LIG1        0.0000
@<TRIPOS>BOND
     1     1     2   ar
     2     1     3   ar
     3     2     4   ar
     4     3     5   ar
     5     4     6   ar
     6     5     6   ar
     7     6     8    1
     8     7     9    1
     9     7    10   ar
    10     7    11   ar
    11     8     9    1
    12     9    12    1
    13     1    13    1
    14     2    14    1
    15     3    15    1
    16     4    16    1
    17     5    17    1
    18     8    18    1
    19     8    19    1
    20     9    20    1
    21    12    21    1
