@<TRIPOS>MOLECULE
DB02891
 21 23 0 0 0
SMALL
USER_CHARGES

@<TRIPOS>ATOM
      1 C           6.9791   -0.3912    1.7783 C.ar    1  LIG1        0.0000
      2 C           6.4466   -1.6626    1.6435 C.ar    1  LIG1        0.0000
      3 C           6.1716    0.7064    1.5385 C.ar    1  LIG1        0.0000
      4 C           5.1355   -1.8517    1.2775 C.ar    1  LIG1        0.0000
      5 C           4.2943   -0.7561    1.0224 C.ar    1  LIG1        0.0000
      6 C           4.8594    0.5157    1.1719 C.ar    1  LIG1        0.0000
      7 C           1.9913   -1.7686    0.3844 C.2     1  LIG1        0.0000
      8 C           2.2840    0.3752    0.4515 C.3     1  LIG1        0.0000
      9 C           4.5951   -3.2521    1.1424 C.3     1  LIG1        0.0000
     10 N           0.8851   -1.1585    0.0703 N.2     1  LIG1        0.0000
     11 N           1.0569    0.1166    0.1097 N.pl3   1  LIG1        0.0000
     12 N           2.9479   -0.8040    0.6456 N.pl3   1  LIG1        0.0000
     13 S           3.5159    1.6107    0.7815 S.3     1  LIG1        0.0000
     14 H           8.0111   -0.2582    2.0673 H       1  LIG1        0.0000
     15 H           7.0738   -2.5219    1.8297 H       1  LIG1        0.0000
     16 H           6.5685    1.7058    1.6388 H       1  LIG1        0.0000
     17 H           2.1367   -2.8377    0.4321 H       1  LIG1        0.0000
     18 H           4.7469   -3.6032    0.1218 H       1  LIG1        0.0000
     19 H           5.1179   -3.9116    1.8351 H       1  LIG1        0.0000
     20 H           3.5297   -3.2542    1.3727 H       1  LIG1        0.0000
     21 H           0.3770    0.7806   -0.0849 H       1  LIG1        0.0000
@<TRIPOS>BOND
     1     1     2   ar
     2     1     3   ar
     3     2     4   ar
     4     3     6   ar
     5     4     5   ar
     6     4     9    1
     7     5     6   ar
     8     5    12    1
     9     6    13    1
    10     7    10    2
    11     7    12    1
    12     8    11    1
    13     8    12    1
    14     8    13    1
    15    10    11    1
    16     1    14    1
    17     2    15    1
    18     3    16    1
    19     7    17    1
    20     9    18    1
    21     9    19    1
    22     9    20    1
    23    11    21    1
