@<TRIPOS>MOLECULE
DB02024
 20 20 0 0 0
SMALL
USER_CHARGES

@<TRIPOS>ATOM
      1 C           6.7668   -3.8865    1.2782 C.ar    1  LIG1        0.0000
      2 C           5.4655   -3.7719    1.7303 C.ar    1  LIG1        0.0000
      3 C           7.4381   -2.7708    0.8142 C.ar    1  LIG1        0.0000
      4 C           4.8358   -2.5414    1.7190 C.ar    1  LIG1        0.0000
      5 C           6.8069   -1.5411    0.7988 C.ar    1  LIG1        0.0000
      6 C           5.5074   -1.4254    1.2559 C.ar    1  LIG1        0.0000
      7 C           3.4107    1.4477   -0.1035 C.2     1  LIG1        0.0000
      8 C           4.8209   -0.0840    1.2434 C.3     1  LIG1        0.0000
      9 C           4.0971    0.1062   -0.0911 C.3     1  LIG1        0.0000
     10 O           2.7775    1.7994   -1.0843 O.co2   1  LIG1       -0.5000
     11 O           3.4926    2.1835    0.8652 O.co2   1  LIG1       -0.5000
     12 H           7.2590   -4.8478    1.2878 H       1  LIG1        0.0000
     13 H           4.9410   -4.6436    2.0928 H       1  LIG1        0.0000
     14 H           8.4549   -2.8603    0.4613 H       1  LIG1        0.0000
     15 H           3.8191   -2.4518    2.0722 H       1  LIG1        0.0000
     16 H           7.3314   -0.6694    0.4363 H       1  LIG1        0.0000
     17 H           5.5623    0.7049    1.3703 H       1  LIG1        0.0000
     18 H           4.0984   -0.0380    2.0583 H       1  LIG1        0.0000
     19 H           3.3558   -0.6826   -0.2181 H       1  LIG1        0.0000
     20 H           4.8197    0.0603   -0.9060 H       1  LIG1        0.0000
@<TRIPOS>BOND
     1     1     2   ar
     2     1     3   ar
     3     2     4   ar
     4     3     5   ar
     5     4     6   ar
     6     5     6   ar
     7     6     8    1
     8     7     9    1
     9     7    10   ar
    10     7    11   ar
    11     8     9    1
    12     1    12    1
    13     2    13    1
    14     3    14    1
    15     4    15    1
    16     5    16    1
    17     8    17    1
    18     8    18    1
    19     9    19    1
    20     9    20    1
