@<TRIPOS>MOLECULE
DB02292
 36 38 0 0 0
SMALL
USER_CHARGES

@<TRIPOS>ATOM
      1 C           4.4136   -1.7992    2.3146 C.ar    1  LIG1       -0.0493
      2 C           3.8053   -0.6528    1.8902 C.ar    1  LIG1       -0.0286
      3 C           5.5384   -0.2998    0.2480 C.ar    1  LIG1        0.0023
      4 C           5.6048   -2.2164    1.7101 C.ar    1  LIG1        0.0093
      5 C           6.1721   -1.4576    0.6720 C.ar    1  LIG1        0.0959
      6 C           4.3618    0.1023    0.8600 C.ar    1  LIG1        0.1063
      7 C           6.2748   -3.4502    2.1480 C.ar    1  LIG1       -0.0288
      8 C           7.4317   -3.7931    1.5501 C.ar    1  LIG1        0.0288
      9 C           7.9444   -2.9821    0.5058 C.ar    1  LIG1        0.2940
     10 C           5.6103   -4.2667    3.2257 C.3     1  LIG1       -0.0267
     11 C           8.2302   -5.0039    1.9523 C.3     1  LIG1       -0.0215
     12 C           6.6369   -5.0383    4.0550 C.3     1  LIG1       -0.0492
     13 C           7.3466   -6.2530    1.9927 C.3     1  LIG1       -0.0490
     14 C           6.8326   -6.4177    3.4207 C.3     1  LIG1       -0.0527
     15 N           1.4812    0.0974    0.0659 N.3     1  LIG1       -0.2849
     16 O           8.9841   -3.3092   -0.0377 O.2     1  LIG1       -0.2606
     17 O           2.2748    2.0547   -1.1910 O.2     1  LIG1       -0.4579
     18 O           3.4360   -0.1780   -1.3982 O.2     1  LIG1       -0.4579
     19 O           7.3230   -1.8680    0.0980 O.2     1  LIG1       -0.2738
     20 O           3.7434    1.2385    0.4485 O.3     1  LIG1       -0.2266
     21 S           2.7754    0.8373   -0.6553 S.O2    1  LIG1       -0.0775
     22 H           3.9778   -2.3809    3.1132 H       1  LIG1        0.0631
     23 H           2.8866   -0.3290    2.3565 H       1  LIG1        0.0651
     24 H           5.9641    0.2905   -0.5500 H       1  LIG1        0.0679
     25 H           5.0494   -3.6015    3.8821 H       1  LIG1        0.0316
     26 H           4.9215   -4.9738    2.7636 H       1  LIG1        0.0316
     27 H           9.0352   -5.1574    1.2335 H       1  LIG1        0.0318
     28 H           8.6599   -4.8368    2.9400 H       1  LIG1        0.0318
     29 H           7.5842   -4.4991    4.0604 H       1  LIG1        0.0270
     30 H           6.2730   -5.1522    5.0760 H       1  LIG1        0.0270
     31 H           7.9313   -7.1277    1.7078 H       1  LIG1        0.0270
     32 H           6.5059   -6.1319    1.3097 H       1  LIG1        0.0270
     33 H           7.5568   -6.9864    4.0042 H       1  LIG1        0.0267
     34 H           5.8809   -6.9489    3.4054 H       1  LIG1        0.0267
     35 H           1.4886   -0.8622    0.2082 H       1  LIG1        0.1621
     36 H           0.7160    0.6234    0.3461 H       1  LIG1        0.1621
@<TRIPOS>BOND
     1     1     2   ar
     2     1     4   ar
     3     2     6   ar
     4     3     5   ar
     5     3     6   ar
     6     4     5   ar
     7     4     7   ar
     8     5    19   ar
     9     6    20    1
    10     7     8   ar
    11     7    10    1
    12     8     9   ar
    13     8    11    1
    14     9    16    2
    15     9    19   ar
    16    10    12    1
    17    11    13    1
    18    12    14    1
    19    13    14    1
    20    15    21    1
    21    17    21    2
    22    18    21    2
    23    20    21    1
    24     1    22    1
    25     2    23    1
    26     3    24    1
    27    10    25    1
    28    10    26    1
    29    11    27    1
    30    11    28    1
    31    12    29    1
    32    12    30    1
    33    13    31    1
    34    13    32    1
    35    14    33    1
    36    14    34    1
    37    15    35    1
    38    15    36    1
