@<TRIPOS>MOLECULE
DB02988
 24 25 0 0 0
SMALL
USER_CHARGES

@<TRIPOS>ATOM
      1 CZ3         5.8289   -4.3432    1.3530 C.ar    1  TRP1        0.0000
      2 CH2         7.2098   -4.1568    1.3534 C.ar    1  TRP1        0.0000
      3 CE3         4.9584   -3.2487    1.4100 C.ar    1  TRP1        0.0000
      4 CZ2         7.7642   -2.8749    1.4104 C.ar    1  TRP1        0.0000
      5 CD1         5.9619    0.2624    1.5699 C.ar    1  TRP1        0.0000
      6 CD2         5.4941   -1.9468    1.4681 C.ar    1  TRP1        0.0000
      7 CG          4.9268   -0.6433    1.5331 C.ar    1  TRP1        0.0000
      8 CE2         6.8818   -1.7902    1.4671 C.ar    1  TRP1        0.0000
      9 CA          3.0158    0.2299    0.2248 C.2     1  TRP1        0.0000
     10 C           3.0033    1.7017   -0.0822 C.2     1  TRP1        0.0000
     11 CB          3.4880   -0.3103    1.5589 C.3     1  TRP1        0.0000
     12 N           2.5717   -0.5706   -0.6891 N.2     1  TRP1        0.0000
     13 NE1         7.1371   -0.4388    1.5294 N.ar    1  TRP1        0.0000
     14 O           3.4121    2.4592    0.8442 O.co2   1  TRP1       -0.5000
     15 OXT         2.5876    2.0236   -1.2336 O.co2   1  TRP1       -0.5000
     16 HZ3         5.4216   -5.3496    1.3075 H       1  TRP1        0.0000
     17 HH2         7.8676   -5.0211    1.3087 H       1  TRP1        0.0000
     18 HE3         3.8842   -3.4106    1.4079 H       1  TRP1        0.0000
     19 HZ2         8.8393   -2.7308    1.4118 H       1  TRP1        0.0000
     20 HD1         5.9686    1.3426    1.6197 H       1  TRP1        0.0000
     21 HB1         3.2724    0.4531    2.3271 H       1  TRP1        0.0000
     22 HB2         2.8630   -1.1784    1.8280 H       1  TRP1        0.0000
     23 H           2.2744   -0.0482   -1.5199 H       1  TRP1        0.0000
     24 HE1         8.0590   -0.0250    1.5433 H       1  TRP1        0.0000
@<TRIPOS>BOND
     1     1     2   ar
     2     1     3   ar
     3     2     4   ar
     4     3     6   ar
     5     4     8   ar
     6     5     7   ar
     7     5    13   ar
     8     6     7   ar
     9     6     8   ar
    10     7    11    1
    11     8    13   ar
    12     9    10    1
    13     9    11    1
    14     9    12    2
    15    10    14   ar
    16    10    15   ar
    17     1    16    1
    18     2    17    1
    19     3    18    1
    20     4    19    1
    21     5    20    1
    22    11    21    1
    23    11    22    1
    24    12    23    1
    25    13    24    1
