@<TRIPOS>MOLECULE
DB02018
 25 25 0 0 0
SMALL
USER_CHARGES

@<TRIPOS>ATOM
      1 C           7.5675   -2.7798    0.7249 C.ar    1  LIG1        0.0000
      2 C           5.5981   -3.8390    1.6316 C.ar    1  LIG1        0.0000
      3 C           6.9423   -1.5533    0.8176 C.ar    1  LIG1        0.0000
      4 C           4.9860   -2.6060    1.7247 C.ar    1  LIG1        0.0000
      5 C           6.8984   -3.9332    1.1349 C.ar    1  LIG1        0.0000
      6 C           5.6547   -1.4659    1.3160 C.ar    1  LIG1        0.0000
      7 C           7.5628   -5.2518    1.0377 C.2     1  LIG1        0.0000
      8 C           4.2331    0.1592    0.1351 C.2     1  LIG1        0.0000
      9 C           3.4738    1.4358   -0.0209 C.2     1  LIG1        0.0000
     10 C           4.9779   -0.1231    1.4145 C.3     1  LIG1        0.0000
     11 N           7.2545   -6.2179    1.9004 N.pl3   1  LIG1        0.0000
     12 N           8.4691   -5.4722    0.0875 N.2     1  LIG1        0.0000
     13 O           3.4565    2.2505    0.8877 O.co2   1  LIG1       -0.5000
     14 O           4.2502   -0.6470   -0.7639 O.2     1  LIG1        0.0000
     15 O           2.8707    1.6644   -1.0570 O.co2   1  LIG1       -0.5000
     16 H           8.5728   -2.8466    0.3360 H       1  LIG1        0.0000
     17 H           5.0749   -4.7284    1.9507 H       1  LIG1        0.0000
     18 H           7.4593   -0.6596    0.5008 H       1  LIG1        0.0000
     19 H           3.9810   -2.5312    2.1133 H       1  LIG1        0.0000
     20 H           4.2767   -0.1300    2.2491 H       1  LIG1        0.0000
     21 H           5.7280    0.6509    1.5766 H       1  LIG1        0.0000
     22 H           7.6900   -7.0823    1.8367 H       1  LIG1        0.0000
     23 H           6.5943   -6.0574    2.5927 H       1  LIG1        0.0000
     24 H           8.6938   -4.7683   -0.5410 H       1  LIG1        0.0000
     25 H           8.9076   -6.3352    0.0262 H       1  LIG1        0.0000
@<TRIPOS>BOND
     1     1     3   ar
     2     1     5   ar
     3     2     4   ar
     4     2     5   ar
     5     3     6   ar
     6     4     6   ar
     7     5     7    1
     8     6    10    1
     9     7    11    1
    10     7    12    2
    11     8     9    1
    12     8    10    1
    13     8    14    2
    14     9    13   ar
    15     9    15   ar
    16     1    16    1
    17     2    17    1
    18     3    18    1
    19     4    19    1
    20    10    20    1
    21    10    21    1
    22    11    22    1
    23    11    23    1
    24    12    24    1
    25    12    25    1
