@<TRIPOS>MOLECULE
DB02758
 24 25 0 0 0
SMALL
USER_CHARGES

@<TRIPOS>ATOM
      1 C           6.0898   -3.8845    1.4357 C.ar    1  LIG1        0.0000
      2 C           7.3651   -3.3636    1.2263 C.ar    1  LIG1        0.0000
      3 C           4.9765   -3.0406    1.5207 C.ar    1  LIG1        0.0000
      4 C           7.5690   -1.9870    1.0953 C.ar    1  LIG1        0.0000
      5 C           5.0416    0.6031    1.2379 C.ar    1  LIG1        0.0000
      6 C           5.1573   -1.6492    1.3917 C.ar    1  LIG1        0.0000
      7 C           4.2812   -0.5283    1.4242 C.ar    1  LIG1        0.0000
      8 C           6.4468   -1.1555    1.1825 C.ar    1  LIG1        0.0000
      9 C           2.3674    1.5558    0.1756 C.2     1  LIG1        0.0000
     10 C           2.8179   -0.5610    1.6233 C.3     1  LIG1        0.0000
     11 C           2.0368    0.0891    0.4710 C.3     1  LIG1        0.0000
     12 N           6.3464    0.2147    1.0927 N.ar    1  LIG1        0.0000
     13 O           2.1083    2.3445    1.1305 O.co2   1  LIG1       -0.5000
     14 O           2.8519    1.8096   -0.9609 O.co2   1  LIG1       -0.5000
     15 H           5.9565   -4.9585    1.5339 H       1  LIG1        0.0000
     16 H           8.2159   -4.0373    1.1636 H       1  LIG1        0.0000
     17 H           3.9886   -3.4623    1.6833 H       1  LIG1        0.0000
     18 H           8.5623   -1.5823    0.9334 H       1  LIG1        0.0000
     19 H           4.7721    1.6494    1.1938 H       1  LIG1        0.0000
     20 H           2.4631   -1.6011    1.7483 H       1  LIG1        0.0000
     21 H           2.5398   -0.0570    2.5676 H       1  LIG1        0.0000
     22 H           0.9615    0.0297    0.6840 H       1  LIG1        0.0000
     23 H           2.2095   -0.4810   -0.4509 H       1  LIG1        0.0000
     24 H           7.1240    0.8423    0.9416 H       1  LIG1        0.0000
@<TRIPOS>BOND
     1     1     2   ar
     2     1     3   ar
     3     2     4   ar
     4     3     6   ar
     5     4     8   ar
     6     5     7   ar
     7     5    12   ar
     8     6     7   ar
     9     6     8   ar
    10     7    10    1
    11     8    12   ar
    12     9    11    1
    13     9    13   ar
    14     9    14   ar
    15    10    11    1
    16     1    15    1
    17     2    16    1
    18     3    17    1
    19     4    18    1
    20     5    19    1
    21    10    20    1
    22    10    21    1
    23    11    22    1
    24    11    23    1
    25    12    24    1
