@<TRIPOS>MOLECULE
DB02570
 21 21 0 0 0
SMALL
USER_CHARGES

@<TRIPOS>ATOM
      1 C           4.8362   -2.9339    0.8797 C.ar    1  LIG1        0.0000
      2 C           6.5233   -1.3945    1.6679 C.ar    1  LIG1        0.0000
      3 C           5.7778   -3.9630    0.8742 C.ar    1  LIG1        0.0000
      4 C           7.4648   -2.4236    1.6625 C.ar    1  LIG1        0.0000
      5 C           5.2090   -1.6496    1.2765 C.ar    1  LIG1        0.0000
      6 C           7.0921   -3.7079    1.2656 C.ar    1  LIG1        0.0000
      7 C           3.4073    1.5482   -0.0654 C.2     1  LIG1        0.0000
      8 C           4.2031   -0.5485    1.2802 C.3     1  LIG1        0.0000
      9 C           4.1457    0.1999   -0.0624 C.3     1  LIG1        0.0000
     10 O           3.5137    2.2482    0.9809 O.co2   1  LIG1       -0.5000
     11 O           2.7612    1.7928   -1.1262 O.co2   1  LIG1       -0.5000
     12 S           3.1854   -0.7695   -1.2796 S.3     1  LIG1        0.0000
     13 I           8.4946   -5.2407    1.2546 I       1  LIG1        0.0000
     14 H           3.8144   -3.1414    0.5731 H       1  LIG1        0.0000
     15 H           6.8232   -0.3969    1.9773 H       1  LIG1        0.0000
     16 H           5.4662   -4.9558    0.5590 H       1  LIG1        0.0000
     17 H           8.4839   -2.2027    1.9702 H       1  LIG1        0.0000
     18 H           4.4526    0.1671    2.0858 H       1  LIG1        0.0000
     19 H           3.2017   -0.9370    1.5434 H       1  LIG1        0.0000
     20 H           5.1563    0.3347   -0.4647 H       1  LIG1        0.0000
     21 H           2.0243   -0.6926   -0.6181 H       1  LIG1        0.0000
@<TRIPOS>BOND
     1     1     3   ar
     2     1     5   ar
     3     2     4   ar
     4     2     5   ar
     5     3     6   ar
     6     4     6   ar
     7     5     8    1
     8     6    13    1
     9     7     9    1
    10     7    10   ar
    11     7    11   ar
    12     8     9    1
    13     9    12    1
    14     1    14    1
    15     2    15    1
    16     3    16    1
    17     4    17    1
    18     8    18    1
    19     8    19    1
    20     9    20    1
    21    12    21    1
