@<TRIPOS>MOLECULE
DB02725
 31 31 0 0 0
SMALL
USER_CHARGES

@<TRIPOS>ATOM
      1 C           5.8001   -2.4681    2.5291 C.2     1  LIG1        0.0000
      2 C           6.4822   -2.0487    0.1423 C.2     1  LIG1        0.0000
      3 C           5.7451   -3.7849    2.2811 C.2     1  LIG1        0.0000
      4 C           6.4265   -3.3657   -0.1042 C.2     1  LIG1        0.0000
      5 C           3.0693    1.3770    0.0024 C.2     1  LIG1        0.0000
      6 C           6.1403   -1.4396    1.4793 C.3     1  LIG1        0.0000
      7 C           6.0140   -4.3839    0.9259 C.3     1  LIG1        0.0000
      8 C           4.9885   -0.4459    1.3247 C.3     1  LIG1        0.0000
      9 C           3.8527   -1.0480    0.4944 C.3     1  LIG1        0.0000
     10 CA          2.6789   -0.0909    0.2481 C.3     1  LIG1        0.0000
     11 N           4.8434   -5.1874    0.4502 N.4     1  LIG1        0.0000
     12 N           1.6702   -0.2753    1.3386 N.4     1  LIG1        0.0000
     13 O           3.6605    1.9446    0.9651 O.co2   1  LIG1       -0.5000
     14 OXT         2.7334    1.8558   -1.1172 O.co2   1  LIG1       -0.5000
     15 H           5.5995   -2.1142    3.5370 H       1  LIG1        0.0000
     16 H           6.7967   -1.3778   -0.6528 H       1  LIG1        0.0000
     17 H           5.4994   -4.4630    3.0941 H       1  LIG1        0.0000
     18 H           6.6958   -3.7271   -1.0932 H       1  LIG1        0.0000
     19 H           7.0252   -0.8922    1.8281 H       1  LIG1        0.0000
     20 H           6.8300   -5.1085    1.0317 H       1  LIG1        0.0000
     21 H           5.3739    0.4616    0.8531 H       1  LIG1        0.0000
     22 H           4.6357   -0.1754    2.3232 H       1  LIG1        0.0000
     23 H           3.4808   -1.9497    0.9989 H       1  LIG1        0.0000
     24 H           4.2511   -1.3863   -0.4706 H       1  LIG1        0.0000
     25 HA          2.1615   -0.4193   -0.6619 H       1  LIG1        0.0000
     26 H           4.4678   -5.7506    1.2142 H       1  LIG1        0.0000
     27 H           5.1278   -5.8106   -0.3067 H       1  LIG1        0.0000
     28 H           4.1072   -4.5695    0.1065 H       1  LIG1        0.0000
     29 H1          2.1140   -0.1719    2.2521 H       1  LIG1        0.0000
     30 H2          1.2541   -1.2060    1.2809 H       1  LIG1        0.0000
     31 H3          0.9278    0.4205    1.2550 H       1  LIG1        0.0000
@<TRIPOS>BOND
     1     1     3    2
     2     1     6    1
     3     2     4    2
     4     2     6    1
     5     3     7    1
     6     4     7    1
     7     5    10    1
     8     5    13   ar
     9     5    14   ar
    10     6     8    1
    11     7    11    1
    12     8     9    1
    13     9    10    1
    14    10    12    1
    15     1    15    1
    16     2    16    1
    17     3    17    1
    18     4    18    1
    19     6    19    1
    20     7    20    1
    21     8    21    1
    22     8    22    1
    23     9    23    1
    24     9    24    1
    25    10    25    1
    26    11    26    1
    27    11    27    1
    28    11    28    1
    29    12    29    1
    30    12    30    1
    31    12    31    1
