@<TRIPOS>MOLECULE
DB02286
 29 30 0 0 0
SMALL
USER_CHARGES

@<TRIPOS>ATOM
      1 C           7.2673   -3.6189    1.2121 C.ar    1  LIG1        0.0000
      2 C           7.6336   -2.2703    1.2446 C.ar    1  LIG1        0.0000
      3 C           5.9328   -4.0039    1.3232 C.ar    1  LIG1        0.0000
      4 C           5.4172    0.5711    1.6061 C.ar    1  LIG1        0.0000
      5 C           5.2663   -1.6822    1.5062 C.ar    1  LIG1        0.0000
      6 C           4.5244   -0.4752    1.6400 C.ar    1  LIG1        0.0000
      7 C           6.6118   -1.3256    1.3926 C.ar    1  LIG1        0.0000
      8 C           4.9213   -3.0479    1.4707 C.ar    1  LIG1        0.0000
      9 C           2.8791    1.4506   -0.0092 C.2     1  LIG1        0.0000
     10 C           3.0605   -0.3427    1.7893 C.3     1  LIG1        0.0000
     11 CA          2.3391    0.1060    0.4995 C.3     1  LIG1        0.0000
     12 N           6.6736    0.0483    1.4563 N.ar    1  LIG1        0.0000
     13 N           3.5840   -3.4860    1.5790 N.pl3   1  LIG1        0.0000
     14 N           2.4824   -0.9769   -0.5241 N.4     1  LIG1        0.0000
     15 O           2.8677    1.5836   -1.2660 O.co2   1  LIG1       -0.5000
     16 OXT         3.2747    2.2542    0.8817 O.co2   1  LIG1       -0.5000
     17 H           8.0369   -4.3783    1.0988 H       1  LIG1        0.0000
     18 H           8.6727   -1.9706    1.1589 H       1  LIG1        0.0000
     19 H           5.6850   -5.0626    1.2919 H       1  LIG1        0.0000
     20 H           5.2731    1.6405    1.6743 H       1  LIG1        0.0000
     21 H           2.8346    0.3876    2.5908 H       1  LIG1        0.0000
     22 H           2.6097   -1.2887    2.1480 H       1  LIG1        0.0000
     23 HA          1.2602    0.1838    0.6801 H       1  LIG1        0.0000
     24 H           7.5237    0.5917    1.4010 H       1  LIG1        0.0000
     25 H           3.3835   -4.4620    1.5008 H       1  LIG1        0.0000
     26 H           2.8526   -2.8071    1.6370 H       1  LIG1        0.0000
     27 H1          2.9745   -1.7774   -0.1252 H       1  LIG1        0.0000
     28 H2          3.0114   -0.6351   -1.3277 H       1  LIG1        0.0000
     29 H3          1.5631   -1.2845   -0.8443 H       1  LIG1        0.0000
@<TRIPOS>BOND
     1     1     2   ar
     2     1     3   ar
     3     2     7   ar
     4     3     8   ar
     5     4     6   ar
     6     4    12   ar
     7     5     6   ar
     8     5     7   ar
     9     5     8   ar
    10     6    10    1
    11     7    12   ar
    12     8    13    1
    13     9    11    1
    14     9    15   ar
    15     9    16   ar
    16    10    11    1
    17    11    14    1
    18     1    17    1
    19     2    18    1
    20     3    19    1
    21     4    20    1
    22    10    21    1
    23    10    22    1
    24    11    23    1
    25    12    24    1
    26    13    25    1
    27    13    26    1
    28    14    27    1
    29    14    28    1
    30    14    29    1
