@<TRIPOS>MOLECULE
DB02242
 26 26 0 0 0
SMALL
USER_CHARGES

@<TRIPOS>ATOM
      1 C           3.3922    1.5645   -0.1310 C.2     1  LIG1        0.0000
      2 C           6.7187   -4.0647    1.8101 C.3     1  LIG1        0.0000
      3 C           7.6627   -2.8894    1.5764 C.3     1  LIG1        0.0000
      4 C           5.4909   -3.9860    0.9083 C.3     1  LIG1        0.0000
      5 C           6.9435   -1.5508    1.7257 C.3     1  LIG1        0.0000
      6 C           4.7680   -2.6491    1.0562 C.3     1  LIG1        0.0000
      7 C           5.7125   -1.4643    0.8132 C.3     1  LIG1        0.0000
      8 C           4.1569    0.2371   -0.1947 C.3     1  LIG1        0.0000
      9 C           4.9802   -0.1396    1.0193 C.3     1  LIG1        0.0000
     10 O           2.7114    1.8708   -1.1480 O.co2   1  LIG1       -0.5000
     11 O           3.5320    2.1915    0.9585 O.co2   1  LIG1       -0.5000
     12 H           7.2492   -5.0064    1.6290 H       1  LIG1        0.0000
     13 H           6.4004   -4.0734    2.8599 H       1  LIG1        0.0000
     14 H           8.4969   -2.9409    2.2853 H       1  LIG1        0.0000
     15 H           8.0937   -2.9620    0.5702 H       1  LIG1        0.0000
     16 H           5.7965   -4.1221   -0.1364 H       1  LIG1        0.0000
     17 H           4.8039   -4.8051    1.1493 H       1  LIG1        0.0000
     18 H           6.6423   -1.4181    2.7727 H       1  LIG1        0.0000
     19 H           7.6409   -0.7378    1.4910 H       1  LIG1        0.0000
     20 H           3.9306   -2.6114    0.3491 H       1  LIG1        0.0000
     21 H           4.3365   -2.5819    2.0632 H       1  LIG1        0.0000
     22 H           6.0528   -1.5023   -0.2303 H       1  LIG1        0.0000
     23 H           4.8441    0.3216   -1.0458 H       1  LIG1        0.0000
     24 H           3.4460   -0.5637   -0.4344 H       1  LIG1        0.0000
     25 H           4.3719   -0.2293    1.9153 H       1  LIG1        0.0000
     26 H           5.7417    0.6158    1.2016 H       1  LIG1        0.0000
@<TRIPOS>BOND
     1     1     8    1
     2     1    10   ar
     3     1    11   ar
     4     2     3    1
     5     2     4    1
     6     3     5    1
     7     4     6    1
     8     5     7    1
     9     6     7    1
    10     7     9    1
    11     8     9    1
    12     2    12    1
    13     2    13    1
    14     3    14    1
    15     3    15    1
    16     4    16    1
    17     4    17    1
    18     5    18    1
    19     5    19    1
    20     6    20    1
    21     6    21    1
    22     7    22    1
    23     8    23    1
    24     8    24    1
    25     9    25    1
    26     9    26    1
