@<TRIPOS>MOLECULE
DB02434
 20 20 0 0 0
SMALL
USER_CHARGES

@<TRIPOS>ATOM
      1 C           6.6944   -3.8534    1.4893 C.ar    1  LIG1        0.0000
      2 C           5.4352   -3.1866    1.5024 C.ar    1  LIG1        0.0000
      3 C           7.7429   -2.9757    1.3225 C.ar    1  LIG1        0.0000
      4 C           5.5695   -1.8245    1.3452 C.ar    1  LIG1        0.0000
      5 C           2.9062    1.5329   -0.0797 C.2     1  LIG1        0.0000
      6 C           4.4889   -0.7735    1.3061 C.3     1  LIG1        0.0000
      7 C           2.3879    0.1039    0.1070 C.3     1  LIG1        0.0000
      8 C           3.4582   -0.9835    0.1890 C.3     1  LIG1        0.0000
      9 O           3.5862    2.0056    0.8725 O.co2   1  LIG1       -0.5000
     10 O           2.5971    2.0612   -1.1859 O.co2   1  LIG1       -0.5000
     11 S           7.2082   -1.3550    1.1827 S.2     1  LIG1        0.0000
     12 H           6.8252   -4.9221    1.5975 H       1  LIG1        0.0000
     13 H           4.4818   -3.6853    1.6227 H       1  LIG1        0.0000
     14 H           8.7973   -3.2088    1.2759 H       1  LIG1        0.0000
     15 H           4.9691    0.2039    1.1668 H       1  LIG1        0.0000
     16 H           3.9869   -0.7146    2.2794 H       1  LIG1        0.0000
     17 H           1.7415    0.0624    0.9915 H       1  LIG1        0.0000
     18 H           1.7431   -0.1073   -0.7554 H       1  LIG1        0.0000
     19 H           2.9609   -1.9524    0.3216 H       1  LIG1        0.0000
     20 H           3.9928   -1.0417   -0.7672 H       1  LIG1        0.0000
@<TRIPOS>BOND
     1     1     2   ar
     2     1     3   ar
     3     2     4   ar
     4     3    11   ar
     5     4     6    1
     6     4    11   ar
     7     5     7    1
     8     5     9   ar
     9     5    10   ar
    10     6     8    1
    11     7     8    1
    12     1    12    1
    13     2    13    1
    14     3    14    1
    15     6    15    1
    16     6    16    1
    17     7    17    1
    18     7    18    1
    19     8    19    1
    20     8    20    1
