@<TRIPOS>MOLECULE
DB02962
 15 16 0 0 0
SMALL
USER_CHARGES

@<TRIPOS>ATOM
      1 C           5.9156   -3.9298    1.3961 C.ar    1  LIG1       -0.0600
      2 C           7.2537   -3.5295    1.3964 C.ar    1  LIG1       -0.0602
      3 C           4.8803   -2.9865    1.3960 C.ar    1  LIG1       -0.0344
      4 C           7.6065   -2.1758    1.3964 C.ar    1  LIG1       -0.0386
      5 C           5.2280    0.5131    1.3964 C.ar    1  LIG1        0.0851
      6 C           5.2165   -1.6222    1.3963 C.ar    1  LIG1        0.0858
      7 C           6.5589   -1.2541    1.3964 C.ar    1  LIG1        0.0571
      8 N           4.4046   -0.5112    1.3961 N.ar    1  LIG1       -0.2394
      9 N           6.5366    0.1170    1.3965 N.ar    1  LIG1       -0.3040
     10 H           5.6730   -4.9893    1.3958 H       1  LIG1        0.0623
     11 H           8.0370   -4.2836    1.3962 H       1  LIG1        0.0623
     12 H           3.8434   -3.3072    1.3956 H       1  LIG1        0.0646
     13 H           8.6445   -1.8631    1.3967 H       1  LIG1        0.0643
     14 H           4.9453    1.5558    1.3972 H       1  LIG1        0.1014
     15 H           7.3438    0.7263    1.3971 H       1  LIG1        0.1537
@<TRIPOS>BOND
     1     1     2   ar
     2     1     3   ar
     3     2     4   ar
     4     3     6   ar
     5     4     7   ar
     6     5     8   ar
     7     5     9   ar
     8     6     7   ar
     9     6     8   ar
    10     7     9   ar
    11     1    10    1
    12     2    11    1
    13     3    12    1
    14     4    13    1
    15     5    14    1
    16     9    15    1
