@<TRIPOS>MOLECULE
DB02953
 24 24 0 0 0
SMALL
USER_CHARGES

@<TRIPOS>ATOM
      1 C           6.7724   -3.9355    1.4438 C.ar    1  LIG1        0.0000
      2 C           7.3514   -2.8117    2.0333 C.ar    1  LIG1        0.0000
      3 C           5.6666   -3.7919    0.6058 C.ar    1  LIG1        0.0000
      4 C           6.8246   -1.5443    1.7847 C.ar    1  LIG1        0.0000
      5 C           5.1398   -2.5245    0.3572 C.ar    1  LIG1        0.0000
      6 C           5.7188   -1.4006    0.9466 C.ar    1  LIG1        0.0000
      7 C           3.2992    1.4323    0.0578 C.2     1  LIG1        0.0000
      8 C           5.1480   -0.0290    0.6773 C.3     1  LIG1        0.0000
      9 C           2.8435   -0.5741    1.6006 C.3     1  LIG1        0.0000
     10 C           3.6306   -0.0372    0.4005 C.3     1  LIG1        0.0000
     11 O           3.4855    2.2756    0.9795 O.co2   1  LIG1       -0.5000
     12 O           2.8706    1.6111   -1.1191 O.co2   1  LIG1       -0.5000
     13 S           1.0460   -0.4865    1.3216 S.3     1  LIG1        0.0000
     14 H           7.1836   -4.9221    1.6365 H       1  LIG1        0.0000
     15 H           8.2130   -2.9233    2.6850 H       1  LIG1        0.0000
     16 H           5.2163   -4.6665    0.1459 H       1  LIG1        0.0000
     17 H           7.2822   -0.6743    2.2484 H       1  LIG1        0.0000
     18 H           4.2781   -2.4222   -0.2970 H       1  LIG1        0.0000
     19 H           5.3772    0.6021    1.5474 H       1  LIG1        0.0000
     20 H           5.6819    0.4352   -0.1631 H       1  LIG1        0.0000
     21 H           3.0550    0.0145    2.4984 H       1  LIG1        0.0000
     22 H           3.1034   -1.6149    1.8199 H       1  LIG1        0.0000
     23 H           3.4196   -0.6580   -0.4809 H       1  LIG1        0.0000
     24 H           0.6989   -1.0080    2.5052 H       1  LIG1        0.0000
@<TRIPOS>BOND
     1     1     2   ar
     2     1     3   ar
     3     2     4   ar
     4     3     5   ar
     5     4     6   ar
     6     5     6   ar
     7     6     8    1
     8     7    10    1
     9     7    11   ar
    10     7    12   ar
    11     8    10    1
    12     9    10    1
    13     9    13    1
    14     1    14    1
    15     2    15    1
    16     3    16    1
    17     4    17    1
    18     5    18    1
    19     8    19    1
    20     8    20    1
    21     9    21    1
    22     9    22    1
    23    10    23    1
    24    13    24    1
