@<TRIPOS>MOLECULE
DB02685
 26 26 0 0 0
SMALL
USER_CHARGES

@<TRIPOS>ATOM
      1 C           6.7632    0.0923    1.7493 C.ar    1  LIG1        0.0000
      2 C           7.1467   -1.2310    1.5316 C.ar    1  LIG1        0.0000
      3 C           5.4114    0.4364    1.7446 C.ar    1  LIG1        0.0000
      4 C           4.8267   -1.8659    1.3041 C.ar    1  LIG1        0.0000
      5 C           6.1785   -2.2101    1.3089 C.ar    1  LIG1        0.0000
      6 C           4.4432   -0.5427    1.5219 C.ar    1  LIG1        0.0000
      7 C           2.7922    1.6911   -0.2045 C.2     1  LIG1        0.0000
      8 C           6.5893   -3.6251    1.0775 C.3     1  LIG1        0.0000
      9 C           2.9862   -0.1714    1.5161 C.3     1  LIG1        0.0000
     10 CA          2.4750    0.2250    0.1250 C.3     1  LIG1        0.0000
     11 N           1.0043   -0.0530    0.1006 N.4     1  LIG1        0.0000
     12 O           3.8700    2.1236    0.2941 O.co2   1  LIG1       -0.5000
     13 OXT         1.9411    2.2875   -0.9225 O.co2   1  LIG1       -0.5000
     14 H           7.5172    0.8546    1.9229 H       1  LIG1        0.0000
     15 H           8.2023   -1.4899    1.5377 H       1  LIG1        0.0000
     16 H           5.1218    1.4701    1.9144 H       1  LIG1        0.0000
     17 H           4.0714   -2.6289    1.1315 H       1  LIG1        0.0000
     18 H           6.6440   -4.1674    2.0294 H       1  LIG1        0.0000
     19 H           5.8784   -4.1442    0.4216 H       1  LIG1        0.0000
     20 H           7.5708   -3.6801    0.5888 H       1  LIG1        0.0000
     21 H           2.8409    0.6636    2.2161 H       1  LIG1        0.0000
     22 H           2.3898   -0.9997    1.9219 H       1  LIG1        0.0000
     23 HA          2.9037   -0.4292   -0.6434 H       1  LIG1        0.0000
     24 H1          0.7065   -0.2982   -0.8447 H       1  LIG1        0.0000
     25 H2          0.4841    0.7715    0.4038 H       1  LIG1        0.0000
     26 H3          0.7808   -0.8289    0.7254 H       1  LIG1        0.0000
@<TRIPOS>BOND
     1     1     2   ar
     2     1     3   ar
     3     2     5   ar
     4     3     6   ar
     5     4     5   ar
     6     4     6   ar
     7     5     8    1
     8     6     9    1
     9     7    10    1
    10     7    12   ar
    11     7    13   ar
    12     9    10    1
    13    10    11    1
    14     1    14    1
    15     2    15    1
    16     3    16    1
    17     4    17    1
    18     8    18    1
    19     8    19    1
    20     8    20    1
    21     9    21    1
    22     9    22    1
    23    10    23    1
    24    11    24    1
    25    11    25    1
    26    11    26    1
