@<TRIPOS>MOLECULE
DB02070
 27 27 0 0 0
SMALL
USER_CHARGES

@<TRIPOS>ATOM
      1 C           5.8727   -3.8780    1.3840 C.ar    1  LIG1        0.0000
      2 C           7.0574   -3.4703    1.9968 C.ar    1  LIG1        0.0000
      3 C           5.0869   -2.9512    0.6990 C.ar    1  LIG1        0.0000
      4 C           7.4565   -2.1357    1.9247 C.ar    1  LIG1        0.0000
      5 C           5.4859   -1.6166    0.6268 C.ar    1  LIG1        0.0000
      6 C           6.6708   -1.2088    1.2397 C.ar    1  LIG1        0.0000
      7 C           4.6335   -0.6624   -0.1037 C.2     1  LIG1        0.0000
      8 C           2.7387    1.6310    0.1482 C.2     1  LIG1        0.0000
      9 C           3.1264   -0.9276   -0.1386 C.3     1  LIG1        0.0000
     10 CA          2.2994    0.1961    0.4957 C.3     1  LIG1        0.0000
     11 N           7.0920    0.1384    1.1802 N.pl3   1  LIG1        0.0000
     12 N           0.8747   -0.0482    0.0956 N.4     1  LIG1        0.0000
     13 O           2.7855    1.9247   -1.0780 O.co2   1  LIG1       -0.5000
     14 O           5.0985    0.3209   -0.6831 O.2     1  LIG1        0.0000
     15 OXT         3.0061    2.3502    1.1544 O.co2   1  LIG1       -0.5000
     16 H           5.5618   -4.9171    1.4393 H       1  LIG1        0.0000
     17 H           7.6687   -4.1921    2.5307 H       1  LIG1        0.0000
     18 H           4.1652   -3.2819    0.2271 H       1  LIG1        0.0000
     19 H           8.3819   -1.8300    2.4062 H       1  LIG1        0.0000
     20 H           2.8442   -1.0389   -1.1932 H       1  LIG1        0.0000
     21 H           2.9218   -1.8726    0.3787 H       1  LIG1        0.0000
     22 HA          2.3108    0.0937    1.5879 H       1  LIG1        0.0000
     23 H           7.9192    0.4105    1.6693 H       1  LIG1        0.0000
     24 H           6.5059    0.8106    0.7304 H       1  LIG1        0.0000
     25 H1          0.6812   -1.0494    0.0816 H       1  LIG1        0.0000
     26 H2          0.7019    0.3335   -0.8345 H       1  LIG1        0.0000
     27 H3          0.2425    0.4003    0.7585 H       1  LIG1        0.0000
@<TRIPOS>BOND
     1     1     2   ar
     2     1     3   ar
     3     2     4   ar
     4     3     5   ar
     5     4     6   ar
     6     5     6   ar
     7     5     7    1
     8     6    11    1
     9     7     9    1
    10     7    14    2
    11     8    10    1
    12     8    13   ar
    13     8    15   ar
    14     9    10    1
    15    10    12    1
    16     1    16    1
    17     2    17    1
    18     3    18    1
    19     4    19    1
    20     9    20    1
    21     9    21    1
    22    10    22    1
    23    11    23    1
    24    11    24    1
    25    12    25    1
    26    12    26    1
    27    12    27    1
