@<TRIPOS>MOLECULE
DB02591
 21 22 0 0 0
SMALL
USER_CHARGES

@<TRIPOS>ATOM
      1 C           4.8803   -2.9865    1.3960 C.ar    1  LIG1       -0.0312
      2 C           7.6065   -2.1758    1.3964 C.ar    1  LIG1       -0.0354
      3 C           5.2280    0.5131    1.3964 C.ar    1  LIG1        0.0851
      4 C           5.9156   -3.9298    1.3961 C.ar    1  LIG1       -0.0459
      5 C           7.2537   -3.5295    1.3964 C.ar    1  LIG1       -0.0462
      6 C           5.2165   -1.6222    1.3963 C.ar    1  LIG1        0.0861
      7 C           6.5589   -1.2541    1.3964 C.ar    1  LIG1        0.0574
      8 C           5.5554   -5.3813    1.3961 C.3     1  LIG1       -0.0394
      9 C           8.3498   -4.5476    1.3971 C.3     1  LIG1       -0.0394
     10 N           4.4046   -0.5112    1.3961 N.ar    1  LIG1       -0.2394
     11 N           6.5366    0.1170    1.3965 N.ar    1  LIG1       -0.3040
     12 H           3.8401   -3.2978    1.3947 H       1  LIG1        0.0649
     13 H           8.6422   -1.8535    1.3969 H       1  LIG1        0.0646
     14 H           4.9455    1.5564    1.3957 H       1  LIG1        0.1014
     15 H           5.4645   -5.7481    0.3679 H       1  LIG1        0.0280
     16 H           6.3159   -5.9762    1.9154 H       1  LIG1        0.0280
     17 H           4.6050   -5.5517    1.9154 H       1  LIG1        0.0280
     18 H           8.6257   -4.8042    2.4255 H       1  LIG1        0.0280
     19 H           8.0390   -5.4614    0.8778 H       1  LIG1        0.0280
     20 H           9.2386   -4.1696    0.8783 H       1  LIG1        0.0280
     21 H           7.3435    0.7266    1.3973 H       1  LIG1        0.1537
@<TRIPOS>BOND
     1     1     4   ar
     2     1     6   ar
     3     2     5   ar
     4     2     7   ar
     5     3    10   ar
     6     3    11   ar
     7     4     5   ar
     8     4     8    1
     9     5     9    1
    10     6     7   ar
    11     6    10   ar
    12     7    11   ar
    13     1    12    1
    14     2    13    1
    15     3    14    1
    16     8    15    1
    17     8    16    1
    18     8    17    1
    19     9    18    1
    20     9    19    1
    21     9    20    1
    22    11    21    1
