@<TRIPOS>MOLECULE
DB03679
 28 29 0 0 0
SMALL
USER_CHARGES

@<TRIPOS>ATOM
      1 C           5.9470   -4.0446    1.4593 C.ar    1  LIG1        0.0000
      2 C           7.1737   -3.6249    1.9699 C.ar    1  LIG1        0.0000
      3 C           5.0593   -3.1282    0.8838 C.ar    1  LIG1        0.0000
      4 C           7.5523   -2.2802    1.9223 C.ar    1  LIG1        0.0000
      5 C           5.4192   -1.7671    0.8246 C.ar    1  LIG1        0.0000
      6 C           4.7852   -0.5947    0.3261 C.ar    1  LIG1        0.0000
      7 C           6.6549   -1.3753    1.3442 C.ar    1  LIG1        0.0000
      8 C           5.6322    0.4664    0.5489 C.ar    1  LIG1        0.0000
      9 C           2.6558    1.8640    0.0553 C.2     1  LIG1        0.0000
     10 C           3.4564   -0.5245   -0.3160 C.3     1  LIG1        0.0000
     11 CA          2.4525    0.3869    0.4236 C.3     1  LIG1        0.0000
     12 N           6.7574   -0.0144    1.1631 N.ar    1  LIG1        0.0000
     13 N           1.0664   -0.0819    0.1080 N.4     1  LIG1        0.0000
     14 O           2.5645    2.1183   -1.1792 O.co2   1  LIG1       -0.5000
     15 OXT         2.8959    2.6412    1.0217 O.co2   1  LIG1       -0.5000
     16 O           5.5189    1.7582    0.2762 O.3     1  LIG1        0.0000
     17 H           5.6758   -5.0960    1.5071 H       1  LIG1        0.0000
     18 H           7.8473   -4.3537    2.4136 H       1  LIG1        0.0000
     19 H           4.1068   -3.4714    0.4901 H       1  LIG1        0.0000
     20 H           8.5075   -1.9543    2.3200 H       1  LIG1        0.0000
     21 H           3.0237   -1.5419   -0.3840 H       1  LIG1        0.0000
     22 H           3.5405   -0.1934   -1.3695 H       1  LIG1        0.0000
     23 HA          2.5553    0.2573    1.5076 H       1  LIG1        0.0000
     24 H           7.5483    0.5487    1.4433 H       1  LIG1        0.0000
     25 H1          1.1005   -0.9224   -0.4703 H       1  LIG1        0.0000
     26 H2          0.5554    0.6427   -0.3984 H       1  LIG1        0.0000
     27 H3          0.5615   -0.2973    0.9688 H       1  LIG1        0.0000
     28 H           6.3078    2.2700    0.5644 H       1  LIG1        0.0000
@<TRIPOS>BOND
     1     1     2   ar
     2     1     3   ar
     3     2     4   ar
     4     3     5   ar
     5     4     7   ar
     6     5     6   ar
     7     5     7   ar
     8     6     8   ar
     9     6    10    1
    10     7    12   ar
    11     8    12   ar
    12     8    16    1
    13     9    11    1
    14     9    14   ar
    15     9    15   ar
    16    10    11    1
    17    11    13    1
    18     1    17    1
    19     2    18    1
    20     3    19    1
    21     4    20    1
    22    10    21    1
    23    10    22    1
    24    11    23    1
    25    12    24    1
    26    13    25    1
    27    13    26    1
    28    13    27    1
    29    16    28    1
