@<TRIPOS>MOLECULE
DB03506
 16 17 0 0 0
SMALL
USER_CHARGES

@<TRIPOS>ATOM
      1 C           4.4266   -0.6457    1.3970 C.ar    1  LIG1       -0.0204
      2 C           5.2300    0.4346    1.3923 C.ar    1  LIG1       -0.0048
      3 C           6.1052   -3.9728    1.3973 C.ar    1  LIG1        0.1180
      4 C           5.2909   -1.8213    1.3966 C.ar    1  LIG1        0.0909
      5 C           6.6090   -1.3322    1.3992 C.ar    1  LIG1        0.0966
      6 C           7.6566   -2.2599    1.3917 C.ar    1  LIG1        0.1404
      7 N           5.0868   -3.1414    1.3985 N.ar    1  LIG1       -0.2348
      8 N           7.3591   -3.5555    1.3937 N.ar    1  LIG1       -0.2199
      9 N           6.5360    0.0412    1.3965 N.ar    1  LIG1       -0.3164
     10 N           8.9760   -1.8370    1.3881 N.pl3   1  LIG1       -0.3416
     11 H           3.3466   -0.6427    1.3954 H       1  LIG1        0.0659
     12 H           4.8908    1.4599    1.3896 H       1  LIG1        0.0790
     13 H           5.9102   -5.0350    1.3988 H       1  LIG1        0.1063
     14 H           7.2989    0.6402    1.3980 H       1  LIG1        0.1524
     15 H           9.1816   -0.8891    1.3907 H       1  LIG1        0.1442
     16 H           9.6943   -2.4891    1.3869 H       1  LIG1        0.1442
@<TRIPOS>BOND
     1     1     2   ar
     2     1     4   ar
     3     2     9   ar
     4     3     7   ar
     5     3     8   ar
     6     4     5   ar
     7     4     7   ar
     8     5     6   ar
     9     5     9   ar
    10     6     8   ar
    11     6    10    1
    12     1    11    1
    13     2    12    1
    14     3    13    1
    15     9    14    1
    16    10    15    1
    17    10    16    1
