@<TRIPOS>MOLECULE
DB03750
 16 15 0 0 0
SMALL
USER_CHARGES

@<TRIPOS>ATOM
      1 C           3.2745    1.3601   -0.1085 C.2     1  LIG1        0.0000
      2 C           4.4410   -2.0316    1.2264 C.3     1  LIG1        0.0000
      3 C           5.6219    0.1697    1.2711 C.3     1  LIG1        0.0000
      4 C           3.5680   -0.1181   -0.1220 C.3     1  LIG1        0.0000
      5 C           4.2555   -0.5134    1.1863 C.3     1  LIG1        0.0000
      6 O           2.7252    1.8813   -1.0641 O.co2   1  LIG1       -0.5000
      7 O           3.5864    2.0347    0.8580 O.co2   1  LIG1       -0.5000
      8 H           4.9310   -2.3133    2.1585 H       1  LIG1        0.0000
      9 H           3.4676   -2.5183    1.1660 H       1  LIG1        0.0000
     10 H           5.0568   -2.3448    0.3832 H       1  LIG1        0.0000
     11 H           5.4898    1.2513    1.2424 H       1  LIG1        0.0000
     12 H           6.1118   -0.1120    2.2032 H       1  LIG1        0.0000
     13 H           6.2376   -0.1434    0.4279 H       1  LIG1        0.0000
     14 H           4.2230   -0.3507   -0.9616 H       1  LIG1        0.0000
     15 H           2.6352   -0.6727   -0.2243 H       1  LIG1        0.0000
     16 H           3.6398   -0.2002    2.0295 H       1  LIG1        0.0000
@<TRIPOS>BOND
     1     1     4    1
     2     1     6   ar
     3     1     7   ar
     4     2     5    1
     5     3     5    1
     6     4     5    1
     7     2     8    1
     8     2     9    1
     9     2    10    1
    10     3    11    1
    11     3    12    1
    12     3    13    1
    13     4    14    1
    14     4    15    1
    15     5    16    1
