@<TRIPOS>MOLECULE
DB03225
 27 28 0 0 0
SMALL
USER_CHARGES

@<TRIPOS>ATOM
      1 CZ3         5.9278   -4.0032    1.3206 C.ar    1  TRP1        0.0000
      2 CH2         7.2638   -3.6218    1.2142 C.ar    1  TRP1        0.0000
      3 CE3         4.9185   -3.0443    1.4654 C.ar    1  TRP1        0.0000
      4 CZ2         7.6337   -2.2742    1.2489 C.ar    1  TRP1        0.0000
      5 CD1         5.4241    0.5731    1.6049 C.ar    1  TRP1        0.0000
      6 CD2         5.2673   -1.6796    1.5030 C.ar    1  TRP1        0.0000
      7 CG          4.5283   -0.4707    1.6352 C.ar    1  TRP1        0.0000
      8 CE2         6.6141   -1.3268    1.3941 C.ar    1  TRP1        0.0000
      9 C           2.8766    1.4507   -0.0131 C.2     1  TRP1        0.0000
     10 CB          3.0637   -0.3465    1.7811 C.3     1  TRP1        0.0000
     11 CA          2.3428    0.1017    0.4906 C.3     1  TRP1        0.0000
     12 NE1         6.6796    0.0469    1.4590 N.ar    1  TRP1        0.0000
     13 N           2.4942   -0.9776   -0.5356 N.4     1  TRP1        0.0000
     14 O           2.8672    1.5870   -1.2694 O.co2   1  TRP1       -0.5000
     15 OXT         3.2658    2.2539    0.8809 O.co2   1  TRP1       -0.5000
     16 HZ3         5.6649   -5.0571    1.2905 H       1  TRP1        0.0000
     17 HH2         8.0315   -4.3831    1.1025 H       1  TRP1        0.0000
     18 HE3         3.8815   -3.3577    1.5461 H       1  TRP1        0.0000
     19 HZ2         8.6741   -1.9783    1.1671 H       1  TRP1        0.0000
     20 HD1         5.2817    1.6429    1.6725 H       1  TRP1        0.0000
     21 HB1         2.8315    0.3806    2.5840 H       1  TRP1        0.0000
     22 HB2         2.6168   -1.2958    2.1363 H       1  TRP1        0.0000
     23 HA          1.2632    0.1732    0.6691 H       1  TRP1        0.0000
     24 HE1         7.5317    0.5878    1.4065 H       1  TRP1        0.0000
     25 H1          2.9845   -1.7789   -0.1362 H       1  TRP1        0.0000
     26 H2          3.0282   -0.6324   -1.3345 H       1  TRP1        0.0000
     27 H3          1.5774   -1.2850   -0.8631 H       1  TRP1        0.0000
@<TRIPOS>BOND
     1     1     2   ar
     2     1     3   ar
     3     2     4   ar
     4     3     6   ar
     5     4     8   ar
     6     5     7   ar
     7     5    12   ar
     8     6     7   ar
     9     6     8   ar
    10     7    10    1
    11     8    12   ar
    12     9    11    1
    13     9    14   ar
    14     9    15   ar
    15    10    11    1
    16    11    13    1
    17     1    16    1
    18     2    17    1
    19     3    18    1
    20     4    19    1
    21     5    20    1
    22    10    21    1
    23    10    22    1
    24    11    23    1
    25    12    24    1
    26    13    25    1
    27    13    26    1
    28    13    27    1
