@<TRIPOS>MOLECULE
DB03028
 17 18 0 0 0
SMALL
USER_CHARGES

@<TRIPOS>ATOM
      1 C           6.6783   -4.0478    1.4821 C.ar    1  LIG1        0.0000
      2 C           7.7506   -3.1857    1.6758 C.ar    1  LIG1        0.0000
      3 C           5.4282   -3.5616    1.2344 C.ar    1  LIG1        0.0000
      4 C           7.5706   -1.8211    1.6216 C.ar    1  LIG1        0.0000
      5 C           5.2167   -2.1768    1.1744 C.ar    1  LIG1        0.0000
      6 C           6.3056   -1.3027    1.3711 C.ar    1  LIG1        0.0000
      7 C           4.4590   -0.1507    0.9996 C.ar    1  LIG1        0.0000
      8 C           3.5253    0.9770    0.8041 C.2     1  LIG1        0.0000
      9 N           4.1295   -1.4176    0.9604 N.ar    1  LIG1        0.0000
     10 N           5.8007   -0.0294    1.2557 N.ar    1  LIG1        0.0000
     11 O           3.9349    2.1276    0.8661 O.co2   1  LIG1       -0.5000
     12 O           2.3420    0.7602    0.5851 O.co2   1  LIG1       -0.5000
     13 H           6.8364   -5.1151    1.5278 H       1  LIG1        0.0000
     14 H           8.7336   -3.5887    1.8701 H       1  LIG1        0.0000
     15 H           4.6027   -4.2420    1.0856 H       1  LIG1        0.0000
     16 H           8.4086   -1.1570    1.7727 H       1  LIG1        0.0000
     17 H           6.2992    0.7984    1.3393 H       1  LIG1        0.0000
@<TRIPOS>BOND
     1     1     2   ar
     2     1     3   ar
     3     2     4   ar
     4     3     5   ar
     5     4     6   ar
     6     5     6   ar
     7     5     9   ar
     8     6    10   ar
     9     7     8    1
    10     7     9   ar
    11     7    10   ar
    12     8    11   ar
    13     8    12   ar
    14     1    13    1
    15     2    14    1
    16     3    15    1
    17     4    16    1
    18    10    17    1
