@<TRIPOS>MOLECULE
DB03884
 19 19 0 0 0
SMALL
USER_CHARGES

@<TRIPOS>ATOM
      1 C           6.8950   -3.9294    1.1363 C.ar    1  LIG1        0.0000
      2 C           5.6074   -3.8374    1.6311 C.ar    1  LIG1        0.0000
      3 C           7.5627   -2.7890    0.7307 C.ar    1  LIG1        0.0000
      4 C           4.9878   -2.6049    1.7207 C.ar    1  LIG1        0.0000
      5 C           6.9415   -1.5571    0.8163 C.ar    1  LIG1        0.0000
      6 C           5.6559   -1.4644    1.3159 C.ar    1  LIG1        0.0000
      7 C           4.2337    0.1601    0.1350 C.2     1  LIG1        0.0000
      8 C           3.4753    1.4371   -0.0216 C.2     1  LIG1        0.0000
      9 C           4.9804   -0.1208    1.4135 C.3     1  LIG1        0.0000
     10 O           3.4562    2.2510    0.8876 O.co2   1  LIG1       -0.5000
     11 O           4.2484   -0.6475   -0.7629 O.2     1  LIG1        0.0000
     12 O           2.8705    1.6647   -1.0571 O.co2   1  LIG1       -0.5000
     13 H           7.3793   -4.8922    1.0670 H       1  LIG1        0.0000
     14 H           5.0858   -4.7284    1.9480 H       1  LIG1        0.0000
     15 H           8.5687   -2.8607    0.3445 H       1  LIG1        0.0000
     16 H           3.9820   -2.5331    2.1072 H       1  LIG1        0.0000
     17 H           7.4631   -0.6660    0.4993 H       1  LIG1        0.0000
     18 H           5.7315    0.6527    1.5730 H       1  LIG1        0.0000
     19 H           4.2807   -0.1258    2.2493 H       1  LIG1        0.0000
@<TRIPOS>BOND
     1     1     2   ar
     2     1     3   ar
     3     2     4   ar
     4     3     5   ar
     5     4     6   ar
     6     5     6   ar
     7     6     9    1
     8     7     8    1
     9     7     9    1
    10     7    11    2
    11     8    10   ar
    12     8    12   ar
    13     1    13    1
    14     2    14    1
    15     3    15    1
    16     4    16    1
    17     5    17    1
    18     9    18    1
    19     9    19    1
