@<TRIPOS>MOLECULE
DB03372
 34 36 0 0 0
SMALL
USER_CHARGES

@<TRIPOS>ATOM
      1 C           6.1308   -4.0038    1.3958 C.ar    1  LIG1       -0.0615
      2 C           7.4274   -3.5162    1.3965 C.ar    1  LIG1       -0.0603
      3 C           5.0385   -3.1717    1.3955 C.ar    1  LIG1       -0.0527
      4 C           7.7068   -2.1607    1.3975 C.ar    1  LIG1       -0.0402
      5 C           5.2918   -1.7967    1.3959 C.ar    1  LIG1        0.0006
      6 C           4.4219   -0.6378    1.3952 C.ar    1  LIG1       -0.0185
      7 C           6.6175   -1.2919    1.3966 C.ar    1  LIG1        0.0377
      8 C           5.2184    0.4529    1.3975 C.ar    1  LIG1        0.0287
      9 C           2.6678    2.6602    0.2652 C.2     1  LIG1        0.2154
     10 C           2.9149   -0.6016    1.3913 C.3     1  LIG1       -0.0097
     11 C           4.6930    1.8667    1.4015 C.3     1  LIG1        0.0525
     12 C           2.4484    0.7899    1.8357 C.3     1  LIG1        0.0186
     13 C           3.5042    3.6914   -0.4477 C.3     1  LIG1        0.0334
     14 C           2.6108    4.5243   -1.3691 C.3     1  LIG1       -0.0012
     15 N           6.5334    0.0707    1.3965 N.ar    1  LIG1       -0.3162
     16 N           3.2456    1.8075    1.1344 N.am    1  LIG1       -0.2958
     17 O           1.4747    2.5977    0.0568 O.2     1  LIG1       -0.2774
     18 S           3.6176    5.7655   -2.2272 S.3     1  LIG1       -0.1788
     19 H           5.9739   -5.0723    1.3957 H       1  LIG1        0.0623
     20 H           8.2484   -4.2180    1.3967 H       1  LIG1        0.0623
     21 H           4.0311   -3.5610    1.3947 H       1  LIG1        0.0630
     22 H           8.7225   -1.7933    1.3983 H       1  LIG1        0.0642
     23 H           2.5303   -1.3528    2.0810 H       1  LIG1        0.0333
     24 H           2.5477   -0.8055    0.3855 H       1  LIG1        0.0333
     25 H           5.1921    2.4493    0.6274 H       1  LIG1        0.0534
     26 H           4.8637    2.3223    2.3770 H       1  LIG1        0.0534
     27 H           2.5876    0.8951    2.9116 H       1  LIG1        0.0473
     28 H           1.3945    0.9177    1.5883 H       1  LIG1        0.0473
     29 H           4.2708    3.1913   -1.0397 H       1  LIG1        0.0373
     30 H           3.9790    4.3438    0.2851 H       1  LIG1        0.0373
     31 H           1.8442    5.0244   -0.7771 H       1  LIG1        0.0383
     32 H           2.1360    3.8719   -2.1019 H       1  LIG1        0.0383
     33 H           7.2908    0.6766    1.3959 H       1  LIG1        0.1525
     34 H           2.6670    6.3698   -2.9622 H       1  LIG1        0.1022
@<TRIPOS>BOND
     1     1     2   ar
     2     1     3   ar
     3     2     4   ar
     4     3     5   ar
     5     4     7   ar
     6     5     6   ar
     7     5     7   ar
     8     6     8   ar
     9     6    10    1
    10     7    15   ar
    11     8    11    1
    12     8    15   ar
    13     9    13    1
    14     9    16   am
    15     9    17    2
    16    10    12    1
    17    11    16    1
    18    12    16    1
    19    13    14    1
    20    14    18    1
    21     1    19    1
    22     2    20    1
    23     3    21    1
    24     4    22    1
    25    10    23    1
    26    10    24    1
    27    11    25    1
    28    11    26    1
    29    12    27    1
    30    12    28    1
    31    13    29    1
    32    13    30    1
    33    14    31    1
    34    14    32    1
    35    15    33    1
    36    18    34    1
