@<TRIPOS>MOLECULE
DB03100
 17 18 0 0 0
SMALL
USER_CHARGES

@<TRIPOS>ATOM
      1 C           6.6864   -0.2634    2.0568 C.ar    1  LIG1       -0.0493
      2 C           5.6556    0.5185    1.6495 C.ar    1  LIG1       -0.0327
      3 C           4.4786   -1.3270    0.6509 C.ar    1  LIG1       -0.0055
      4 C           7.5160   -2.7057    2.0268 C.ar    1  LIG1        0.0207
      5 C           6.6653   -1.6458    1.7732 C.ar    1  LIG1        0.0173
      6 C           5.5173   -2.2005    1.0390 C.ar    1  LIG1        0.0918
      7 C           4.5656   -0.0074    0.9521 C.ar    1  LIG1        0.1198
      8 N           5.7406   -3.4952    0.9048 N.ar    1  LIG1       -0.1841
      9 N           6.9635   -3.8105    1.5080 N.ar    1  LIG1       -0.2446
     10 N           3.4724    0.8994    0.5355 N.pl3   1  LIG1        0.0921
     11 O           2.5117    0.4575   -0.0691 O.2     1  LIG1       -0.1380
     12 O           3.5310    2.0865    0.8017 O.2     1  LIG1       -0.1380
     13 H           7.5176    0.1688    2.5941 H       1  LIG1        0.0631
     14 H           5.6783    1.5755    1.8701 H       1  LIG1        0.0645
     15 H           3.6214   -1.7067    0.1148 H       1  LIG1        0.0669
     16 H           8.4592   -2.6523    2.5502 H       1  LIG1        0.0813
     17 H           7.3538   -4.6979    1.5446 H       1  LIG1        0.1747
@<TRIPOS>BOND
     1     1     2   ar
     2     1     5   ar
     3     2     7   ar
     4     3     6   ar
     5     3     7   ar
     6     4     5   ar
     7     4     9   ar
     8     5     6   ar
     9     6     8   ar
    10     7    10    1
    11     8     9   ar
    12    10    11    2
    13    10    12    2
    14     1    13    1
    15     2    14    1
    16     3    15    1
    17     4    16    1
    18     9    17    1
