@<TRIPOS>MOLECULE
DB03177
 18 19 0 0 0
SMALL
USER_CHARGES

@<TRIPOS>ATOM
      1 C           5.9156   -3.9298    1.3961 C.ar    1  LIG1       -0.0570
      2 C           4.8803   -2.9865    1.3960 C.ar    1  LIG1       -0.0342
      3 C           7.6065   -2.1758    1.3964 C.ar    1  LIG1       -0.0356
      4 C           5.2280    0.5131    1.3964 C.ar    1  LIG1        0.0851
      5 C           7.2537   -3.5295    1.3964 C.ar    1  LIG1       -0.0491
      6 C           5.2165   -1.6222    1.3963 C.ar    1  LIG1        0.0858
      7 C           6.5589   -1.2541    1.3964 C.ar    1  LIG1        0.0573
      8 C           8.3302   -4.5648    1.3964 C.3     1  LIG1       -0.0397
      9 N           4.4046   -0.5112    1.3961 N.ar    1  LIG1       -0.2394
     10 N           6.5366    0.1170    1.3965 N.ar    1  LIG1       -0.3040
     11 H           5.6626   -4.9877    1.3958 H       1  LIG1        0.0626
     12 H           3.8436   -3.3076    1.3958 H       1  LIG1        0.0646
     13 H           8.6425   -1.8546    1.3967 H       1  LIG1        0.0646
     14 H           4.9453    1.5561    1.3963 H       1  LIG1        0.1014
     15 H           8.6040   -4.8280    0.3681 H       1  LIG1        0.0280
     16 H           9.2266   -4.2045    1.9157 H       1  LIG1        0.0280
     17 H           8.0046   -5.4749    1.9154 H       1  LIG1        0.0280
     18 H           7.3437    0.7263    1.3966 H       1  LIG1        0.1537
@<TRIPOS>BOND
     1     1     2   ar
     2     1     5   ar
     3     2     6   ar
     4     3     5   ar
     5     3     7   ar
     6     4     9   ar
     7     4    10   ar
     8     5     8    1
     9     6     7   ar
    10     6     9   ar
    11     7    10   ar
    12     1    11    1
    13     2    12    1
    14     3    13    1
    15     4    14    1
    16     8    15    1
    17     8    16    1
    18     8    17    1
    19    10    18    1
