@<TRIPOS>MOLECULE
DB03799
 20 19 0 0 0
SMALL
USER_CHARGES

@<TRIPOS>ATOM
      1 C1          3.0067    1.6387   -0.0757 C.2     1  <1>         0.0000
      2 C2          3.9782   -0.4237    1.1739 C.3     1  <1>         0.0000
      3 C3          5.4296   -0.2350    0.7263 C.3     1  <1>         0.0000
      4 C4          2.9424    0.1228    0.1799 C.3     1  <1>         0.0000
      5 C5          6.4600   -2.6322    1.5445 C.3     1  <1>         0.0000
      6 N1          3.0193   -0.7155   -1.0581 N.4     1  <1>         0.0000
      7 O1          2.6051    2.0232   -1.2101 O.co2   1  <1>        -0.5000
      8 O2          3.4315    2.3301    0.8938 O.co2   1  <1>        -0.5000
      9 F1          6.4219   -2.8184    0.2036 F       1  <1>         0.0000
     10 F2          7.5095   -3.3414    2.0241 F       1  <1>         0.0000
     11 F3          5.3345   -3.1843    2.0583 F       1  <1>         0.0000
     12 S1          6.5730   -0.8970    1.9752 S.3     1  <1>         0.0000
     13 H1          3.8296    0.0692    2.1444 H       1  <1>         0.0000
     14 H2          3.7787   -1.4906    1.3396 H       1  <1>         0.0000
     15 H3          5.6652    0.8244    0.5903 H       1  <1>         0.0000
     16 H4          5.6230   -0.7503   -0.2188 H       1  <1>         0.0000
     17 H5          1.9428   -0.0699    0.5890 H       1  <1>         0.0000
     18 H6          2.6572   -1.6520   -0.8738 H       1  <1>         0.0000
     19 H7          3.9881   -0.7952   -1.3707 H       1  <1>         0.0000
     20 H8          2.4679   -0.2927   -1.8061 H       1  <1>         0.0000
@<TRIPOS>BOND
     1     1     4    1
     2     1     7   ar
     3     1     8   ar
     4     2     3    1
     5     2     4    1
     6     3    12    1
     7     4     6    1
     8     5     9    1
     9     5    10    1
    10     5    11    1
    11     5    12    1
    12     2    13    1
    13     2    14    1
    14     3    15    1
    15     3    16    1
    16     4    17    1
    17     6    18    1
    18     6    19    1
    19     6    20    1
