@<TRIPOS>MOLECULE
DB03210
 22 22 0 0 0
SMALL
USER_CHARGES

@<TRIPOS>ATOM
      1 C           5.0350   -2.6377    1.7900 C.ar    1  LIG1        0.0000
      2 C           6.9911   -1.5849    0.8897 C.ar    1  LIG1        0.0000
      3 C           5.7023   -3.8459    1.8369 C.ar    1  LIG1        0.0000
      4 C           7.6663   -2.7888    0.9391 C.ar    1  LIG1        0.0000
      5 C           5.6791   -1.5081    1.3198 C.ar    1  LIG1        0.0000
      6 C           7.0222   -3.9255    1.4110 C.ar    1  LIG1        0.0000
      7 C           3.5133    1.2675   -0.1311 C.2     1  LIG1        0.0000
      8 C           4.9476   -0.1915    1.2701 C.3     1  LIG1        0.0000
      9 C           4.2448   -0.0492   -0.0815 C.3     1  LIG1        0.0000
     10 N           7.7003   -5.1457    1.4574 N.pl3   1  LIG1        0.0000
     11 O           2.8842    1.5781   -1.1282 O.co2   1  LIG1       -0.5000
     12 O           3.5508    2.0221    0.8258 O.co2   1  LIG1       -0.5000
     13 H           4.0090   -2.5751    2.1214 H       1  LIG1        0.0000
     14 H           7.4913   -0.7008    0.5230 H       1  LIG1        0.0000
     15 H           5.1988   -4.7278    2.2047 H       1  LIG1        0.0000
     16 H           8.6924   -2.8471    0.6076 H       1  LIG1        0.0000
     17 H           5.6591    0.6245    1.3973 H       1  LIG1        0.0000
     18 H           4.2078   -0.1564    2.0698 H       1  LIG1        0.0000
     19 H           3.5333   -0.8651   -0.2086 H       1  LIG1        0.0000
     20 H           4.9846   -0.0842   -0.8812 H       1  LIG1        0.0000
     21 H           7.2496   -5.9388    1.7874 H       1  LIG1        0.0000
     22 H           8.6219   -5.2001    1.1597 H       1  LIG1        0.0000
@<TRIPOS>BOND
     1     1     3   ar
     2     1     5   ar
     3     2     4   ar
     4     2     5   ar
     5     3     6   ar
     6     4     6   ar
     7     5     8    1
     8     6    10    1
     9     7     9    1
    10     7    11   ar
    11     7    12   ar
    12     8     9    1
    13     1    13    1
    14     2    14    1
    15     3    15    1
    16     4    16    1
    17     8    17    1
    18     8    18    1
    19     9    19    1
    20     9    20    1
    21    10    21    1
    22    10    22    1
