@<TRIPOS>MOLECULE
DB03441
 23 23 0 0 0
SMALL
USER_CHARGES

@<TRIPOS>ATOM
      1 C           6.6813   -3.9616    1.4311 C.ar    1  LIG1        0.0000
      2 C           7.5153   -2.8474    1.5238 C.ar    1  LIG1        0.0000
      3 C           5.3190   -3.7944    1.1820 C.ar    1  LIG1        0.0000
      4 C           6.9870   -1.5659    1.3677 C.ar    1  LIG1        0.0000
      5 C           4.7907   -2.5129    1.0258 C.ar    1  LIG1        0.0000
      6 C           5.6247   -1.3986    1.1185 C.ar    1  LIG1        0.0000
      7 C           3.3261    1.4968   -0.0459 C.2     1  LIG1        0.0000
      8 C           5.0518   -0.0109    0.9495 C.3     1  LIG1        0.0000
      9 C           4.2219   -0.4673   -1.3844 C.3     1  LIG1        0.0000
     10 C           3.8294    0.0359    0.0121 C.3     1  LIG1        0.0000
     11 O           2.7516    1.8095   -1.1287 O.co2   1  LIG1       -0.5000
     12 O           3.5378    2.2009    0.9810 O.co2   1  LIG1       -0.5000
     13 I           2.5039   -1.1404   -2.4934 I       1  LIG1        0.0000
     14 H           7.0930   -4.9594    1.5514 H       1  LIG1        0.0000
     15 H           8.5761   -2.9774    1.7167 H       1  LIG1        0.0000
     16 H           4.6696   -4.6617    1.1086 H       1  LIG1        0.0000
     17 H           7.6443   -0.7036    1.4417 H       1  LIG1        0.0000
     18 H           3.7281   -2.3922    0.8321 H       1  LIG1        0.0000
     19 H           4.8025    0.4081    1.9334 H       1  LIG1        0.0000
     20 H           5.8497    0.6313    0.5526 H       1  LIG1        0.0000
     21 H           4.7410    0.3065   -1.9609 H       1  LIG1        0.0000
     22 H           4.9108   -1.3153   -1.2948 H       1  LIG1        0.0000
     23 H           3.0343   -0.6032    0.4187 H       1  LIG1        0.0000
@<TRIPOS>BOND
     1     1     2   ar
     2     1     3   ar
     3     2     4   ar
     4     3     5   ar
     5     4     6   ar
     6     5     6   ar
     7     6     8    1
     8     7    10    1
     9     7    11   ar
    10     7    12   ar
    11     8    10    1
    12     9    10    1
    13     9    13    1
    14     1    14    1
    15     2    15    1
    16     3    16    1
    17     4    17    1
    18     5    18    1
    19     8    19    1
    20     8    20    1
    21     9    21    1
    22     9    22    1
    23    10    23    1
