@<TRIPOS>MOLECULE
DB03409
 27 28 0 0 0
SMALL
USER_CHARGES

@<TRIPOS>ATOM
      1 C           4.4946    1.2829    0.5420 C.2     1  LIG1        0.0000
      2 C           6.4046   -4.2382    1.3078 C.3     1  LIG1        0.0000
      3 C           7.7019   -3.5685    1.7506 C.3     1  LIG1        0.0000
      4 C           5.1749   -3.4179    1.7302 C.3     1  LIG1        0.0000
      5 C           7.7893   -2.1203    1.2413 C.3     1  LIG1        0.0000
      6 C           4.2273   -1.0282    1.4678 C.3     1  LIG1        0.0000
      7 CA          4.9846    0.3186    1.5912 C.3     1  LIG1        0.0000
      8 C           5.3226   -2.0369    1.1184 C.3     1  LIG1        0.0000
      9 C           6.5735   -1.3834    1.7678 C.3     1  LIG1        0.0000
     10 N           6.4299    0.0225    1.3760 N.4     1  LIG1        0.0000
     11 O           3.5875    2.0555    0.8003 O.co2   1  LIG1       -0.5000
     12 OXT         5.0020    1.2873   -0.5666 O.co2   1  LIG1       -0.5000
     13 H           6.3435   -5.2291    1.7577 H       1  LIG1        0.0000
     14 H           6.4089   -4.3406    0.2226 H       1  LIG1        0.0000
     15 H           7.7485   -3.5667    2.8396 H       1  LIG1        0.0000
     16 H           8.5471   -4.1352    1.3598 H       1  LIG1        0.0000
     17 H           5.1363   -3.3400    2.8168 H       1  LIG1        0.0000
     18 H           4.2668   -3.8929    1.3589 H       1  LIG1        0.0000
     19 H           8.6988   -1.6500    1.6151 H       1  LIG1        0.0000
     20 H           7.7862   -2.1097    0.1514 H       1  LIG1        0.0000
     21 H           3.7552   -1.2894    2.4149 H       1  LIG1        0.0000
     22 H           3.4855   -0.9780    0.6708 H       1  LIG1        0.0000
     23 HA          4.8348    0.7412    2.5846 H       1  LIG1        0.0000
     24 H           5.4461   -2.1027    0.0373 H       1  LIG1        0.0000
     25 H           6.5222   -1.4804    2.8523 H       1  LIG1        0.0000
     26 H1          6.6743    0.1448    0.4047 H       1  LIG1        0.0000
     27 H2          7.0035    0.6119    1.9606 H       1  LIG1        0.0000
@<TRIPOS>BOND
     1     1     7    1
     2     1    11   ar
     3     1    12   ar
     4     2     3    1
     5     2     4    1
     6     3     5    1
     7     4     8    1
     8     5     9    1
     9     6     7    1
    10     6     8    1
    11     7    10    1
    12     8     9    1
    13     9    10    1
    14     2    13    1
    15     2    14    1
    16     3    15    1
    17     3    16    1
    18     4    17    1
    19     4    18    1
    20     5    19    1
    21     5    20    1
    22     6    21    1
    23     6    22    1
    24     7    23    1
    25     8    24    1
    26     9    25    1
    27    10    26    1
    28    10    27    1
