@<TRIPOS>MOLECULE
DB03673
 20 20 0 0 0
SMALL
USER_CHARGES

@<TRIPOS>ATOM
      1 C           6.3680   -1.6115    2.1926 C.ar    1  LIG1        0.0000
      2 C           5.1340   -1.9244    1.5527 C.ar    1  LIG1        0.0000
      3 C           6.7691   -0.3183    1.9387 C.ar    1  LIG1        0.0000
      4 C           4.6388   -0.8583    0.8343 C.ar    1  LIG1        0.0000
      5 C           2.8152    1.6968   -0.0825 C.2     1  LIG1        0.0000
      6 C           3.3732   -0.7817    0.0262 C.3     1  LIG1        0.0000
      7 CA          2.4272    0.3294    0.4992 C.3     1  LIG1        0.0000
      8 N           1.0362   -0.0674    0.1134 N.4     1  LIG1        0.0000
      9 O           2.8677    1.7387   -1.3445 O.co2   1  LIG1       -0.5000
     10 OXT         3.0414    2.6073    0.7633 O.co2   1  LIG1       -0.5000
     11 S           5.6601    0.5126    0.9328 S.2     1  LIG1        0.0000
     12 H           6.9329   -2.2989    2.8084 H       1  LIG1        0.0000
     13 H           4.6378   -2.8843    1.6203 H       1  LIG1        0.0000
     14 H           7.6605    0.1781    2.2956 H       1  LIG1        0.0000
     15 H           2.8645   -1.7539    0.0905 H       1  LIG1        0.0000
     16 H           3.6180   -0.6501   -1.0366 H       1  LIG1        0.0000
     17 HA          2.4130    0.3824    1.5943 H       1  LIG1        0.0000
     18 H1          0.9638   -1.0836    0.0482 H       1  LIG1        0.0000
     19 H2          0.7922    0.3366   -0.7920 H       1  LIG1        0.0000
     20 H3          0.3679    0.2641    0.8104 H       1  LIG1        0.0000
@<TRIPOS>BOND
     1     1     2   ar
     2     1     3   ar
     3     2     4   ar
     4     3    11   ar
     5     4     6    1
     6     4    11   ar
     7     5     7    1
     8     5     9   ar
     9     5    10   ar
    10     6     7    1
    11     7     8    1
    12     1    12    1
    13     2    13    1
    14     3    14    1
    15     6    15    1
    16     6    16    1
    17     7    17    1
    18     8    18    1
    19     8    19    1
    20     8    20    1
