@<TRIPOS>MOLECULE
DB03136
 21 22 0 0 0
SMALL
USER_CHARGES

@<TRIPOS>ATOM
      1 C           7.0354   -0.1332    1.7892 C.ar    1  LIG1        0.0000
      2 C           6.0755    0.8410    1.5085 C.ar    1  LIG1        0.0000
      3 C           6.7167   -1.4818    1.7158 C.ar    1  LIG1        0.0000
      4 C           3.0573   -1.0833    0.6851 C.ar    1  LIG1        0.0000
      5 C           4.4309   -0.9198    1.0683 C.ar    1  LIG1        0.0000
      6 C           4.7761    0.4328    1.1490 C.ar    1  LIG1        0.0000
      7 C           5.4267   -1.8834    1.3589 C.ar    1  LIG1        0.0000
      8 C           2.4103    0.1137    0.4895 C.ar    1  LIG1        0.0000
      9 C           1.0403    0.2310    0.1037 C.2     1  LIG1        0.0000
     10 N           0.2747   -0.8659   -0.0984 N.pl3   1  LIG1        0.0000
     11 N           0.4642    1.4426   -0.0703 N.2     1  LIG1        0.0000
     12 S           3.4367    1.4471    0.7612 S.2     1  LIG1        0.0000
     13 I           5.0381   -3.9421    1.2810 I       1  LIG1        0.0000
     14 H           8.0412    0.1696    2.0679 H       1  LIG1        0.0000
     15 H           6.3342    1.8943    1.5681 H       1  LIG1        0.0000
     16 H           7.4902   -2.2115    1.9430 H       1  LIG1        0.0000
     17 H           2.5598   -2.0369    0.5569 H       1  LIG1        0.0000
     18 H           0.6741   -1.7906    0.0180 H       1  LIG1        0.0000
     19 H          -0.6976   -0.7995   -0.3790 H       1  LIG1        0.0000
     20 H           1.0059    2.2868    0.0783 H       1  LIG1        0.0000
     21 H          -0.5086    1.5426   -0.3391 H       1  LIG1        0.0000
@<TRIPOS>BOND
     1     1     2   ar
     2     1     3   ar
     3     2     6   ar
     4     3     7   ar
     5     4     5   ar
     6     4     8   ar
     7     5     6   ar
     8     5     7   ar
     9     6    12   ar
    10     7    13    1
    11     8     9    1
    12     8    12   ar
    13     9    10    1
    14     9    11    2
    15     1    14    1
    16     2    15    1
    17     3    16    1
    18     4    17    1
    19    10    18    1
    20    10    19    1
    21    11    20    1
    22    11    21    1
