@<TRIPOS>MOLECULE
DB03972
 22 23 0 0 0
SMALL
USER_CHARGES

@<TRIPOS>ATOM
      1 C           6.7306   -2.4446    1.7924 C.ar    1  LIG1       -0.0617
      2 C           5.9022   -3.2785    1.0641 C.ar    1  LIG1       -0.0596
      3 C           6.3511   -1.1378    2.0086 C.ar    1  LIG1       -0.0529
      4 C           4.7209   -2.7939    0.5565 C.ar    1  LIG1       -0.0314
      5 C           5.1497   -0.6453    1.5078 C.ar    1  LIG1        0.0209
      6 C           4.3289   -1.4609    0.7627 C.ar    1  LIG1        0.0804
      7 C           4.8335    0.7893    1.8669 C.3     1  LIG1        0.1278
      8 C           2.4600   -0.0983    0.8352 C.3     1  LIG1        0.0776
      9 N           1.1898    0.1624    0.1447 N.4     1  LIG1        0.4029
     10 O           3.1563   -1.1389    0.1772 O.3     1  LIG1       -0.3506
     11 O           4.4156    0.8585    3.2318 O.3     1  LIG1       -0.3778
     12 S           3.5002    1.3954    0.7930 S.3     1  LIG1       -0.1136
     13 H           7.6655   -2.8137    2.1874 H       1  LIG1        0.0623
     14 H           6.1828   -4.3077    0.8951 H       1  LIG1        0.0623
     15 H           6.9969   -0.4846    2.5766 H       1  LIG1        0.0628
     16 H           4.0804   -3.4516   -0.0124 H       1  LIG1        0.0650
     17 H           5.7223    1.4042    1.7261 H       1  LIG1        0.0774
     18 H           2.2650   -0.3818    1.8694 H       1  LIG1        0.0506
     19 H           1.3741    0.4143   -0.8148 H       1  LIG1       -0.0848
     20 H           0.7063    0.9194    0.6043 H       1  LIG1       -0.0848
     21 H           0.6165   -0.6676    0.1705 H       1  LIG1       -0.0848
     22 H           4.2244    1.7878    3.4187 H       1  LIG1        0.2121
@<TRIPOS>BOND
     1     1     2   ar
     2     1     3   ar
     3     2     4   ar
     4     3     5   ar
     5     4     6   ar
     6     5     6   ar
     7     5     7    1
     8     6    10    1
     9     7    11    1
    10     7    12    1
    11     8     9    1
    12     8    10    1
    13     8    12    1
    14     1    13    1
    15     2    14    1
    16     3    15    1
    17     4    16    1
    18     7    17    1
    19     8    18    1
    20     9    19    1
    21     9    20    1
    22     9    21    1
    23    11    22    1
