@<TRIPOS>MOLECULE
DB03400
 23 23 0 0 0
SMALL
USER_CHARGES

@<TRIPOS>ATOM
      1 C           5.4647   -3.7725    1.7277 C.ar    1  LIG1        0.0000
      2 C           7.4391   -2.7700    0.8168 C.ar    1  LIG1        0.0000
      3 C           4.8348   -2.5421    1.7164 C.ar    1  LIG1        0.0000
      4 C           6.8077   -1.5405    0.8015 C.ar    1  LIG1        0.0000
      5 C           6.7670   -3.8865    1.2781 C.ar    1  LIG1        0.0000
      6 C           5.5072   -1.4256    1.2560 C.ar    1  LIG1        0.0000
      7 C           3.4128    1.4488   -0.1045 C.2     1  LIG1        0.0000
      8 C           7.4541   -5.2276    1.2913 C.3     1  LIG1        0.0000
      9 C           4.8205   -0.0842    1.2436 C.3     1  LIG1        0.0000
     10 C           4.0996    0.1074   -0.0922 C.3     1  LIG1        0.0000
     11 O           2.7774    1.7994   -1.0843 O.co2   1  LIG1       -0.5000
     12 O           3.4926    2.1834    0.8653 O.co2   1  LIG1       -0.5000
     13 H           4.9396   -4.6447    2.0880 H       1  LIG1        0.0000
     14 H           8.4566   -2.8590    0.4659 H       1  LIG1        0.0000
     15 H           3.8174   -2.4532    2.0677 H       1  LIG1        0.0000
     16 H           7.3327   -0.6682    0.4411 H       1  LIG1        0.0000
     17 H           7.2754   -5.7368    0.3443 H       1  LIG1        0.0000
     18 H           8.5257   -5.0856    1.4310 H       1  LIG1        0.0000
     19 H           7.0581   -5.8307    2.1084 H       1  LIG1        0.0000
     20 H           5.5615    0.7046    1.3730 H       1  LIG1        0.0000
     21 H           4.0962   -0.0393    2.0570 H       1  LIG1        0.0000
     22 H           3.3585   -0.6814   -0.2215 H       1  LIG1        0.0000
     23 H           4.8237    0.0625   -0.9057 H       1  LIG1        0.0000
@<TRIPOS>BOND
     1     1     3   ar
     2     1     5   ar
     3     2     4   ar
     4     2     5   ar
     5     3     6   ar
     6     4     6   ar
     7     5     8    1
     8     6     9    1
     9     7    10    1
    10     7    11   ar
    11     7    12   ar
    12     9    10    1
    13     1    13    1
    14     2    14    1
    15     3    15    1
    16     4    16    1
    17     8    17    1
    18     8    18    1
    19     8    19    1
    20     9    20    1
    21     9    21    1
    22    10    22    1
    23    10    23    1
