@<TRIPOS>MOLECULE
DB03876
 20 21 0 0 0
SMALL
USER_CHARGES

@<TRIPOS>ATOM
      1 C           6.7091   -1.4043    1.7129 C.ar    1  LIG1        0.0000
      2 C           5.4490   -1.8803    1.3650 C.ar    1  LIG1        0.0000
      3 C           3.0599   -1.1102    0.6859 C.ar    1  LIG1        0.0000
      4 C           6.9053   -0.0352    1.7518 C.ar    1  LIG1        0.0000
      5 C           4.4306   -0.9518    1.0683 C.ar    1  LIG1        0.0000
      6 C           2.4217    0.0952    0.4926 C.ar    1  LIG1        0.0000
      7 C           4.7682    0.3953    1.1471 C.ar    1  LIG1        0.0000
      8 C           1.0528    0.2257    0.1073 C.2     1  LIG1        0.0000
      9 N           5.9736    0.9033    1.4793 N.ar    1  LIG1        0.0000
     10 N           0.2772   -0.8637   -0.0971 N.pl3   1  LIG1        0.0000
     11 N           0.4877    1.4429   -0.0637 N.2     1  LIG1        0.0000
     12 S           3.4618    1.4239    0.7685 S.2     1  LIG1        0.0000
     13 H           7.5159   -2.0896    1.9473 H       1  LIG1        0.0000
     14 H           5.2593   -2.9488    1.3243 H       1  LIG1        0.0000
     15 H           2.5718   -2.0695    0.5607 H       1  LIG1        0.0000
     16 H           7.8798    0.3640    2.0203 H       1  LIG1        0.0000
     17 H           0.6684   -1.7923    0.0171 H       1  LIG1        0.0000
     18 H          -0.6945   -0.7878   -0.3775 H       1  LIG1        0.0000
     19 H           1.0369    2.2818    0.0867 H       1  LIG1        0.0000
     20 H          -0.4843    1.5522   -0.3321 H       1  LIG1        0.0000
@<TRIPOS>BOND
     1     1     2   ar
     2     1     4   ar
     3     2     5   ar
     4     3     5   ar
     5     3     6   ar
     6     4     9   ar
     7     5     7   ar
     8     6     8    1
     9     6    12   ar
    10     7     9   ar
    11     7    12   ar
    12     8    10    1
    13     8    11    2
    14     1    13    1
    15     2    14    1
    16     3    15    1
    17     4    16    1
    18    10    17    1
    19    10    18    1
    20    11    19    1
    21    11    20    1
