@<TRIPOS>MOLECULE
DB03455
 31 32 0 0 0
SMALL
USER_CHARGES

@<TRIPOS>ATOM
      1 C           5.7323   -3.9134    1.1875 C.ar    1  LIG1        0.0000
      2 C           7.0692   -3.6596    1.4877 C.ar    1  LIG1        0.0000
      3 C           4.8256   -2.8617    1.0114 C.ar    1  LIG1        0.0000
      4 C           7.5421   -2.3510    1.6215 C.ar    1  LIG1        0.0000
      5 C           5.6188    0.6972    1.2671 C.ar    1  LIG1        0.0000
      6 C           5.2793   -1.5341    1.1414 C.ar    1  LIG1        0.0000
      7 C           4.6573   -0.2588    1.0333 C.ar    1  LIG1        0.0000
      8 C           6.6243   -1.3099    1.4429 C.ar    1  LIG1        0.0000
      9 C           3.0789    1.3778    0.0395 C.2     1  LIG1        0.0000
     10 C           0.4719   -1.8286   -0.5419 C.3     1  LIG1        0.0000
     11 C          -1.0148   -1.5137   -0.5954 C.3     1  LIG1        0.0000
     12 C           3.2364    0.0039    0.7273 C.3     1  LIG1        0.0000
     13 N           6.8019    0.0536    1.5129 N.ar    1  LIG1        0.0000
     14 N           2.6043   -1.0547   -0.0518 N.4     1  LIG1        0.0000
     15 O           3.7329    1.5022   -1.0366 O.co2   1  LIG1       -0.5000
     16 O           2.3396    2.2186    0.6249 O.co2   1  LIG1       -0.5000
     17 O           1.1942   -0.6946   -0.0817 O.3     1  LIG1        0.0000
     18 S          -1.3591   -0.1224   -1.7153 S.3     1  LIG1        0.0000
     19 H           5.3883   -4.9394    1.0880 H       1  LIG1        0.0000
     20 H           7.7562   -4.4915    1.6204 H       1  LIG1        0.0000
     21 H           3.7869   -3.0761    0.7767 H       1  LIG1        0.0000
     22 H           8.5827   -2.1545    1.8564 H       1  LIG1        0.0000
     23 H           5.5687    1.7773    1.2793 H       1  LIG1        0.0000
     24 H           0.8631   -2.1343   -1.5181 H       1  LIG1        0.0000
     25 H           0.6464   -2.6440    0.1679 H       1  LIG1        0.0000
     26 H          -1.3865   -1.2424    0.3974 H       1  LIG1        0.0000
     27 H          -1.5724   -2.3843   -0.9532 H       1  LIG1        0.0000
     28 H           2.6247    0.0522    1.6520 H       1  LIG1        0.0000
     29 H           7.6792    0.5122    1.7166 H       1  LIG1        0.0000
     30 H           2.8534   -0.9488   -1.0332 H       1  LIG1        0.0000
     31 H          -2.6856   -0.1200   -1.5291 H       1  LIG1        0.0000
@<TRIPOS>BOND
     1     1     2   ar
     2     1     3   ar
     3     2     4   ar
     4     3     6   ar
     5     4     8   ar
     6     5     7   ar
     7     5    13   ar
     8     6     7   ar
     9     6     8   ar
    10     7    12    1
    11     8    13   ar
    12     9    12    1
    13     9    15   ar
    14     9    16   ar
    15    10    11    1
    16    10    17    1
    17    11    18    1
    18    12    14    1
    19    14    17    1
    20     1    19    1
    21     2    20    1
    22     3    21    1
    23     4    22    1
    24     5    23    1
    25    10    24    1
    26    10    25    1
    27    11    26    1
    28    11    27    1
    29    12    28    1
    30    13    29    1
    31    14    30    1
    32    18    31    1
