@<TRIPOS>MOLECULE
DB03816
 20 19 0 0 0
SMALL
USER_CHARGES

@<TRIPOS>ATOM
      1 C1          3.0849    1.5618   -0.0070 C.2     1  <1>         0.0000
      2 C2          4.0939   -0.4195    1.3405 C.3     1  <1>         0.0000
      3 C3          5.5477   -0.2021    0.9139 C.3     1  <1>         0.0000
      4 C4          3.0623    0.0555    0.3061 C.3     1  <1>         0.0000
      5 C5          6.6359   -2.5415    1.8444 C.3     1  <1>         0.0000
      6 N1          3.1905   -0.8268   -0.8965 N.4     1  <1>         0.0000
      7 O1          2.6949    1.8895   -1.1631 O.co2   1  <1>        -0.5000
      8 O2          3.4682    2.3029    0.9429 O.co2   1  <1>        -0.5000
      9 F1          5.3709   -3.0224    1.9444 F       1  <1>         0.0000
     10 F2          7.0501   -2.7859    0.5755 F       1  <1>         0.0000
     11 S1          6.6852   -0.7792    2.2094 S.3     1  <1>         0.0000
     12 H1          3.9104    0.1053    2.2880 H       1  <1>         0.0000
     13 H2          3.9241   -1.4850    1.5438 H       1  <1>         0.0000
     14 H3          5.7531    0.8582    0.7413 H       1  <1>         0.0000
     15 H4          5.7762   -0.7469   -0.0066 H       1  <1>         0.0000
     16 H5          2.0610   -0.1530    0.7032 H       1  <1>         0.0000
     17 H6          7.2770   -3.0948    2.5351 H       1  <1>         0.0000
     18 H7          2.8538   -1.7665   -0.6829 H       1  <1>         0.0000
     19 H8          4.1674   -0.8877   -1.1871 H       1  <1>         0.0000
     20 H9          2.6416   -0.4507   -1.6709 H       1  <1>         0.0000
@<TRIPOS>BOND
     1     1     4    1
     2     1     7   ar
     3     1     8   ar
     4     2     3    1
     5     2     4    1
     6     3    11    1
     7     4     6    1
     8     5     9    1
     9     5    10    1
    10     5    11    1
    11     2    12    1
    12     2    13    1
    13     3    14    1
    14     3    15    1
    15     4    16    1
    16     5    17    1
    17     6    18    1
    18     6    19    1
    19     6    20    1
