@<TRIPOS>MOLECULE
DB03217
 25 26 0 0 0
SMALL
USER_CHARGES

@<TRIPOS>ATOM
      1 C           6.9831   -4.0530    1.3254 C.ar    1  LIG1       -0.0616
      2 C           5.7017   -4.1592    0.7930 C.ar    1  LIG1       -0.0616
      3 C           6.2783    0.7026    2.0734 C.ar    1  LIG1       -0.0612
      4 C           7.4514   -2.8193    1.7783 C.ar    1  LIG1       -0.0544
      5 C           4.8835   -3.0322    0.7114 C.ar    1  LIG1       -0.0540
      6 C           7.0964   -0.4245    2.1550 C.ar    1  LIG1       -0.0543
      7 C           4.9968    0.5964    1.5409 C.ar    1  LIG1       -0.0555
      8 C           6.6415   -1.6743    1.7039 C.ar    1  LIG1       -0.0180
      9 C           5.3384   -1.7823    1.1624 C.ar    1  LIG1       -0.0122
     10 C           4.5285   -0.6373    1.0879 C.ar    1  LIG1       -0.0083
     11 C           3.1409   -0.6812    0.5268 C.3     1  LIG1        0.0896
     12 O           3.0739    1.8665   -0.2440 O.3     1  LIG1       -0.5994
     13 O           0.8639    0.5618   -0.0509 O.3     1  LIG1       -0.5994
     14 O           2.1417    1.2531    2.0776 O.2     1  LIG1       -0.6624
     15 O           2.3098   -1.5843    1.2554 O.3     1  LIG1       -0.3847
     16 P           2.1966    0.9371    0.5874 P.3     1  LIG1       -0.1196
     17 H           7.6195   -4.9309    1.3887 H       1  LIG1        0.0623
     18 H           5.3380   -5.1202    0.4407 H       1  LIG1        0.0623
     19 H           6.6423    1.6634    2.4257 H       1  LIG1        0.0623
     20 H           8.4564   -2.7596    2.1909 H       1  LIG1        0.0629
     21 H           3.8890   -3.1557    0.2893 H       1  LIG1        0.0629
     22 H           8.0945   -0.3180    2.5748 H       1  LIG1        0.0629
     23 H           4.3690    1.4818    1.4826 H       1  LIG1        0.0627
     24 H           3.1510   -1.0208   -0.5190 H       1  LIG1        0.0694
     25 H           1.4278   -1.5693    0.8466 H       1  LIG1        0.2114
@<TRIPOS>BOND
     1     1     2   ar
     2     1     4   ar
     3     2     5   ar
     4     3     6   ar
     5     3     7   ar
     6     4     8   ar
     7     5     9   ar
     8     6     8   ar
     9     7    10   ar
    10     8     9   ar
    11     9    10   ar
    12    10    11    1
    13    11    15    1
    14    11    16    1
    15    12    16    1
    16    13    16    1
    17    14    16    2
    18     1    17    1
    19     2    18    1
    20     3    19    1
    21     4    20    1
    22     5    21    1
    23     6    22    1
    24     7    23    1
    25    11    24    1
    26    15    25    1
