@<TRIPOS>MOLECULE
DB03308
 25 24 0 0 0
SMALL
USER_CHARGES

@<TRIPOS>ATOM
      1 C           3.6456    0.8255    0.6352 C.2     1  LIG1        0.2200
      2 C           5.0147   -3.2238    1.1838 C.3     1  LIG1       -0.0628
      3 C           7.3794   -2.4174    1.2045 C.3     1  LIG1       -0.0628
      4 C           5.5074   -0.7905    0.9031 C.3     1  LIG1       -0.0553
      5 C           4.1229   -0.3779    1.4068 C.3     1  LIG1       -0.0025
      6 C           5.9411   -2.0802    1.6025 C.3     1  LIG1       -0.0482
      7 N           3.1152    0.6707   -0.5941 N.am    1  LIG1       -0.1996
      8 N           4.2010   -0.0441    2.8353 N.4     1  LIG1        0.3872
      9 O           3.7389    1.9330    1.1204 O.2     1  LIG1       -0.2774
     10 O           2.6668    1.8014   -1.3191 O.3     1  LIG1       -0.2968
     11 H           5.3237   -4.1426    1.6822 H       1  LIG1        0.0233
     12 H           3.9901   -2.9835    1.4673 H       1  LIG1        0.0233
     13 H           5.0705   -3.3596    0.1038 H       1  LIG1        0.0233
     14 H           7.4188   -2.6396    0.1381 H       1  LIG1        0.0233
     15 H           8.0256   -1.5671    1.4226 H       1  LIG1        0.0233
     16 H           7.7186   -3.2858    1.7693 H       1  LIG1        0.0233
     17 H           6.2245    0.0006    1.1223 H       1  LIG1        0.0257
     18 H           5.4677   -0.9566   -0.1736 H       1  LIG1        0.0257
     19 H           3.4238   -1.2018    1.2639 H       1  LIG1        0.0183
     20 H           5.8853   -1.9444    2.6825 H       1  LIG1        0.0296
     21 H           3.0406   -0.2151   -0.9822 H       1  LIG1        0.1835
     22 H           3.3091    0.3100    3.1472 H       1  LIG1       -0.0891
     23 H           4.4368   -0.8720    3.3617 H       1  LIG1       -0.0891
     24 H           4.9106    0.6588    2.9781 H       1  LIG1       -0.0891
     25 H           2.3268    1.4751   -2.1635 H       1  LIG1        0.2427
@<TRIPOS>BOND
     1     1     5    1
     2     1     7   am
     3     1     9    2
     4     2     6    1
     5     3     6    1
     6     4     5    1
     7     4     6    1
     8     5     8    1
     9     7    10    1
    10     2    11    1
    11     2    12    1
    12     2    13    1
    13     3    14    1
    14     3    15    1
    15     3    16    1
    16     4    17    1
    17     4    18    1
    18     5    19    1
    19     6    20    1
    20     7    21    1
    21     8    22    1
    22     8    23    1
    23     8    24    1
    24    10    25    1
