@<TRIPOS>MOLECULE
DB04713
 23 23 0 0 0
SMALL
USER_CHARGES

@<TRIPOS>ATOM
      1 C           4.3606   -2.1801    1.2858 C.ar    1  LIG1        0.0000
      2 C           5.1686    0.0334    1.8191 C.ar    1  LIG1        0.0000
      3 C           5.6674   -2.6664    1.3246 C.ar    1  LIG1        0.0000
      4 C           6.4754   -0.4529    1.8580 C.ar    1  LIG1        0.0000
      5 C           4.1112   -0.8302    1.5330 C.ar    1  LIG1        0.0000
      6 C           6.7247   -1.8029    1.6108 C.ar    1  LIG1        0.0000
      7 C           2.7717    1.6129   -0.1795 C.2     1  LIG1        0.0000
      8 C           2.7031   -0.3052    1.4887 C.3     1  LIG1        0.0000
      9 CA          2.2888    0.1809    0.0939 C.3     1  LIG1        0.0000
     10 N           0.7989    0.0625    0.0107 N.4     1  LIG1        0.0000
     11 O           3.8699    1.9141    0.3686 O.co2   1  LIG1       -0.5000
     12 OXT         2.0159    2.3160   -0.9076 O.co2   1  LIG1       -0.5000
     13 I           8.6711   -2.5276    1.6659 I       1  LIG1        0.0000
     14 H           3.5428   -2.8599    1.0620 H       1  LIG1        0.0000
     15 H           4.9841    1.0869    2.0116 H       1  LIG1        0.0000
     16 H           5.8392   -3.7216    1.1265 H       1  LIG1        0.0000
     17 H           7.2846    0.2375    2.0818 H       1  LIG1        0.0000
     18 H           2.6211    0.5214    2.2087 H       1  LIG1        0.0000
     19 H           2.0075   -1.0755    1.8484 H       1  LIG1        0.0000
     20 HA          2.6741   -0.4946   -0.6792 H       1  LIG1        0.0000
     21 H1          0.5122   -0.1238   -0.9512 H       1  LIG1        0.0000
     22 H2          0.3580    0.9296    0.3210 H       1  LIG1        0.0000
     23 H3          0.4713   -0.7014    0.6034 H       1  LIG1        0.0000
@<TRIPOS>BOND
     1     1     3   ar
     2     1     5   ar
     3     2     4   ar
     4     2     5   ar
     5     3     6   ar
     6     4     6   ar
     7     5     8    1
     8     6    13    1
     9     7     9    1
    10     7    11   ar
    11     7    12   ar
    12     8     9    1
    13     9    10    1
    14     1    14    1
    15     2    15    1
    16     3    16    1
    17     4    17    1
    18     8    18    1
    19     8    19    1
    20     9    20    1
    21    10    21    1
    22    10    22    1
    23    10    23    1
