@<TRIPOS>MOLECULE
DB04720
 19 20 0 0 0
SMALL
USER_CHARGES

@<TRIPOS>ATOM
      1 C           5.1366   -1.8311    1.1519 C.ar    1  LIG1        0.1037
      2 C           6.3593   -1.1812    1.3831 C.ar    1  LIG1        0.0748
      3 C           5.0872   -3.2284    1.1595 C.ar    1  LIG1        0.0606
      4 C           7.5069   -1.9253    1.6166 C.ar    1  LIG1        0.0565
      5 C           6.2363   -3.9529    1.3926 C.ar    1  LIG1        0.0494
      6 C           7.4428   -3.3049    1.6208 C.ar    1  LIG1        0.0491
      7 C           4.7595    0.3156    1.0515 C.ar    1  LIG1        0.1573
      8 C           2.2380    1.2553    0.5541 C.3     1  LIG1       -0.0109
      9 N           4.2002   -0.8655    0.9566 N.ar    1  LIG1       -0.2236
     10 N           6.0942    0.1772    1.3092 N.ar    1  LIG1       -0.2913
     11 S           3.9178    1.8525    0.8667 S.3     1  LIG1       -0.0940
     12 BR          3.4491   -4.1213    0.8505 Br      1  LIG1       -0.0471
     13 BR          9.1553   -1.0524    1.9278 Br      1  LIG1       -0.0474
     14 BR          6.1689   -5.8426    1.4023 Br      1  LIG1       -0.0482
     15 BR          9.0080   -4.3174    1.9385 Br      1  LIG1       -0.0482
     16 H           1.8985    0.6638    1.4044 H       1  LIG1        0.0348
     17 H           1.5705    2.1054    0.4132 H       1  LIG1        0.0348
     18 H           2.2333    0.6370   -0.3436 H       1  LIG1        0.0348
     19 H           6.7355    0.8958    1.4246 H       1  LIG1        0.1549
@<TRIPOS>BOND
     1     1     2   ar
     2     1     3   ar
     3     1     9   ar
     4     2     4   ar
     5     2    10   ar
     6     3     5   ar
     7     3    12    1
     8     4     6   ar
     9     4    13    1
    10     5     6   ar
    11     5    14    1
    12     6    15    1
    13     7     9   ar
    14     7    10   ar
    15     7    11    1
    16     8    11    1
    17     8    16    1
    18     8    17    1
    19     8    18    1
    20    10    19    1
