@<TRIPOS>MOLECULE
DB04641
 22 23 0 0 0
SMALL
USER_CHARGES

@<TRIPOS>ATOM
      1 C           7.5867   -2.6836    2.0468 C.ar    1  LIG1        0.0000
      2 C           7.4478   -4.0094    1.7777 C.ar    1  LIG1        0.0000
      3 C           4.3765   -1.3929    0.6870 C.ar    1  LIG1        0.0000
      4 C           6.6850   -0.4123    1.9531 C.ar    1  LIG1        0.0000
      5 C           5.2897   -3.6580    0.7794 C.ar    1  LIG1        0.0000
      6 C           6.5658   -1.7863    1.6860 C.ar    1  LIG1        0.0000
      7 C           5.4006   -2.2806    1.0436 C.ar    1  LIG1        0.0000
      8 C           4.5205   -0.0392    0.9562 C.ar    1  LIG1        0.0000
      9 C           6.3008   -4.4991    1.1444 C.ar    1  LIG1        0.0000
     10 C           5.6840    0.4418    1.5955 C.ar    1  LIG1        0.0000
     11 C           3.4515    0.9001    0.5786 C.2     1  LIG1        0.0000
     12 O           3.5728    2.0935    0.8188 O.co2   1  LIG1       -0.5000
     13 O           2.4399    0.4864    0.0290 O.co2   1  LIG1       -0.5000
     14 O           6.1919   -5.8295    0.8888 O.3     1  LIG1        0.0000
     15 O           5.8074    1.7681    1.8564 O.3     1  LIG1        0.0000
     16 H           8.4788   -2.3207    2.5357 H       1  LIG1        0.0000
     17 H           8.2348   -4.6943    2.0569 H       1  LIG1        0.0000
     18 H           3.4839   -1.7589    0.2014 H       1  LIG1        0.0000
     19 H           7.5701   -0.0321    2.4416 H       1  LIG1        0.0000
     20 H           4.4089   -4.0479    0.2909 H       1  LIG1        0.0000
     21 H           5.7679   -6.2286    1.6608 H       1  LIG1        0.0000
     22 H           5.4313    1.9163    2.7348 H       1  LIG1        0.0000
@<TRIPOS>BOND
     1     1     2   ar
     2     1     6   ar
     3     2     9   ar
     4     3     7   ar
     5     3     8   ar
     6     4     6   ar
     7     4    10   ar
     8     5     7   ar
     9     5     9   ar
    10     6     7   ar
    11     8    10   ar
    12     8    11    1
    13     9    14    1
    14    10    15    1
    15    11    12   ar
    16    11    13   ar
    17     1    16    1
    18     2    17    1
    19     3    18    1
    20     4    19    1
    21     5    20    1
    22    14    21    1
    23    15    22    1
