@<TRIPOS>MOLECULE
DB04519
 25 24 0 0 0
SMALL
USER_CHARGES

@<TRIPOS>ATOM
      1 C           2.7888    1.7279   -0.0353 C.2     1  LIG1        0.0000
      2 C           6.0169   -3.7824    1.0473 C.3     1  LIG1        0.0000
      3 C           2.1174    0.4149    0.3803 C.3     1  LIG1        0.0000
      4 C           6.6210   -2.4091    0.8014 C.3     1  LIG1        0.0000
      5 C           2.3142    0.0169    1.8397 C.3     1  LIG1        0.0000
      6 C           5.9514   -1.3401    1.6646 C.3     1  LIG1        0.0000
      7 C           3.7976   -0.1265    2.1842 C.3     1  LIG1        0.0000
      8 C           4.4608   -1.2193    1.3439 C.3     1  LIG1        0.0000
      9 O           2.5719    2.0595   -1.2369 O.co2   1  LIG1       -0.5000
     10 O           3.4680    2.3207    0.8468 O.co2   1  LIG1       -0.5000
     11 H           4.9432   -3.7677    0.8356 H       1  LIG1        0.0000
     12 H           6.4801   -4.5359    0.4024 H       1  LIG1        0.0000
     13 H           6.1536   -4.0904    2.0888 H       1  LIG1        0.0000
     14 H           2.5087   -0.3773   -0.2703 H       1  LIG1        0.0000
     15 H           1.0449    0.5101    0.1692 H       1  LIG1        0.0000
     16 H           7.6948   -2.4446    1.0187 H       1  LIG1        0.0000
     17 H           6.5127   -2.1533   -0.2590 H       1  LIG1        0.0000
     18 H           1.7984   -0.9311    2.0369 H       1  LIG1        0.0000
     19 H           1.8568    0.7705    2.4927 H       1  LIG1        0.0000
     20 H           6.0802   -1.5902    2.7248 H       1  LIG1        0.0000
     21 H           6.4425   -0.3733    1.4988 H       1  LIG1        0.0000
     22 H           4.3086    0.8290    2.0131 H       1  LIG1        0.0000
     23 H           3.9062   -0.3653    3.2492 H       1  LIG1        0.0000
     24 H           3.9655   -2.1794    1.5330 H       1  LIG1        0.0000
     25 H           4.3311   -0.9928    0.2785 H       1  LIG1        0.0000
@<TRIPOS>BOND
     1     1     3    1
     2     1     9   ar
     3     1    10   ar
     4     2     4    1
     5     3     5    1
     6     4     6    1
     7     5     7    1
     8     6     8    1
     9     7     8    1
    10     2    11    1
    11     2    12    1
    12     2    13    1
    13     3    14    1
    14     3    15    1
    15     4    16    1
    16     4    17    1
    17     5    18    1
    18     5    19    1
    19     6    20    1
    20     6    21    1
    21     7    22    1
    22     7    23    1
    23     8    24    1
    24     8    25    1
