@<TRIPOS>MOLECULE
DB04723
 29 29 0 0 0
SMALL
USER_CHARGES

@<TRIPOS>ATOM
      1 C           6.8236    0.4250    1.2653 C.ar    1  LIG1        0.0000
      2 C           5.5804    0.7031    0.6976 C.ar    1  LIG1        0.0000
      3 C           7.0429   -0.7976    1.9000 C.ar    1  LIG1        0.0000
      4 C           4.7753   -1.4641    1.3992 C.ar    1  LIG1        0.0000
      5 C           4.5561   -0.2415    0.7644 C.ar    1  LIG1        0.0000
      6 C           6.0187   -1.7422    1.9670 C.ar    1  LIG1        0.0000
      7 C           3.0697    1.6003    0.0895 C.2     1  LIG1        0.0000
      8 C           7.4637   -3.6725    2.7076 C.cat   1  LIG1        0.0000
      9 C           2.0218   -0.6113    0.8617 C.3     1  LIG1        0.0000
     10 C           3.2267    0.0562    0.1573 C.3     1  LIG1        0.0000
     11 N           8.4003   -3.5237    1.6836 N.pl3   1  LIG1        0.0000
     12 N           6.2405   -2.9801    2.6097 N.pl3   1  LIG1        0.0000
     13 N           7.7688   -4.5386    3.7527 N.pl3   1  LIG1        0.0000
     14 O           3.0871    2.2199    1.1900 O.co2   1  LIG1       -0.5000
     15 O           2.9524    2.0617   -1.0836 O.co2   1  LIG1       -0.5000
     16 S           0.4370   -0.1649    0.0810 S.3     1  LIG1        0.0000
     17 H           7.6211    1.1603    1.2138 H       1  LIG1        0.0000
     18 H           5.4185    1.6580    0.2048 H       1  LIG1        0.0000
     19 H           8.0140   -1.0083    2.3403 H       1  LIG1        0.0000
     20 H           3.9784   -2.2022    1.4524 H       1  LIG1        0.0000
     21 H           2.1049   -1.7031    0.8571 H       1  LIG1        0.0000
     22 H           1.9630   -0.2979    1.9100 H       1  LIG1        0.0000
     23 H           3.1949   -0.2745   -0.9011 H       1  LIG1        0.0000
     24 H           8.2129   -2.9288    0.8801 H       1  LIG1        0.0000
     25 H           9.2962   -4.0041    1.7148 H       1  LIG1        0.0000
     26 H           5.4439   -3.4175    3.0911 H       1  LIG1        0.0000
     27 H           8.6333   -5.0754    3.7448 H       1  LIG1        0.0000
     28 H           7.1217   -4.7305    4.5113 H       1  LIG1        0.0000
     29 H          -0.3296   -0.8850    0.9099 H       1  LIG1        0.0000
@<TRIPOS>BOND
     1     1     2   ar
     2     1     3   ar
     3     2     5   ar
     4     3     6   ar
     5     4     5   ar
     6     4     6   ar
     7     5    10    1
     8     6    12    1
     9     7    10    1
    10     7    14   ar
    11     7    15   ar
    12     8    11    1
    13     8    12    1
    14     8    13    2
    15     9    10    1
    16     9    16    1
    17     1    17    1
    18     2    18    1
    19     3    19    1
    20     4    20    1
    21     9    21    1
    22     9    22    1
    23    10    23    1
    24    11    24    1
    25    11    25    1
    26    12    26    1
    27    13    27    1
    28    13    28    1
    29    16    29    1
