@<TRIPOS>MOLECULE
DB04534
 17 18 0 0 0
SMALL
USER_CHARGES

@<TRIPOS>ATOM
      1 C           6.6818   -0.2782    2.0520 C.ar    1  LIG1       -0.0365
      2 C           5.6551    0.5296    1.6519 C.ar    1  LIG1       -0.0316
      3 C           4.5041   -1.3219    0.6658 C.ar    1  LIG1       -0.0227
      4 C           5.8002   -3.5986    0.9164 C.ar    1  LIG1        0.0543
      5 C           5.5457   -2.1688    1.0598 C.ar    1  LIG1        0.0193
      6 C           6.6453   -1.6399    1.7635 C.ar    1  LIG1        0.0564
      7 C           4.5697    0.0099    0.9578 C.ar    1  LIG1        0.1183
      8 N           6.9416   -3.8587    1.4871 N.ar    1  LIG1       -0.1916
      9 N           7.4916   -2.6874    2.0179 N.ar    1  LIG1       -0.2379
     10 N           3.4710    0.9077    0.5363 N.pl3   1  LIG1        0.0920
     11 O           2.5143    0.4573   -0.0682 O.2     1  LIG1       -0.1380
     12 O           3.5213    2.0962    0.7983 O.2     1  LIG1       -0.1380
     13 H           7.5199    0.1387    2.5907 H       1  LIG1        0.0644
     14 H           5.6878    1.5852    1.8777 H       1  LIG1        0.0646
     15 H           3.6540   -1.7194    0.1311 H       1  LIG1        0.0653
     16 H           5.1569   -4.3132    0.4246 H       1  LIG1        0.0864
     17 H           8.3366   -2.6262    2.4902 H       1  LIG1        0.1755
@<TRIPOS>BOND
     1     1     2   ar
     2     1     6   ar
     3     2     7   ar
     4     3     5   ar
     5     3     7   ar
     6     4     5   ar
     7     4     8   ar
     8     5     6   ar
     9     6     9   ar
    10     7    10    1
    11     8     9   ar
    12    10    11    2
    13    10    12    2
    14     1    13    1
    15     2    14    1
    16     3    15    1
    17     4    16    1
    18     9    17    1
