@<TRIPOS>MOLECULE
DB04419
 22 21 0 0 0
SMALL
USER_CHARGES

@<TRIPOS>ATOM
      1 C           3.2277    1.4728    0.1546 C.2     1  LIG1        0.0000
      2 C           6.8347   -3.6492    1.4535 C.3     1  LIG1        0.0000
      3 C           6.5317   -2.1602    1.5050 C.3     1  LIG1        0.0000
      4 C           5.0889   -1.8668    1.0893 C.3     1  LIG1        0.0000
      5 C           4.8039   -0.3594    1.1106 C.3     1  LIG1        0.0000
      6 CA          3.3911    0.0259    0.6520 C.3     1  LIG1        0.0000
      7 N           2.4417   -0.3621    1.7420 N.4     1  LIG1        0.0000
      8 O           3.5220    2.3676    0.9980 O.co2   1  LIG1       -0.5000
      9 OXT         2.8454    1.6038   -1.0421 O.co2   1  LIG1       -0.5000
     10 H           6.1577   -4.2102    2.1056 H       1  LIG1        0.0000
     11 H           6.7129   -4.0256    0.4329 H       1  LIG1        0.0000
     12 H           7.8630   -3.8515    1.7697 H       1  LIG1        0.0000
     13 H           7.2257   -1.6297    0.8426 H       1  LIG1        0.0000
     14 H           6.7081   -1.7923    2.5224 H       1  LIG1        0.0000
     15 H           4.4084   -2.3878    1.7722 H       1  LIG1        0.0000
     16 H           4.9119   -2.2700    0.0858 H       1  LIG1        0.0000
     17 H           4.9660    0.0177    2.1290 H       1  LIG1        0.0000
     18 H           5.5405    0.1535    0.4790 H       1  LIG1        0.0000
     19 HA          3.1222   -0.6146   -0.1973 H       1  LIG1        0.0000
     20 H1          2.6242   -1.3197    2.0457 H       1  LIG1        0.0000
     21 H2          1.4782   -0.3031    1.4088 H       1  LIG1        0.0000
     22 H3          2.5493    0.2612    2.5434 H       1  LIG1        0.0000
@<TRIPOS>BOND
     1     1     6    1
     2     1     8   ar
     3     1     9   ar
     4     2     3    1
     5     3     4    1
     6     4     5    1
     7     5     6    1
     8     6     7    1
     9     2    10    1
    10     2    11    1
    11     2    12    1
    12     3    13    1
    13     3    14    1
    14     4    15    1
    15     4    16    1
    16     5    17    1
    17     5    18    1
    18     6    19    1
    19     7    20    1
    20     7    21    1
    21     7    22    1
