@<TRIPOS>MOLECULE
DB04130
 19 20 0 0 0
SMALL
USER_CHARGES

@<TRIPOS>ATOM
      1 C           7.5372   -2.2870    1.3964 C.ar    1  LIG1       -0.0360
      2 C           7.1369   -3.6274    1.3964 C.ar    1  LIG1       -0.0298
      3 C           4.7841   -3.0010    1.3960 C.ar    1  LIG1       -0.0040
      4 C           5.2551    0.4842    1.3964 C.ar    1  LIG1        0.0851
      5 C           5.1682   -1.6493    1.3962 C.ar    1  LIG1        0.0884
      6 C           6.5229   -1.3289    1.3964 C.ar    1  LIG1        0.0573
      7 C           5.7854   -3.9802    1.3960 C.ar    1  LIG1        0.0769
      8 C           6.4960   -6.2497    1.3946 C.3     1  LIG1        0.0422
      9 N           4.3961   -0.5103    1.3961 N.ar    1  LIG1       -0.2393
     10 N           6.5489    0.0421    1.3965 N.ar    1  LIG1       -0.3040
     11 O           5.4348   -5.2976    1.3952 O.3     1  LIG1       -0.3492
     12 H           8.5856   -2.0112    1.3967 H       1  LIG1        0.0644
     13 H           7.8982   -4.4043    1.3965 H       1  LIG1        0.0651
     14 H           3.7347   -3.2790    1.3954 H       1  LIG1        0.0674
     15 H           5.0093    1.5366    1.3962 H       1  LIG1        0.1014
     16 H           6.0799   -7.2602    1.3939 H       1  LIG1        0.0535
     17 H           7.1200   -6.1018    2.2795 H       1  LIG1        0.0535
     18 H           7.1013   -6.1069    0.4964 H       1  LIG1        0.0535
     19 H           7.3770    0.6226    1.3984 H       1  LIG1        0.1537
@<TRIPOS>BOND
     1     1     2   ar
     2     1     6   ar
     3     2     7   ar
     4     3     5   ar
     5     3     7   ar
     6     4     9   ar
     7     4    10   ar
     8     5     6   ar
     9     5     9   ar
    10     6    10   ar
    11     7    11    1
    12     8    11    1
    13     1    12    1
    14     2    13    1
    15     3    14    1
    16     4    15    1
    17     8    16    1
    18     8    17    1
    19     8    18    1
    20    10    19    1
