@<TRIPOS>MOLECULE
DB04159
 28 29 0 0 0
SMALL
USER_CHARGES

@<TRIPOS>ATOM
      1 C1          5.6276   -3.8583    1.0907 C.ar    1  <1>         0.0000
      2 C2          6.9992   -3.6275    1.0047 C.ar    1  <1>         0.0000
      3 C3          4.7380   -2.8055    1.3344 C.ar    1  <1>         0.0000
      4 C4          7.5248   -2.3415    1.1588 C.ar    1  <1>         0.0000
      5 C5          5.6653    0.6993    1.8002 C.ar    1  <1>         0.0000
      6 C6          5.2448   -1.5003    1.4934 C.ar    1  <1>         0.0000
      7 C7          4.6531   -0.2309    1.7446 C.ar    1  <1>         0.0000
      8 C8          6.6237   -1.2989    1.4020 C.ar    1  <1>         0.0000
      9 C9          2.5854    1.8097    0.0522 C.2     1  <1>         0.0000
     10 C10         3.2133    0.0498    1.9179 C.3     1  <1>         0.0000
     11 C11         2.4523    0.3733    0.5975 C.3     1  <1>         0.0000
     12 N1          6.8501    0.0456    1.5921 N.ar    1  <1>         0.0000
     13 N2          2.8519   -0.6510   -0.4218 N.4     1  <1>         0.0000
     14 O1          2.5247    1.9471   -1.2005 O.co2   1  <1>        -0.5000
     15 O2          2.7347    2.6941    0.9453 O.co2   1  <1>        -0.5000
     16 O3          2.5317   -1.0235    2.6007 O.3     1  <1>         0.0000
     17 H1          5.2426   -4.8669    0.9668 H       1  <1>         0.0000
     18 H2          7.6720   -4.4598    0.8147 H       1  <1>         0.0000
     19 H3          3.6715   -3.0016    1.3979 H       1  <1>         0.0000
     20 H4          8.5927   -2.1631    1.0926 H       1  <1>         0.0000
     21 H5          5.6497    1.7675    1.9674 H       1  <1>         0.0000
     22 H6          3.0963    0.9187    2.5990 H       1  <1>         0.0000
     23 H7          1.3788    0.2122    0.7610 H       1  <1>         0.0000
     24 H8          7.7599    0.4858    1.5799 H       1  <1>         0.0000
     25 H9          3.7533   -0.4058   -0.8315 H       1  <1>         0.0000
     26 H10         2.1544   -0.6966   -1.1650 H       1  <1>         0.0000
     27 H11         2.9280   -1.5699    0.0148 H       1  <1>         0.0000
     28 H12         2.6558   -1.8027    2.0455 H       1  <1>         0.0000
@<TRIPOS>BOND
     1     1     2   ar
     2     1     3   ar
     3     2     4   ar
     4     3     6   ar
     5     4     8   ar
     6     5     7   ar
     7     5    12   ar
     8     6     7   ar
     9     6     8   ar
    10     7    10    1
    11     8    12   ar
    12     9    11    1
    13     9    14   ar
    14     9    15   ar
    15    10    11    1
    16    10    16    1
    17    11    13    1
    18     1    17    1
    19     2    18    1
    20     3    19    1
    21     4    20    1
    22     5    21    1
    23    10    22    1
    24    11    23    1
    25    12    24    1
    26    13    25    1
    27    13    26    1
    28    13    27    1
    29    16    28    1
