@<TRIPOS>MOLECULE
DB04236
 29 30 0 0 0
SMALL
USER_CHARGES

@<TRIPOS>ATOM
      1 CZ3         5.8385   -4.0039    1.4110 C.ar    1  TRP1       -0.0615
      2 CH2         7.2010   -3.7190    1.3483 C.ar    1  TRP1       -0.0603
      3 CE3         4.8914   -2.9736    1.4302 C.ar    1  TRP1       -0.0528
      4 CZ2         7.6602   -2.3995    1.3029 C.ar    1  TRP1       -0.0402
      5 CD1         5.6359    0.6035    1.3285 C.ar    1  TRP1       -0.0034
      6 CD2         5.3304   -1.6355    1.3853 C.ar    1  TRP1        0.0001
      7 CG          4.6703   -0.3748    1.3879 C.ar    1  TRP1       -0.0265
      8 CE2         6.7019   -1.3798    1.3228 C.ar    1  TRP1        0.0375
      9 CB          3.2123   -0.1454    1.4456 C.3     1  TRP1       -0.0367
     10 C           2.6693    1.7606   -0.1647 C.3     1  TRP1        0.0307
     11 CA          2.5702    0.2595    0.1002 C.3     1  TRP1       -0.0560
     12 NE1         6.8580   -0.0124    1.2893 N.ar    1  TRP1       -0.3203
     13 N           1.1206   -0.1059    0.1261 N.4     1  TRP1        0.3830
     14 O           4.0310    2.1715   -0.2011 O.3     1  TRP1       -0.3980
     15 HZ3         5.5059   -5.0379    1.4449 H       1  TRP1        0.0623
     16 HH2         7.9194   -4.5346    1.3345 H       1  TRP1        0.0623
     17 HE3         3.8326   -3.2122    1.4782 H       1  TRP1        0.0630
     18 HZ2         8.7211   -2.1786    1.2552 H       1  TRP1        0.0642
     19 HD1         5.5639    1.6823    1.3089 H       1  TRP1        0.0792
     20 HB1         2.9961    0.6550    2.1793 H       1  TRP1        0.0301
     21 HB2         2.6794   -1.0315    1.8426 H       1  TRP1        0.0301
     22 H1          2.2047    2.0341   -1.1181 H       1  TRP1        0.0546
     23 H2          2.1718    2.3301    0.6274 H       1  TRP1        0.0546
     24 HA          2.9989   -0.3076   -0.7338 H       1  TRP1        0.0112
     25 HE1         7.7466    0.4668    1.2425 H       1  TRP1        0.1522
     26 H1          0.5582    0.6419   -0.2835 H       1  TRP1       -0.0898
     27 H2          0.8101   -0.2574    1.0876 H       1  TRP1       -0.0898
     28 H3          0.9606   -0.9628   -0.4066 H       1  TRP1       -0.0898
     29 H           4.0292    3.1269   -0.3716 H       1  TRP1        0.2099
@<TRIPOS>BOND
     1     1     2   ar
     2     1     3   ar
     3     2     4   ar
     4     3     6   ar
     5     4     8   ar
     6     5     7   ar
     7     5    12   ar
     8     6     7   ar
     9     6     8   ar
    10     7     9    1
    11     8    12   ar
    12     9    11    1
    13    10    11    1
    14    10    14    1
    15    11    13    1
    16     1    15    1
    17     2    16    1
    18     3    17    1
    19     4    18    1
    20     5    19    1
    21     9    20    1
    22     9    21    1
    23    10    22    1
    24    10    23    1
    25    11    24    1
    26    12    25    1
    27    13    26    1
    28    13    27    1
    29    13    28    1
    30    14    29    1
