@<TRIPOS>MOLECULE
DB04235
 22 21 0 0 0
SMALL
USER_CHARGES

@<TRIPOS>ATOM
      1 C           3.3339    1.4018   -0.2698 C.2     1  LIG1        0.0000
      2 C           6.6943   -3.6834    1.2489 C.3     1  LIG1        0.0000
      3 C           3.8528    0.0118   -0.5337 C.3     1  LIG1        0.0000
      4 C           6.0683   -2.3255    1.5732 C.3     1  LIG1        0.0000
      5 C           4.6457   -0.4755    0.6807 C.3     1  LIG1        0.0000
      6 C           5.1727   -1.8868    0.4129 C.3     1  LIG1        0.0000
      7 N           4.0420   -2.8162    0.2885 N.4     1  LIG1        0.0000
      8 O           2.6721    1.9766   -1.1173 O.co2   1  LIG1       -0.5000
      9 O           3.5757    1.9517    0.7912 O.co2   1  LIG1       -0.5000
     10 H           7.3324   -3.9960    2.0755 H       1  LIG1        0.0000
     11 H           5.9055   -4.4207    1.0998 H       1  LIG1        0.0000
     12 H           7.2909   -3.6008    0.3405 H       1  LIG1        0.0000
     13 H           4.5018    0.0265   -1.4092 H       1  LIG1        0.0000
     14 H           3.0144   -0.6609   -0.7140 H       1  LIG1        0.0000
     15 H           5.4716   -2.4081    2.4816 H       1  LIG1        0.0000
     16 H           6.8571   -1.5881    1.7223 H       1  LIG1        0.0000
     17 H           3.9967   -0.4901    1.5564 H       1  LIG1        0.0000
     18 H           5.4842    0.1972    0.8611 H       1  LIG1        0.0000
     19 H           5.7490   -1.8899   -0.5122 H       1  LIG1        0.0000
     20 H           3.5084   -2.8133    1.1449 H       1  LIG1        0.0000
     21 H           3.4514   -2.5268   -0.4767 H       1  LIG1        0.0000
     22 H           4.3894   -3.7469    0.1118 H       1  LIG1        0.0000
@<TRIPOS>BOND
     1     1     3    1
     2     1     8   ar
     3     1     9   ar
     4     2     4    1
     5     3     5    1
     6     4     6    1
     7     5     6    1
     8     6     7    1
     9     2    10    1
    10     2    11    1
    11     2    12    1
    12     3    13    1
    13     3    14    1
    14     4    15    1
    15     4    16    1
    16     5    17    1
    17     5    18    1
    18     6    19    1
    19     7    20    1
    20     7    21    1
    21     7    22    1
