@<TRIPOS>MOLECULE
DB04584
 21 21 0 0 0
SMALL
USER_CHARGES

@<TRIPOS>ATOM
      1 CZ          6.8521   -3.9276    1.4196 C.ar    1  PHE1        0.0000
      2 CE1         5.8165   -3.6067    2.2971 C.ar    1  PHE1        0.0000
      3 CE2         7.2119   -3.0356    0.4093 C.ar    1  PHE1        0.0000
      4 CD1         5.1405   -2.3938    2.1645 C.ar    1  PHE1        0.0000
      5 CD2         6.5359   -1.8227    0.2766 C.ar    1  PHE1        0.0000
      6 CG          5.5002   -1.5018    1.1541 C.ar    1  PHE1        0.0000
      7 CB          4.7956   -0.2369    1.0153 C.2     1  PHE1        0.0000
      8 CA          4.0793    0.1740   -0.0563 C.2     1  PHE1        0.0000
      9 C           3.3745    1.5477   -0.0672 C.2     1  PHE1        0.0000
     10 N           3.9485   -0.6888   -1.1773 N.pl3   1  PHE1        0.0000
     11 O           3.5059    2.2553    0.9720 O.co2   1  PHE1       -0.5000
     12 OXT         2.7467    1.8144   -1.1337 O.co2   1  PHE1       -0.5000
     13 HZ          7.3793   -4.8714    1.5237 H       1  PHE1        0.0000
     14 HE1         5.5370   -4.3007    3.0846 H       1  PHE1        0.0000
     15 HE2         8.0189   -3.2848   -0.2733 H       1  PHE1        0.0000
     16 HD1         4.3353   -2.1578    2.8562 H       1  PHE1        0.0000
     17 HD2         6.8279   -1.1378   -0.5160 H       1  PHE1        0.0000
     18 HB          4.8563    0.4118    1.8941 H       1  PHE1        0.0000
     19 H1          3.0547   -0.5370   -1.6533 H       1  PHE1        0.0000
     20 H2          3.9900   -1.6706   -0.8895 H       1  PHE1        0.0000
     21 H3          4.6979   -0.5273   -1.8560 H       1  PHE1        0.0000
@<TRIPOS>BOND
     1     1     2   ar
     2     1     3   ar
     3     2     4   ar
     4     3     5   ar
     5     4     6   ar
     6     5     6   ar
     7     6     7    1
     8     7     8    2
     9     8     9    1
    10     8    10    1
    11     9    11   ar
    12     9    12   ar
    13     1    13    1
    14     2    14    1
    15     3    15    1
    16     4    16    1
    17     5    17    1
    18     7    18    1
    19    10    19    1
    20    10    20    1
    21    10    21    1
