@<TRIPOS>MOLECULE
DB04061
 27 28 0 0 0
SMALL
USER_CHARGES

@<TRIPOS>ATOM
      1 C           7.7965   -3.0864    1.4725 C.ar    1  LIG1        0.0000
      2 C           6.8701   -4.0527    1.8946 C.ar    1  LIG1        0.0000
      3 C           7.3647   -1.8456    0.9988 C.ar    1  LIG1        0.0000
      4 C           5.4989   -3.7922    1.8485 C.ar    1  LIG1        0.0000
      5 C           6.0037   -1.5918    0.9682 C.ar    1  LIG1        0.0000
      6 C           5.0806   -2.5548    1.3885 C.ar    1  LIG1        0.0000
      7 C           2.9823    1.5811   -0.0874 C.2     1  LIG1        0.0000
      8 C           5.3087   -0.3617    0.4741 C.3     1  LIG1        0.0000
      9 C           3.6771   -2.0639    1.2167 C.3     1  LIG1        0.0000
     10 C           3.8882   -0.5414    1.0560 C.3     1  LIG1        0.0000
     11 CA          2.8275    0.0738    0.1358 C.3     1  LIG1        0.0000
     12 N           2.8489   -0.7067   -1.1363 N.4     1  LIG1        0.0000
     13 O           2.6039    2.0349   -1.2026 O.co2   1  LIG1       -0.5000
     14 OXT         3.4887    2.1971    0.8951 O.co2   1  LIG1       -0.5000
     15 H           8.8594   -3.3092    1.5102 H       1  LIG1        0.0000
     16 H           7.2242   -5.0150    2.2544 H       1  LIG1        0.0000
     17 H           8.0821   -1.1045    0.6633 H       1  LIG1        0.0000
     18 H           4.7842   -4.5441    2.1652 H       1  LIG1        0.0000
     19 H           5.7927    0.5562    0.8205 H       1  LIG1        0.0000
     20 H           5.2824   -0.3737   -0.6209 H       1  LIG1        0.0000
     21 H           3.2501   -2.4932    0.3038 H       1  LIG1        0.0000
     22 H           3.0426   -2.3127    2.0724 H       1  LIG1        0.0000
     23 H           3.8056   -0.0405    2.0281 H       1  LIG1        0.0000
     24 HA          1.8441   -0.1060    0.5770 H       1  LIG1        0.0000
     25 H1          3.2678   -0.1545   -1.8879 H       1  LIG1        0.0000
     26 H2          1.8988   -0.9631   -1.4142 H       1  LIG1        0.0000
     27 H3          3.3948   -1.5635   -1.0212 H       1  LIG1        0.0000
@<TRIPOS>BOND
     1     1     2   ar
     2     1     3   ar
     3     2     4   ar
     4     3     5   ar
     5     4     6   ar
     6     5     6   ar
     7     5     8    1
     8     6     9    1
     9     7    11    1
    10     7    13   ar
    11     7    14   ar
    12     8    10    1
    13     9    10    1
    14    10    11    1
    15    11    12    1
    16     1    15    1
    17     2    16    1
    18     3    17    1
    19     4    18    1
    20     8    19    1
    21     8    20    1
    22     9    21    1
    23     9    22    1
    24    10    23    1
    25    11    24    1
    26    12    25    1
    27    12    26    1
    28    12    27    1
