@<TRIPOS>MOLECULE
DB04175
 26 27 0 0 0
SMALL
USER_CHARGES

@<TRIPOS>ATOM
      1 C           7.5526   -2.1564    1.3739 C.ar    1  LIG1        0.0000
      2 C           5.8359   -3.8671    1.1980 C.ar    1  LIG1        0.0000
      3 C           5.1814   -1.5359    1.2716 C.ar    1  LIG1        0.0000
      4 C           4.4444   -0.3188    1.2881 C.ar    1  LIG1        0.0000
      5 C           6.5333   -1.1977    1.3625 C.ar    1  LIG1        0.0000
      6 C           7.1770   -3.5002    1.2898 C.ar    1  LIG1        0.0000
      7 C           4.8270   -2.8971    1.1878 C.ar    1  LIG1        0.0000
      8 CA          5.3463    0.7156    1.3872 C.ar    1  LIG1        0.0000
      9 C           5.0264    2.2087    1.4396 C.2     1  LIG1        0.0000
     10 C           2.9897    0.6181   -1.2719 C.2     1  LIG1        0.0000
     11 C           2.9758   -0.1517    1.2130 C.3     1  LIG1        0.0000
     12 C           2.4224   -0.3277   -0.2082 C.3     1  LIG1        0.0000
     13 N           6.6036    0.1755    1.4313 N.ar    1  LIG1        0.0000
     14 O           6.0106    2.9930    1.5320 O.co2   1  LIG1       -0.5000
     15 O           2.7461    1.8408   -1.0564 O.co2   1  LIG1       -0.5000
     16 OXT         3.8063    2.5261    1.3863 O.co2   1  LIG1       -0.5000
     17 O           3.6241    0.0856   -2.2232 O.co2   1  LIG1       -0.5000
     18 CL          8.3950   -4.7198    1.2992 Cl      1  LIG1        0.0000
     19 CL          3.1786   -3.3179    1.0763 Cl      1  LIG1        0.0000
     20 H           8.5941   -1.8589    1.4459 H       1  LIG1        0.0000
     21 H           5.5656   -4.9196    1.1332 H       1  LIG1        0.0000
     22 H           2.4685   -0.8688    1.8835 H       1  LIG1        0.0000
     23 H           2.6780    0.8434    1.5900 H       1  LIG1        0.0000
     24 H           1.3332   -0.1916   -0.1928 H       1  LIG1        0.0000
     25 H           2.6089   -1.3553   -0.5461 H       1  LIG1        0.0000
     26 H           7.4606    0.7063    1.5041 H       1  LIG1        0.0000
@<TRIPOS>BOND
     1     1     5   ar
     2     1     6   ar
     3     2     6   ar
     4     2     7   ar
     5     3     4   ar
     6     3     5   ar
     7     3     7   ar
     8     4     8   ar
     9     4    11    1
    10     5    13   ar
    11     6    18    1
    12     7    19    1
    13     8     9    1
    14     8    13   ar
    15     9    14   ar
    16     9    16   ar
    17    10    12    1
    18    10    15   ar
    19    10    17   ar
    20    11    12    1
    21     1    20    1
    22     2    21    1
    23    11    22    1
    24    11    23    1
    25    12    24    1
    26    12    25    1
    27    13    26    1
