@<TRIPOS>MOLECULE
DB04446
 21 22 0 0 0
SMALL
USER_CHARGES

@<TRIPOS>ATOM
      1 C           6.2325   -2.0224    1.8023 C.ar    1  LIG1        0.0000
      2 C           6.8006   -0.7590    1.9146 C.ar    1  LIG1        0.0000
      3 C           4.9423   -2.1909    1.4142 C.ar    1  LIG1        0.0000
      4 C           6.0409    0.3560    1.6247 C.ar    1  LIG1        0.0000
      5 C           2.7781   -1.0640    0.6996 C.ar    1  LIG1        0.0000
      6 C           4.1248   -1.0729    1.1072 C.ar    1  LIG1        0.0000
      7 C           4.7293    0.2005    1.2297 C.ar    1  LIG1        0.0000
      8 C           2.1549    0.1155    0.4434 C.ar    1  LIG1        0.0000
      9 C           0.7682    0.3441    0.0062 C.2     1  LIG1        0.0000
     10 N           0.1424   -0.5726   -0.7346 N.pl3   1  LIG1        0.0000
     11 N           0.1347    1.4656    0.3554 N.2     1  LIG1        0.0000
     12 S           3.4290    1.3201    0.7749 S.2     1  LIG1        0.0000
     13 H           6.8320   -2.8915    2.0298 H       1  LIG1        0.0000
     14 H           7.8290   -0.6507    2.2260 H       1  LIG1        0.0000
     15 H           4.5336   -3.1878    1.3385 H       1  LIG1        0.0000
     16 H           6.4705    1.3434    1.7077 H       1  LIG1        0.0000
     17 H           2.2429   -1.9946    0.5822 H       1  LIG1        0.0000
     18 H           0.6028   -1.3878   -0.9884 H       1  LIG1        0.0000
     19 H          -0.7729   -0.4238   -1.0194 H       1  LIG1        0.0000
     20 H           0.5882    2.1302    0.8972 H       1  LIG1        0.0000
     21 H          -0.7793    1.6162    0.0673 H       1  LIG1        0.0000
@<TRIPOS>BOND
     1     1     2   ar
     2     1     3   ar
     3     2     4   ar
     4     3     6   ar
     5     4     7   ar
     6     5     6   ar
     7     5     8   ar
     8     6     7   ar
     9     7    12   ar
    10     8     9    1
    11     8    12   ar
    12     9    10    1
    13     9    11    2
    14     1    13    1
    15     2    14    1
    16     3    15    1
    17     4    16    1
    18     5    17    1
    19    10    18    1
    20    10    19    1
    21    11    20    1
    22    11    21    1
