@<TRIPOS>MOLECULE
DB04208
 28 28 0 0 0
SMALL
USER_CHARGES

@<TRIPOS>ATOM
      1 C           4.8942   -0.1668    1.9362 C.ar    1  LIG1        0.0000
      2 C           6.2595   -0.4464    1.9900 C.ar    1  LIG1        0.0000
      3 C           4.5312   -2.1844    0.6577 C.ar    1  LIG1        0.0000
      4 C           4.0299   -1.0357    1.2700 C.ar    1  LIG1        0.0000
      5 C           6.7609   -1.5951    1.3777 C.ar    1  LIG1        0.0000
      6 C           5.8967   -2.4641    0.7115 C.ar    1  LIG1        0.0000
      7 C           2.8867    1.4596   -0.1228 C.2     1  LIG1        0.0000
      8 C           8.9103   -0.9179    2.1378 C.3     1  LIG1        0.0000
      9 C           6.4269   -4.7748    0.8991 C.3     1  LIG1        0.0000
     10 C           2.5697   -0.7380    1.2145 C.3     1  LIG1        0.0000
     11 C           2.1849    0.1026   -0.0056 C.3     1  LIG1        0.0000
     12 O           2.5864    2.1061   -1.1681 O.co2   1  LIG1       -0.5000
     13 O           3.6680    1.7763    0.8153 O.co2   1  LIG1       -0.5000
     14 O           8.0966   -1.8569    1.4375 O.3     1  LIG1        0.0000
     15 O           6.3747   -3.5886    0.1090 O.3     1  LIG1        0.0000
     16 H           4.5122    0.7296    2.4175 H       1  LIG1        0.0000
     17 H           6.9271    0.2349    2.5103 H       1  LIG1        0.0000
     18 H           3.8597   -2.8637    0.1382 H       1  LIG1        0.0000
     19 H           9.9523   -1.2455    2.1098 H       1  LIG1        0.0000
     20 H           8.5692   -0.8400    3.1732 H       1  LIG1        0.0000
     21 H           8.8243    0.0577    1.6535 H       1  LIG1        0.0000
     22 H           6.8268   -5.5958    0.2990 H       1  LIG1        0.0000
     23 H           5.4230   -5.0229    1.2524 H       1  LIG1        0.0000
     24 H           7.0807   -4.6018    1.7573 H       1  LIG1        0.0000
     25 H           1.9936   -1.6763    1.2063 H       1  LIG1        0.0000
     26 H           2.2563   -0.2144    2.1309 H       1  LIG1        0.0000
     27 H           1.1033    0.2904    0.0050 H       1  LIG1        0.0000
     28 H           2.3999   -0.4613   -0.9225 H       1  LIG1        0.0000
@<TRIPOS>BOND
     1     1     2   ar
     2     1     4   ar
     3     2     5   ar
     4     3     4   ar
     5     3     6   ar
     6     4    10    1
     7     5     6   ar
     8     5    14    1
     9     6    15    1
    10     7    11    1
    11     7    12   ar
    12     7    13   ar
    13     8    14    1
    14     9    15    1
    15    10    11    1
    16     1    16    1
    17     2    17    1
    18     3    18    1
    19     8    19    1
    20     8    20    1
    21     8    21    1
    22     9    22    1
    23     9    23    1
    24     9    24    1
    25    10    25    1
    26    10    26    1
    27    11    27    1
    28    11    28    1
