@<TRIPOS>MOLECULE
DB04537
 29 30 0 0 0
SMALL
USER_CHARGES

@<TRIPOS>ATOM
      1 C           6.3915   -3.8986    1.2992 C.ar    1  LIG1       -0.0615
      2 C           7.5833   -3.2188    1.5424 C.ar    1  LIG1       -0.0603
      3 C           5.1967   -3.1990    1.0947 C.ar    1  LIG1       -0.0528
      4 C           7.6199   -1.8222    1.5891 C.ar    1  LIG1       -0.0402
      5 C           4.8272    0.4374    1.1295 C.ar    1  LIG1       -0.0034
      6 C           5.2090   -1.7906    1.1372 C.ar    1  LIG1        0.0001
      7 C           4.2143   -0.7852    0.9791 C.ar    1  LIG1       -0.0261
      8 C           6.4178   -1.1360    1.3830 C.ar    1  LIG1        0.0375
      9 C           2.5344    0.8435   -1.0169 C.2     1  LIG1        0.1950
     10 C           2.7794   -1.0028    0.7046 C.3     1  LIG1       -0.0304
     11 C           2.0023    0.2666    0.2826 C.3     1  LIG1       -0.0008
     12 N           6.1562    0.2156    1.3725 N.ar    1  LIG1       -0.3203
     13 N           2.5120   -0.0622   -2.0554 N.am    1  LIG1       -0.3306
     14 N           0.5577   -0.0752    0.1273 N.4     1  LIG1        0.3874
     15 O           2.9374    1.9984   -1.1303 O.2     1  LIG1       -0.2798
     16 H           6.3884   -4.9847    1.2671 H       1  LIG1        0.0623
     17 H           8.4997   -3.7821    1.6986 H       1  LIG1        0.0623
     18 H           4.2760   -3.7435    0.9052 H       1  LIG1        0.0630
     19 H           8.5480   -1.2939    1.7797 H       1  LIG1        0.0642
     20 H           4.4382    1.4453    1.0840 H       1  LIG1        0.0792
     21 H           2.6704   -1.7669   -0.0911 H       1  LIG1        0.0305
     22 H           2.2625   -1.4606    1.5737 H       1  LIG1        0.0305
     23 H           2.0431    1.0357    1.0623 H       1  LIG1        0.0186
     24 H           6.8460    0.9388    1.5227 H       1  LIG1        0.1522
     25 H           2.1706   -1.0111   -1.9414 H       1  LIG1        0.1454
     26 H           2.8404    0.1961   -2.9799 H       1  LIG1        0.1454
     27 H           0.4496   -0.9339   -0.4167 H       1  LIG1       -0.0891
     28 H           0.0623    0.6780   -0.3553 H       1  LIG1       -0.0891
     29 H           0.1227   -0.2147    1.0420 H       1  LIG1       -0.0891
@<TRIPOS>BOND
     1     1     2   ar
     2     1     3   ar
     3     2     4   ar
     4     3     6   ar
     5     4     8   ar
     6     5     7   ar
     7     5    12   ar
     8     6     7   ar
     9     6     8   ar
    10     7    10    1
    11     8    12   ar
    12     9    11    1
    13     9    13   am
    14     9    15    2
    15    10    11    1
    16    11    14    1
    17     1    16    1
    18     2    17    1
    19     3    18    1
    20     4    19    1
    21     5    20    1
    22    10    21    1
    23    10    22    1
    24    11    23    1
    25    12    24    1
    26    13    25    1
    27    13    26    1
    28    14    27    1
    29    14    28    1
    30    14    29    1
