@<TRIPOS>MOLECULE
DB04532
 16 17 0 0 0
SMALL
USER_CHARGES

@<TRIPOS>ATOM
      1 C           6.1293   -4.0305    1.3963 C.ar    1  LIG1       -0.0615
      2 C           7.4306   -3.5480    1.3960 C.ar    1  LIG1       -0.0603
      3 C           5.0692   -3.1681    1.3964 C.ar    1  LIG1       -0.0530
      4 C           7.6775   -2.1924    1.3962 C.ar    1  LIG1       -0.0402
      5 C           4.4229   -0.6148    1.3963 C.ar    1  LIG1       -0.0392
      6 C           5.2195    0.4658    1.3964 C.ar    1  LIG1       -0.0065
      7 C           5.2963   -1.7908    1.3961 C.ar    1  LIG1       -0.0030
      8 C           6.6136   -1.2965    1.3963 C.ar    1  LIG1        0.0372
      9 N           6.5317    0.0779    1.3965 N.ar    1  LIG1       -0.3206
     10 H           5.9531   -5.0960    1.3919 H       1  LIG1        0.0623
     11 H           8.2581   -4.2421    1.3960 H       1  LIG1        0.0623
     12 H           4.0593   -3.5508    1.3953 H       1  LIG1        0.0629
     13 H           8.6938   -1.8268    1.3967 H       1  LIG1        0.0642
     14 H           3.3429   -0.6166    1.3961 H       1  LIG1        0.0643
     15 H           4.8756    1.4894    1.3971 H       1  LIG1        0.0789
     16 H           7.2911    0.6814    1.3969 H       1  LIG1        0.1522
@<TRIPOS>BOND
     1     1     2   ar
     2     1     3   ar
     3     2     4   ar
     4     3     7   ar
     5     4     8   ar
     6     5     6   ar
     7     5     7   ar
     8     6     9   ar
     9     7     8   ar
    10     8     9   ar
    11     1    10    1
    12     2    11    1
    13     3    12    1
    14     4    13    1
    15     5    14    1
    16     6    15    1
    17     9    16    1
