@<TRIPOS>MOLECULE
DB04080
 19 19 0 0 0
SMALL
USER_CHARGES

@<TRIPOS>ATOM
      1 C           6.2597   -1.9689    1.6886 C.ar    1  LIG1        0.0000
      2 C           5.2077   -2.6716    1.1013 C.ar    1  LIG1        0.0000
      3 C           6.1595   -0.5901    1.8750 C.ar    1  LIG1        0.0000
      4 C           4.0553   -1.9956    0.7002 C.ar    1  LIG1        0.0000
      5 C           5.0072    0.0859    1.4739 C.ar    1  LIG1        0.0000
      6 C           3.9551   -0.6169    0.8865 C.ar    1  LIG1        0.0000
      7 C           3.0058    1.5620    0.0399 C.2     1  LIG1        0.0000
      8 C           1.6099    0.0717    1.5223 C.2     1  LIG1        0.0000
      9 C           2.7234    0.1066    0.4578 C.3     1  LIG1        0.0000
     10 O           3.5090    2.3106    0.9240 O.co2   1  LIG1       -0.5000
     11 O           1.9250    0.6211    2.6191 O.co2   1  LIG1       -0.5000
     12 O           2.6973    1.8406   -1.1558 O.co2   1  LIG1       -0.5000
     13 O           0.5219   -0.4817    1.1990 O.co2   1  LIG1       -0.5000
     14 H           7.1564   -2.4956    2.0021 H       1  LIG1        0.0000
     15 H           5.2851   -3.7453    0.9572 H       1  LIG1        0.0000
     16 H           6.9780   -0.0428    2.3331 H       1  LIG1        0.0000
     17 H           3.2408   -2.5514    0.2434 H       1  LIG1        0.0000
     18 H           4.9380    1.1602    1.6229 H       1  LIG1        0.0000
     19 H           2.2906   -0.4007   -0.4251 H       1  LIG1        0.0000
@<TRIPOS>BOND
     1     1     2   ar
     2     1     3   ar
     3     2     4   ar
     4     3     5   ar
     5     4     6   ar
     6     5     6   ar
     7     6     9    1
     8     7     9    1
     9     7    10   ar
    10     7    12   ar
    11     8     9    1
    12     8    11   ar
    13     8    13   ar
    14     1    14    1
    15     2    15    1
    16     3    16    1
    17     4    17    1
    18     5    18    1
    19     9    19    1
