@<TRIPOS>MOLECULE
DB04487
 25 24 0 0 0
SMALL
USER_CHARGES

@<TRIPOS>ATOM
      1 C           2.8713    1.5362    0.0276 C.2     1  LEU1        0.0000
      2 CD1         4.5150   -0.7323    2.4847 C.3     1  LEU1        0.0000
      3 CD2         5.6973   -1.7003    0.5080 C.3     1  LEU1        0.0000
      4 C           0.0832    0.9342    0.5986 C.3     0  UNK0        0.0000
      5 CB          3.3467   -0.8842    0.2815 C.3     1  LEU1        0.0000
      6 CA          2.3815    0.2481    0.6376 C.3     1  LEU1        0.0000
      7 CG          4.6926   -0.6420    0.9678 C.3     1  LEU1        0.0000
      8 N           1.0451   -0.0646    0.1139 N.4     1  LEU1        0.0000
      9 O           3.9670    1.9767    0.3312 O.co2   1  LEU1       -0.5000
     10 OXT         2.1720    2.1379   -0.7696 O.co2   1  LEU1       -0.5000
     11 HD11        4.0602   -1.6892    2.7410 H       1  LEU1        0.0000
     12 HD12        5.4877   -0.6508    2.9699 H       1  LEU1        0.0000
     13 HD13        3.8706    0.0786    2.8241 H       1  LEU1        0.0000
     14 HD21        5.8237   -1.6359   -0.5727 H       1  LEU1        0.0000
     15 HD22        6.6560   -1.5278    0.9969 H       1  LEU1        0.0000
     16 HD23        5.3278   -2.6912    0.7722 H       1  LEU1        0.0000
     17 H           0.3845    1.9245    0.2573 H       0  UNK0        0.0000
     18 H          -0.9084    0.7022    0.2100 H       0  UNK0        0.0000
     19 H           0.0595    0.9170    1.6882 H       0  UNK0        0.0000
     20 HB1         2.9325   -1.8343    0.6191 H       1  LEU1        0.0000
     21 HB2         3.4898   -0.9135   -0.7986 H       1  LEU1        0.0000
     22 HA          2.3311    0.3555    1.7211 H       1  LEU1        0.0000
     23 HG          5.0620    0.3488    0.7035 H       1  LEU1        0.0000
     24 H1          0.7661   -0.9813    0.4299 H       1  LEU1        0.0000
     25 H2          1.0670   -0.0486   -0.8947 H       1  LEU1        0.0000
@<TRIPOS>BOND
     1     1     6    1
     2     1     9   ar
     3     1    10   ar
     4     2     7    1
     5     3     7    1
     6     4     8    1
     7     5     6    1
     8     5     7    1
     9     6     8    1
    10     2    11    1
    11     2    12    1
    12     2    13    1
    13     3    14    1
    14     3    15    1
    15     3    16    1
    16     4    17    1
    17     4    18    1
    18     4    19    1
    19     5    20    1
    20     5    21    1
    21     6    22    1
    22     7    23    1
    23     8    24    1
    24     8    25    1
