@<TRIPOS>MOLECULE
DB04840
 27 28 0 0 0
SMALL
USER_CHARGES

@<TRIPOS>ATOM
      1 C           7.1426   -3.2491    1.8871 C.ar    1  LIG1        0.0000
      2 C           6.4364   -3.8777    0.8788 C.ar    1  LIG1        0.0000
      3 C           6.7621   -1.9926    2.3107 C.ar    1  LIG1        0.0000
      4 C           5.3580   -3.2410    0.2992 C.ar    1  LIG1        0.0000
      5 C           5.6745   -1.3506    1.7316 C.ar    1  LIG1        0.0000
      6 C           4.9778   -1.9744    0.7206 C.ar    1  LIG1        0.0000
      7 C           2.0780    0.1363    1.0212 C.cat   1  LIG1        0.0000
      8 C           5.3107    0.0146    2.2528 C.3     1  LIG1        0.0000
      9 C           3.8069   -1.3243    0.0274 C.3     1  LIG1        0.0000
     10 C           4.4608    0.7761    1.2370 C.3     1  LIG1        0.0000
     11 N           3.3964   -0.1272    0.7692 N.pl3   1  LIG1        0.0000
     12 N           1.1517   -0.1762    0.1165 N.pl3   1  LIG1        0.0000
     13 N           1.7206    0.7052    2.1712 N.2     1  LIG1        0.0000
     14 H           7.9899   -3.7404    2.3422 H       1  LIG1        0.0000
     15 H           6.7276   -4.8630    0.5458 H       1  LIG1        0.0000
     16 H           7.3146   -1.5035    3.0994 H       1  LIG1        0.0000
     17 H           4.8054   -3.7321   -0.4881 H       1  LIG1        0.0000
     18 H           6.2229    0.5776    2.4508 H       1  LIG1        0.0000
     19 H           4.7490   -0.0938    3.1807 H       1  LIG1        0.0000
     20 H           2.9750   -2.0272   -0.0158 H       1  LIG1        0.0000
     21 H           4.0957   -1.0423   -0.9851 H       1  LIG1        0.0000
     22 H           5.0803    1.0835    0.3944 H       1  LIG1        0.0000
     23 H           4.0186    1.6532    1.7097 H       1  LIG1        0.0000
     24 H           1.4160   -0.5449   -0.7409 H       1  LIG1        0.0000
     25 H           0.2128   -0.0349    0.3149 H       1  LIG1        0.0000
     26 H           0.7979    0.9665    2.3168 H       1  LIG1        0.0000
     27 H           2.3830    0.8583    2.8631 H       1  LIG1        0.0000
@<TRIPOS>BOND
     1     1     2   ar
     2     1     3   ar
     3     2     4   ar
     4     3     5   ar
     5     4     6   ar
     6     5     6   ar
     7     5     8    1
     8     6     9    1
     9     7    11    1
    10     7    12    1
    11     7    13    2
    12     8    10    1
    13     9    11    1
    14    10    11    1
    15     1    14    1
    16     2    15    1
    17     3    16    1
    18     4    17    1
    19     8    18    1
    20     8    19    1
    21     9    20    1
    22     9    21    1
    23    10    22    1
    24    10    23    1
    25    12    24    1
    26    12    25    1
    27    13    26    1
    28    13    27    1
