@<TRIPOS>MOLECULE
DB04745
 18 19 0 0 0
SMALL
USER_CHARGES

@<TRIPOS>ATOM
      1 C           6.0699   -3.9211    1.3960 C.ar    1  LIG1       -0.0615
      2 C           7.3748   -3.4481    1.3967 C.ar    1  LIG1       -0.0603
      3 C           5.0153   -3.0523    1.3953 C.ar    1  LIG1       -0.0531
      4 C           7.6322   -2.0938    1.3965 C.ar    1  LIG1       -0.0401
      5 C           5.2526   -1.6741    1.3961 C.ar    1  LIG1       -0.0040
      6 C           6.5748   -1.1905    1.3963 C.ar    1  LIG1        0.0400
      7 C           4.1462   -0.7151    1.3964 C.ar    1  LIG1       -0.0478
      8 C           4.4373    0.6094    1.4015 C.ar    1  LIG1        0.0016
      9 C           5.7807    1.0421    1.3963 C.ar    1  LIG1        0.2400
     10 N           6.8032    0.1691    1.3965 N.ar    1  LIG1       -0.2813
     11 O           6.0198    2.2373    1.3965 O.2     1  LIG1       -0.2722
     12 H           5.8865   -4.9854    1.3958 H       1  LIG1        0.0623
     13 H           8.1970   -4.1482    1.3969 H       1  LIG1        0.0623
     14 H           4.0029   -3.4284    1.3947 H       1  LIG1        0.0629
     15 H           8.6510   -1.7357    1.3964 H       1  LIG1        0.0642
     16 H           3.1212   -1.0550    1.3949 H       1  LIG1        0.0631
     17 H           3.6380    1.3357    1.4019 H       1  LIG1        0.0678
     18 H           7.7148    0.5006    1.3966 H       1  LIG1        0.1560
@<TRIPOS>BOND
     1     1     2   ar
     2     1     3   ar
     3     2     4   ar
     4     3     5   ar
     5     4     6   ar
     6     5     6   ar
     7     5     7   ar
     8     6    10   ar
     9     7     8   ar
    10     8     9   ar
    11     9    10   ar
    12     9    11    2
    13     1    12    1
    14     2    13    1
    15     3    14    1
    16     4    15    1
    17     7    16    1
    18     8    17    1
    19    10    18    1
