@<TRIPOS>MOLECULE
DB04114
 41 44 0 0 0
SMALL
USER_CHARGES

@<TRIPOS>ATOM
      1 C           5.2774   -3.4823    1.3970 C.3     1  LIG1       -0.0495
      2 C           6.4605   -4.1576    1.3891 C.3     1  LIG1       -0.0427
      3 C           7.7103   -2.1095    1.3982 C.3     1  LIG1       -0.0192
      4 C           5.2795   -2.0806    1.3983 C.3     1  LIG1        0.0192
      5 C           4.1570    0.0517    1.3944 C.3     1  LIG1       -0.0037
      6 C           6.5093   -1.3796    1.3979 C.3     1  LIG1        0.0489
      7 C           4.0781   -1.3382    1.3993 C.3     1  LIG1        0.0381
      8 C           7.6739   -3.4714    1.3964 C.3     1  LIG1        0.0427
      9 C           5.3965    0.6665    1.3943 C.3     1  LIG1        0.0212
     10 C           3.9944    2.5254   -0.5090 C.2     1  LIG1       -0.0818
     11 C           3.1443    1.6477   -0.9378 C.2     1  LIG1       -0.0735
     12 C           5.5429    2.1688    1.3943 C.3     1  LIG1       -0.0059
     13 C           2.2819    0.8138   -0.0340 C.3     1  LIG1       -0.0249
     14 C           3.0989    2.2755    1.8002 C.3     1  LIG1       -0.0392
     15 C           2.8635    0.8215    1.3836 C.3     1  LIG1       -0.0083
     16 C           4.2402    2.8266    0.9387 C.3     1  LIG1       -0.0170
     17 C           3.9013    0.2892   -2.8693 C.3     1  LIG1       -0.0616
     18 C           3.0121    1.4529   -2.4263 C.3     1  LIG1       -0.0348
     19 N           6.5105   -0.0456    1.3965 N.3     1  LIG1       -0.3580
     20 N           2.8486   -1.9789    1.4039 N.3     1  LIG1       -0.3574
     21 CL          9.1616   -4.3662    1.3962 Cl      1  LIG1       -0.0842
     22 H           4.3430   -4.0239    1.3970 H       1  LIG1        0.0631
     23 H           6.4583   -5.2376    1.3876 H       1  LIG1        0.0638
     24 H           8.6586   -1.5927    1.4001 H       1  LIG1        0.0660
     25 H           4.5641    3.0763   -1.2426 H       1  LIG1        0.0578
     26 H           5.7858    2.5080    2.4012 H       1  LIG1        0.0337
     27 H           6.3473    2.4531    0.7160 H       1  LIG1        0.0337
     28 H           2.2493   -0.2100   -0.4068 H       1  LIG1        0.0319
     29 H           1.2725    1.2248   -0.0150 H       1  LIG1        0.0319
     30 H           2.1939    2.8592    1.6323 H       1  LIG1        0.0279
     31 H           3.3770    2.3178    2.8533 H       1  LIG1        0.0279
     32 H           2.1566    0.3547    2.0695 H       1  LIG1        0.0357
     33 H           4.3108    3.9055    1.0770 H       1  LIG1        0.0350
     34 H           3.8057    0.1483   -3.9459 H       1  LIG1        0.0234
     35 H           4.9395    0.5109   -2.6227 H       1  LIG1        0.0234
     36 H           3.5919   -0.6206   -2.3549 H       1  LIG1        0.0234
     37 H           1.9738    1.2312   -2.6730 H       1  LIG1        0.0310
     38 H           3.3214    2.3628   -2.9407 H       1  LIG1        0.0310
     39 H           7.3615    0.4199    1.3966 H       1  LIG1        0.1662
     40 H           2.0303   -1.4579    1.4038 H       1  LIG1        0.1427
     41 H           2.8065   -2.9480    1.4073 H       1  LIG1        0.1427
@<TRIPOS>BOND
     1     1     2    1
     2     1     4    1
     3     2     8    1
     4     3     6    1
     5     3     8    1
     6     4     6    1
     7     4     7    1
     8     5     7    1
     9     5     9    1
    10     5    15    1
    11     6    19    1
    12     7    20    1
    13     8    21    1
    14     9    12    1
    15     9    19    1
    16    10    11    2
    17    10    16    1
    18    11    13    1
    19    11    18    1
    20    12    16    1
    21    13    15    1
    22    14    15    1
    23    14    16    1
    24    17    18    1
    25     1    22    1
    26     2    23    1
    27     3    24    1
    28    10    25    1
    29    12    26    1
    30    12    27    1
    31    13    28    1
    32    13    29    1
    33    14    30    1
    34    14    31    1
    35    15    32    1
    36    16    33    1
    37    17    34    1
    38    17    35    1
    39    17    36    1
    40    18    37    1
    41    18    38    1
    42    19    39    1
    43    20    40    1
    44    20    41    1
