@<TRIPOS>MOLECULE
DB04582
 40 42 0 0 0
SMALL
USER_CHARGES

@<TRIPOS>ATOM
      1 C           7.3433   -3.5302    1.8559 C.ar    1  LIG1        0.0000
      2 C           6.3557   -4.2979    1.2427 C.ar    1  LIG1        0.0000
      3 C           7.2077   -2.1797    1.9708 C.ar    1  LIG1        0.0000
      4 C           5.2279   -3.7227    0.7416 C.ar    1  LIG1        0.0000
      5 C           5.8862   -0.1595    1.5674 C.ar    1  LIG1        0.0000
      6 C           6.0579   -1.5512    1.4650 C.ar    1  LIG1        0.0000
      7 C           4.7266    0.3966    1.0396 C.ar    1  LIG1        0.0000
      8 C           5.0497   -2.3313    0.8402 C.ar    1  LIG1        0.0000
      9 C           3.7642   -0.4486    0.4356 C.ar    1  LIG1        0.0000
     10 C           1.2496    1.5221   -1.3445 C.2     1  LIG1        0.0000
     11 C           2.5248    0.1437   -0.1216 C.3     1  LIG1        0.0000
     12 C           4.4953    1.8501    1.1194 C.2     1  LIG1        0.0000
     13 C           0.3748    0.5561   -0.5701 C.3     1  LIG1        0.0000
     14 C          -0.5422    1.3150    0.3913 C.3     1  LIG1        0.0000
     15 C          -1.4558    0.5748   -2.2705 C.3     1  LIG1        0.0000
     16 C           0.4812   -0.9806   -2.5373 C.3     1  LIG1        0.0000
     17 C          -0.4499   -0.3066   -1.5275 C.3     1  LIG1        0.0000
     18 N           3.9507   -1.7482    0.3544 N.ar    1  LIG1        0.0000
     19 N           2.5156    1.1950   -1.0093 N.am    1  LIG1        0.0000
     20 N           1.3354   -0.2732    0.1747 N.3     1  LIG1        0.0000
     21 O           3.4211    2.3185    0.7690 O.co2   1  LIG1       -0.5000
     22 O           0.8901    2.3985   -2.1014 O.2     1  LIG1        0.0000
     23 O           5.3774    2.5879    1.5360 O.co2   1  LIG1       -0.5000
     24 H           8.2277   -4.0122    2.2456 H       1  LIG1        0.0000
     25 H           6.4865   -5.3671    1.1638 H       1  LIG1        0.0000
     26 H           7.9804   -1.5952    2.4480 H       1  LIG1        0.0000
     27 H           4.4722   -4.3332    0.2700 H       1  LIG1        0.0000
     28 H           6.6355    0.4598    2.0376 H       1  LIG1        0.0000
     29 H          -1.1288    0.6031    0.9719 H       1  LIG1        0.0000
     30 H           0.0613    1.9234    1.0648 H       1  LIG1        0.0000
     31 H          -1.2123    1.9591   -0.1781 H       1  LIG1        0.0000
     32 H          -2.1190    1.0550   -1.5511 H       1  LIG1        0.0000
     33 H          -0.9215    1.3374   -2.8373 H       1  LIG1        0.0000
     34 H          -2.0432   -0.0398   -2.9526 H       1  LIG1        0.0000
     35 H           1.0155   -0.2180   -3.1040 H       1  LIG1        0.0000
     36 H           1.1978   -1.6086   -2.0079 H       1  LIG1        0.0000
     37 H          -0.1063   -1.5952   -3.2193 H       1  LIG1        0.0000
     38 H          -0.9842   -1.0692   -0.9608 H       1  LIG1        0.0000
     39 H           3.3088    1.6395   -1.3470 H       1  LIG1        0.0000
     40 H           1.1171   -1.0006    0.7780 H       1  LIG1        0.0000
@<TRIPOS>BOND
     1     1     2   ar
     2     1     3   ar
     3     2     4   ar
     4     3     6   ar
     5     4     8   ar
     6     5     6   ar
     7     5     7   ar
     8     6     8   ar
     9     7     9   ar
    10     7    12    1
    11     8    18   ar
    12     9    11    1
    13     9    18   ar
    14    10    13    1
    15    10    19   am
    16    10    22    2
    17    11    19    1
    18    11    20    1
    19    12    21   ar
    20    12    23   ar
    21    13    14    1
    22    13    17    1
    23    13    20    1
    24    15    17    1
    25    16    17    1
    26     1    24    1
    27     2    25    1
    28     3    26    1
    29     4    27    1
    30     5    28    1
    31    14    29    1
    32    14    30    1
    33    14    31    1
    34    15    32    1
    35    15    33    1
    36    15    34    1
    37    16    35    1
    38    16    36    1
    39    16    37    1
    40    17    38    1
    41    19    39    1
    42    20    40    1
