@<TRIPOS>MOLECULE
DB06952
 21 22 0 0 0
SMALL
USER_CHARGES

@<TRIPOS>ATOM
      1 C           6.9054   -0.4027    1.7199 C.ar    1  LIG1        0.0000
      2 C           6.5677   -1.4425    0.8717 C.ar    1  LIG1        0.0000
      3 C           5.9245    0.4388    2.2097 C.ar    1  LIG1        0.0000
      4 C           5.2511   -1.6566    0.5085 C.ar    1  LIG1        0.0000
      5 C           4.6001    0.2325    1.8449 C.ar    1  LIG1        0.0000
      6 C           4.2539   -0.8252    0.9936 C.ar    1  LIG1        0.0000
      7 C           3.5211    1.1259    2.3292 C.2     1  LIG1        0.0000
      8 C           2.3904    1.1110    1.6147 C.2     1  LIG1        0.0000
      9 C           3.0060    0.8946   -0.7522 C.2     1  LIG1        0.0000
     10 C           2.3248    0.2131    0.4064 C.3     1  LIG1        0.0000
     11 O           2.6498    2.0075   -1.0999 O.co2   1  LIG1       -0.5000
     12 O           3.9102    0.3310   -1.3450 O.co2   1  LIG1       -0.5000
     13 O           2.9613   -1.0325    0.6526 O.3     1  LIG1        0.0000
     14 O           0.9554   -0.0209    0.0715 O.3     1  LIG1        0.0000
     15 H           7.9371   -0.2483    1.9993 H       1  LIG1        0.0000
     16 H           7.3403   -2.0931    0.4896 H       1  LIG1        0.0000
     17 H           6.1860    1.2515    2.8713 H       1  LIG1        0.0000
     18 H           4.9995   -2.4718   -0.1537 H       1  LIG1        0.0000
     19 H           3.6403    1.7491    3.2032 H       1  LIG1        0.0000
     20 H           1.5481    1.7259    1.8957 H       1  LIG1        0.0000
     21 H           0.9522   -0.5864   -0.7130 H       1  LIG1        0.0000
@<TRIPOS>BOND
     1     1     2   ar
     2     1     3   ar
     3     2     4   ar
     4     3     5   ar
     5     4     6   ar
     6     5     6   ar
     7     5     7    1
     8     6    13    1
     9     7     8    2
    10     8    10    1
    11     9    10    1
    12     9    11   ar
    13     9    12   ar
    14    10    13    1
    15    10    14    1
    16     1    15    1
    17     2    16    1
    18     3    17    1
    19     4    18    1
    20     7    19    1
    21     8    20    1
    22    14    21    1
