@<TRIPOS>MOLECULE
DB06980
 33 34 0 0 0
SMALL
USER_CHARGES

@<TRIPOS>ATOM
      1 C           5.9523   -4.1024    1.2279 C.ar    1  LIG1        0.0000
      2 C           7.3032   -3.7964    1.3789 C.ar    1  LIG1        0.0000
      3 C           4.9844   -3.0913    1.2279 C.ar    1  LIG1        0.0000
      4 C           7.7299   -2.4743    1.5341 C.ar    1  LIG1        0.0000
      5 C           5.6425    0.4845    1.6025 C.ar    1  LIG1        0.0000
      6 C           5.3906   -1.7510    1.3827 C.ar    1  LIG1        0.0000
      7 C           4.7034   -0.5058    1.4290 C.ar    1  LIG1        0.0000
      8 C           6.7512   -1.4740    1.5321 C.ar    1  LIG1        0.0000
      9 C           2.9305    1.2022    1.5663 C.2     1  LIG1        0.0000
     10 C          -1.1730   -0.9657    0.8129 C.3     1  LIG1        0.0000
     11 C           0.3130   -1.2691    0.9201 C.3     1  LIG1        0.0000
     12 C           1.1154   -0.5234   -0.1468 C.3     1  LIG1        0.0000
     13 C           2.6160   -0.8101   -0.0140 C.3     1  LIG1        0.0000
     14 C           3.2051   -0.2953    1.3111 C.3     1  LIG1        0.0000
     15 N           6.8747   -0.1091    1.6633 N.ar    1  LIG1        0.0000
     16 O           3.4251    2.0124    0.7335 O.co2   1  LIG1       -0.5000
     17 O           2.2268    1.4420    2.5911 O.co2   1  LIG1       -0.5000
     18 H           5.6450   -5.1379    1.1083 H       1  LIG1        0.0000
     19 H           8.0380   -4.5973    1.3762 H       1  LIG1        0.0000
     20 H           3.9351   -3.3461    1.1081 H       1  LIG1        0.0000
     21 H           8.7816   -2.2371    1.6527 H       1  LIG1        0.0000
     22 H           5.5459    1.5582    1.6867 H       1  LIG1        0.0000
     23 H          -1.5589   -1.2384   -0.1746 H       1  LIG1        0.0000
     24 H          -1.3689    0.0989    0.9769 H       1  LIG1        0.0000
     25 H          -1.7308   -1.5333    1.5643 H       1  LIG1        0.0000
     26 H           0.6667   -0.9850    1.9181 H       1  LIG1        0.0000
     27 H           0.4676   -2.3492    0.8162 H       1  LIG1        0.0000
     28 H           0.7704   -0.8267   -1.1428 H       1  LIG1        0.0000
     29 H           0.9275    0.5523   -0.0522 H       1  LIG1        0.0000
     30 H           2.7904   -1.8870   -0.1312 H       1  LIG1        0.0000
     31 H           3.1404   -0.3230   -0.8469 H       1  LIG1        0.0000
     32 H           2.6980   -0.8363    2.1230 H       1  LIG1        0.0000
     33 H           7.7490    0.3827    1.7868 H       1  LIG1        0.0000
@<TRIPOS>BOND
     1     1     2   ar
     2     1     3   ar
     3     2     4   ar
     4     3     6   ar
     5     4     8   ar
     6     5     7   ar
     7     5    15   ar
     8     6     7   ar
     9     6     8   ar
    10     7    14    1
    11     8    15   ar
    12     9    14    1
    13     9    16   ar
    14     9    17   ar
    15    10    11    1
    16    11    12    1
    17    12    13    1
    18    13    14    1
    19     1    18    1
    20     2    19    1
    21     3    20    1
    22     4    21    1
    23     5    22    1
    24    10    23    1
    25    10    24    1
    26    10    25    1
    27    11    26    1
    28    11    27    1
    29    12    28    1
    30    12    29    1
    31    13    30    1
    32    13    31    1
    33    14    32    1
    34    15    33    1
