@<TRIPOS>MOLECULE
DB06981
 30 31 0 0 0
SMALL
USER_CHARGES

@<TRIPOS>ATOM
      1 C           5.9601   -4.1062    1.2288 C.ar    1  LIG1        0.0000
      2 C           7.3095   -3.7966    1.3862 C.ar    1  LIG1        0.0000
      3 C           4.9896   -3.0976    1.2233 C.ar    1  LIG1        0.0000
      4 C           7.7320   -2.4733    1.5426 C.ar    1  LIG1        0.0000
      5 C           5.6369    0.4802    1.5989 C.ar    1  LIG1        0.0000
      6 C           5.3917   -1.7562    1.3793 C.ar    1  LIG1        0.0000
      7 C           4.7011   -0.5127    1.4214 C.ar    1  LIG1        0.0000
      8 C           6.7508   -1.4756    1.5351 C.ar    1  LIG1        0.0000
      9 C           2.9211    1.1911    1.5444 C.2     1  LIG1        0.0000
     10 C           0.3664   -1.2862    0.9991 C.3     1  LIG1        0.0000
     11 C           1.1081   -0.5408   -0.0996 C.3     1  LIG1        0.0000
     12 C           2.6159   -0.8063   -0.0354 C.3     1  LIG1        0.0000
     13 C           3.2428   -0.3117    1.2994 C.3     1  LIG1        0.0000
     14 N           6.8702   -0.1103    1.6661 N.ar    1  LIG1        0.0000
     15 O           3.4230    2.0192    0.7335 O.co2   1  LIG1       -0.5000
     16 O           2.1639    1.4049    2.5362 O.co2   1  LIG1       -0.5000
     17 H           5.6561   -5.1425    1.1084 H       1  LIG1        0.0000
     18 H           8.0464   -4.5957    1.3876 H       1  LIG1        0.0000
     19 H           3.9417   -3.3552    1.0986 H       1  LIG1        0.0000
     20 H           8.7826   -2.2334    1.6662 H       1  LIG1        0.0000
     21 H           5.5369    1.5537    1.6819 H       1  LIG1        0.0000
     22 H           0.5466   -2.3625    0.9148 H       1  LIG1        0.0000
     23 H           0.7030   -0.9618    1.9890 H       1  LIG1        0.0000
     24 H          -0.7128   -1.1162    0.9298 H       1  LIG1        0.0000
     25 H           0.9147    0.5333    0.0027 H       1  LIG1        0.0000
     26 H           0.7065   -0.8532   -1.0699 H       1  LIG1        0.0000
     27 H           2.7871   -1.8842   -0.1570 H       1  LIG1        0.0000
     28 H           3.1055   -0.3212   -0.8892 H       1  LIG1        0.0000
     29 H           2.6931   -0.8478    2.1058 H       1  LIG1        0.0000
     30 H           7.7426    0.3838    1.7935 H       1  LIG1        0.0000
@<TRIPOS>BOND
     1     1     2   ar
     2     1     3   ar
     3     2     4   ar
     4     3     6   ar
     5     4     8   ar
     6     5     7   ar
     7     5    14   ar
     8     6     7   ar
     9     6     8   ar
    10     7    13    1
    11     8    14   ar
    12     9    13    1
    13     9    15   ar
    14     9    16   ar
    15    10    11    1
    16    11    12    1
    17    12    13    1
    18     1    17    1
    19     2    18    1
    20     3    19    1
    21     4    20    1
    22     5    21    1
    23    10    22    1
    24    10    23    1
    25    10    24    1
    26    11    25    1
    27    11    26    1
    28    12    27    1
    29    12    28    1
    30    13    29    1
    31    14    30    1
