@<TRIPOS>MOLECULE
DB07673
 23 23 0 0 0
SMALL
USER_CHARGES

@<TRIPOS>ATOM
      1 C           6.6528   -3.9796    1.3843 C.ar    1  LIG1        0.0000
      2 C           7.5190   -2.8888    1.4594 C.ar    1  LIG1        0.0000
      3 C           5.2862   -3.7733    1.1957 C.ar    1  LIG1        0.0000
      4 C           7.0184   -1.5918    1.3458 C.ar    1  LIG1        0.0000
      5 C           4.7857   -2.4764    1.0822 C.ar    1  LIG1        0.0000
      6 C           5.6518   -1.3856    1.1573 C.ar    1  LIG1        0.0000
      7 C           3.3195    1.5276   -0.0208 C.2     1  LIG1        0.0000
      8 C           4.1583   -0.4073   -1.2590 C.3     1  LIG1        0.0000
      9 C           5.1092    0.0185    1.0345 C.3     1  LIG1        0.0000
     10 C           3.8573    0.0936    0.1519 C.3     1  LIG1        0.0000
     11 O           2.7651    1.7853   -1.1260 O.co2   1  LIG1       -0.5000
     12 O           3.4984    2.2785    0.9811 O.co2   1  LIG1       -0.5000
     13 H           7.0429   -4.9895    1.4713 H       1  LIG1        0.0000
     14 H           8.5832   -3.0493    1.6051 H       1  LIG1        0.0000
     15 H           4.6118   -4.6224    1.1361 H       1  LIG1        0.0000
     16 H           7.7007   -0.7479    1.4057 H       1  LIG1        0.0000
     17 H           3.7195   -2.3254    0.9355 H       1  LIG1        0.0000
     18 H           4.9473    0.1895   -1.7301 H       1  LIG1        0.0000
     19 H           3.2660   -0.3389   -1.8904 H       1  LIG1        0.0000
     20 H           4.4885   -1.4522   -1.2565 H       1  LIG1        0.0000
     21 H           4.9099    0.4256    2.0341 H       1  LIG1        0.0000
     22 H           5.9003    0.6531    0.6130 H       1  LIG1        0.0000
     23 H           3.0640   -0.5342    0.5784 H       1  LIG1        0.0000
@<TRIPOS>BOND
     1     1     2   ar
     2     1     3   ar
     3     2     4   ar
     4     3     5   ar
     5     4     6   ar
     6     5     6   ar
     7     6     9    1
     8     7    10    1
     9     7    11   ar
    10     7    12   ar
    11     8    10    1
    12     9    10    1
    13     1    13    1
    14     2    14    1
    15     3    15    1
    16     4    16    1
    17     5    17    1
    18     8    18    1
    19     8    19    1
    20     8    20    1
    21     9    21    1
    22     9    22    1
    23    10    23    1
