@<TRIPOS>MOLECULE
DB07604
 45 49 0 0 0
SMALL
USER_CHARGES

@<TRIPOS>ATOM
      1 C           6.9480   -3.5677    1.8040 C.ar    1  LIG1       -0.0601
      2 C           5.7121   -3.8756    1.2361 C.ar    1  LIG1       -0.0583
      3 C           7.4376   -2.2772    1.9520 C.ar    1  LIG1       -0.0402
      4 C           5.5567    0.6309    0.8231 C.ar    1  LIG1       -0.0031
      5 C           5.4006   -1.5864    0.9186 C.ar    1  LIG1        0.0036
      6 C           4.8999   -2.8867    0.7844 C.ar    1  LIG1       -0.0383
      7 C           4.7376   -0.3452    0.4786 C.ar    1  LIG1       -0.0225
      8 C           6.6288   -1.2388    1.4918 C.ar    1  LIG1        0.0378
      9 C           1.3102    0.8672    2.1422 C.2     1  LIG1        0.0703
     10 C           0.4895    0.0920    1.3567 C.2     1  LIG1        0.0641
     11 C           2.5287    1.1897    1.3954 C.2     1  LIG1        0.1546
     12 C           1.0136    1.3007    3.5081 C.2     1  LIG1        0.1633
     13 C           3.5190   -3.0280    0.1867 C.3     1  LIG1       -0.0251
     14 C           3.4159   -0.5138   -0.1913 C.3     1  LIG1       -0.0163
     15 C           2.3556    0.5525    0.0365 C.3     1  LIG1        0.0035
     16 C           2.7648   -1.7544    0.4917 C.3     1  LIG1       -0.0403
     17 C           1.2972   -1.6351   -0.0068 C.3     1  LIG1       -0.0586
     18 C           2.0042    2.1516    4.2604 C.3     1  LIG1       -0.0008
     19 C           0.3528   -2.4275    0.8994 C.3     1  LIG1       -0.0739
     20 C           1.1793   -2.1077   -1.4572 C.3     1  LIG1       -0.0739
     21 N           6.6929    0.1205    1.4316 N.ar    1  LIG1       -0.3203
     22 N           1.0537   -0.1657    0.1091 N.pl3   1  LIG1        0.4192
     23 O          -0.7100   -0.3620    1.7452 O.2     1  LIG1       -0.2176
     24 O           3.4775    1.8382    1.7853 O.2     1  LIG1       -0.2957
     25 O          -0.0300    0.9752    4.0348 O.2     1  LIG1       -0.2943
     26 H           7.5632   -4.3850    2.1504 H       1  LIG1        0.0623
     27 H           5.3996   -4.9063    1.1558 H       1  LIG1        0.0626
     28 H           8.4001   -2.0863    2.4030 H       1  LIG1        0.0642
     29 H           5.3681    1.6808    0.6539 H       1  LIG1        0.0792
     30 H           3.5941   -3.1653   -0.8921 H       1  LIG1        0.0319
     31 H           3.0062   -3.8790    0.6348 H       1  LIG1        0.0319
     32 H           3.5461   -0.6939   -1.2585 H       1  LIG1        0.0343
     33 H           2.3545    1.2976   -0.7590 H       1  LIG1        0.0193
     34 H           2.7704   -1.5958    1.5701 H       1  LIG1        0.0298
     35 H           1.7932    3.2048    4.0749 H       1  LIG1        0.0314
     36 H           1.9219    1.9472    5.3278 H       1  LIG1        0.0314
     37 H           3.0139    1.9184    3.9225 H       1  LIG1        0.0314
     38 H           0.4127   -2.0381    1.9157 H       1  LIG1        0.0217
     39 H          -0.6690   -2.3305    0.5327 H       1  LIG1        0.0217
     40 H           0.6421   -3.4784    0.8953 H       1  LIG1        0.0217
     41 H           1.4914   -3.1497   -1.5263 H       1  LIG1        0.0217
     42 H           0.1442   -2.0158   -1.7862 H       1  LIG1        0.0217
     43 H           1.8183   -1.4941   -2.0923 H       1  LIG1        0.0217
     44 H           7.4292    0.6555    1.7671 H       1  LIG1        0.1522
     45 H           0.4399    0.1490   -0.6273 H       1  LIG1       -0.0693
@<TRIPOS>BOND
     1     1     2   ar
     2     1     3   ar
     3     2     6   ar
     4     3     8   ar
     5     4     7   ar
     6     4    21   ar
     7     5     6   ar
     8     5     7   ar
     9     5     8   ar
    10     6    13    1
    11     7    14    1
    12     8    21   ar
    13     9    10    2
    14     9    11    1
    15     9    12    1
    16    10    22    1
    17    10    23    1
    18    11    15    1
    19    11    24    2
    20    12    18    1
    21    12    25    2
    22    13    16    1
    23    14    15    1
    24    14    16    1
    25    15    22    1
    26    16    17    1
    27    17    19    1
    28    17    20    1
    29    17    22    1
    30     1    26    1
    31     2    27    1
    32     3    28    1
    33     4    29    1
    34    13    30    1
    35    13    31    1
    36    14    32    1
    37    15    33    1
    38    16    34    1
    39    18    35    1
    40    18    36    1
    41    18    37    1
    42    19    38    1
    43    19    39    1
    44    19    40    1
    45    20    41    1
    46    20    42    1
    47    20    43    1
    48    21    44    1
    49    22    45    1
