@<TRIPOS>MOLECULE
DB07684
 29 30 0 0 0
SMALL
USER_CHARGES

@<TRIPOS>ATOM
      1 C           6.1026   -4.1754    1.2425 C.ar    1  LIG1       -0.0597
      2 C           5.0581   -3.2529    1.1732 C.ar    1  LIG1       -0.0542
      3 C           6.8873   -0.0529    1.6145 C.ar    1  LIG1       -0.0507
      4 C           7.4089   -3.7356    1.4351 C.ar    1  LIG1       -0.0403
      5 C           5.8428    0.8695    1.5450 C.ar    1  LIG1       -0.0401
      6 C           4.2695   -0.9339    1.2285 C.ar    1  LIG1       -0.0328
      7 C           5.3085   -1.8764    1.2959 C.ar    1  LIG1       -0.0147
      8 C           6.6369   -1.4294    1.4917 C.ar    1  LIG1        0.0030
      9 C           7.6759   -2.3720    1.5590 C.ar    1  LIG1        0.0360
     10 C           4.5364    0.4298    1.3525 C.ar    1  LIG1        0.0430
     11 C           9.8695   -1.6946    0.6160 C.3     1  LIG1       -0.0003
     12 C           9.5559   -1.8454    3.0914 C.3     1  LIG1       -0.0003
     13 N           9.0226   -1.9788    1.7535 N.pl3   1  LIG1       -0.3364
     14 O           3.1453    1.9115   -0.1654 O.3     1  LIG1       -0.4148
     15 O           2.0423    0.8883    1.7852 O.2     1  LIG1       -0.4879
     16 O           3.6824    2.6935    2.1212 O.2     1  LIG1       -0.4879
     17 S           3.2303    1.5856    1.2661 S.3     1  LIG1       -0.2023
     18 H           5.8953   -5.2372    1.1461 H       1  LIG1        0.0623
     19 H           4.0447   -3.6195    1.0236 H       1  LIG1        0.0629
     20 H           7.8935    0.3312    1.7650 H       1  LIG1        0.0630
     21 H           8.2127   -4.4657    1.4885 H       1  LIG1        0.0642
     22 H           6.0606    1.9297    1.6433 H       1  LIG1        0.0642
     23 H           3.2437   -1.2663    1.0786 H       1  LIG1        0.0648
     24 H          10.8689   -1.4085    0.9540 H       1  LIG1        0.0432
     25 H           9.4490   -0.8747    0.0272 H       1  LIG1        0.0432
     26 H           9.9534   -2.5778   -0.0228 H       1  LIG1        0.0432
     27 H          10.6036   -1.5361    3.0491 H       1  LIG1        0.0432
     28 H           9.4920   -2.7999    3.6207 H       1  LIG1        0.0432
     29 H           8.9900   -1.0957    3.6509 H       1  LIG1        0.0432
@<TRIPOS>BOND
     1     1     2   ar
     2     1     4   ar
     3     2     7   ar
     4     3     5   ar
     5     3     8   ar
     6     4     9   ar
     7     5    10   ar
     8     6     7   ar
     9     6    10   ar
    10     7     8   ar
    11     8     9   ar
    12     9    13    1
    13    10    17    1
    14    11    13    1
    15    12    13    1
    16    14    17    1
    17    15    17    2
    18    16    17    2
    19     1    18    1
    20     2    19    1
    21     3    20    1
    22     4    21    1
    23     5    22    1
    24     6    23    1
    25    11    24    1
    26    11    25    1
    27    11    26    1
    28    12    27    1
    29    12    28    1
    30    12    29    1
