@<TRIPOS>MOLECULE
DB07723
 28 29 0 0 0
SMALL
USER_CHARGES

@<TRIPOS>ATOM
      1 C           7.5191   -2.1375    1.0472 C.ar    1  LIG1        0.0000
      2 C           7.2700   -3.5025    1.2167 C.ar    1  LIG1        0.0000
      3 C           4.9062   -3.0847    1.5840 C.ar    1  LIG1        0.0000
      4 C           5.0939    0.5470    1.2151 C.ar    1  LIG1        0.0000
      5 C           5.1329   -1.7041    1.4169 C.ar    1  LIG1        0.0000
      6 C           4.2997   -0.5511    1.4530 C.ar    1  LIG1        0.0000
      7 C           6.4315   -1.2632    1.1529 C.ar    1  LIG1        0.0000
      8 C           5.9846   -3.9710    1.4809 C.ar    1  LIG1        0.0000
      9 C           2.4215    1.5724    0.2159 C.2     1  LIG1        0.0000
     10 C           6.9086   -6.1619    1.5239 C.3     1  LIG1        0.0000
     11 C           2.8439   -0.5256    1.6994 C.3     1  LIG1        0.0000
     12 C           2.0487    0.1259    0.5574 C.3     1  LIG1        0.0000
     13 N           6.3779    0.1074    1.0350 N.ar    1  LIG1        0.0000
     14 O           2.2223    2.3918    1.1590 O.co2   1  LIG1       -0.5000
     15 O           2.8769    1.7819   -0.9416 O.co2   1  LIG1       -0.5000
     16 O           5.7727   -5.3079    1.6406 O.3     1  LIG1        0.0000
     17 H           8.5204   -1.7738    0.8420 H       1  LIG1        0.0000
     18 H           8.0979   -4.2037    1.1408 H       1  LIG1        0.0000
     19 H           3.9072   -3.4596    1.7897 H       1  LIG1        0.0000
     20 H           4.8618    1.6014    1.1577 H       1  LIG1        0.0000
     21 H           6.6018   -7.2000    1.6723 H       1  LIG1        0.0000
     22 H           7.6551   -5.8810    2.2712 H       1  LIG1        0.0000
     23 H           7.3362   -6.0501    0.5247 H       1  LIG1        0.0000
     24 H           2.4562   -1.5489    1.8610 H       1  LIG1        0.0000
     25 H           2.6150    0.0098    2.6398 H       1  LIG1        0.0000
     26 H           0.9797    0.1106    0.8063 H       1  LIG1        0.0000
     27 H           2.1705   -0.4714   -0.3555 H       1  LIG1        0.0000
     28 H           7.1723    0.7022    0.8439 H       1  LIG1        0.0000
@<TRIPOS>BOND
     1     1     2   ar
     2     1     7   ar
     3     2     8   ar
     4     3     5   ar
     5     3     8   ar
     6     4     6   ar
     7     4    13   ar
     8     5     6   ar
     9     5     7   ar
    10     6    11    1
    11     7    13   ar
    12     8    16    1
    13     9    12    1
    14     9    14   ar
    15     9    15   ar
    16    10    16    1
    17    11    12    1
    18     1    17    1
    19     2    18    1
    20     3    19    1
    21     4    20    1
    22    10    21    1
    23    10    22    1
    24    10    23    1
    25    11    24    1
    26    11    25    1
    27    12    26    1
    28    12    27    1
    29    13    28    1
