@<TRIPOS>MOLECULE
DB07529
 22 23 0 0 0
SMALL
USER_CHARGES

@<TRIPOS>ATOM
      1 C           7.5632   -3.0493    1.6974 C.ar    1  LIG1        0.0000
      2 C           6.7276   -4.1306    1.4547 C.ar    1  LIG1        0.0000
      3 C           7.0388   -1.7729    1.5964 C.ar    1  LIG1        0.0000
      4 C           5.4029   -3.9057    1.1209 C.ar    1  LIG1        0.0000
      5 C           5.6919   -1.6178    1.2550 C.ar    1  LIG1        0.0000
      6 C           3.8132   -0.1127    0.8121 C.2     1  LIG1        0.0000
      7 C           3.0293    1.1315    0.6436 C.2     1  LIG1        0.0000
      8 C           1.2043   -0.2581    0.1416 C.2     1  LIG1        0.0000
      9 C           5.1177   -0.2685    1.1431 C.2     1  LIG1        0.0000
     10 N           4.9261   -2.6825    1.0302 N.ar    1  LIG1        0.0000
     11 N           1.7572    0.9957    0.3091 N.am    1  LIG1        0.0000
     12 N          -0.0215   -0.5668   -0.1781 N.2     1  LIG1        0.0000
     13 O           3.5342    2.2276    0.7956 O.2     1  LIG1        0.0000
     14 S           2.5746   -1.3544    0.4695 S.3     1  LIG1        0.0000
     15 H           8.5999   -3.2009    1.9590 H       1  LIG1        0.0000
     16 H           7.1078   -5.1390    1.5254 H       1  LIG1        0.0000
     17 H           7.6597   -0.9092    1.7829 H       1  LIG1        0.0000
     18 H           4.7515   -4.7462    0.9318 H       1  LIG1        0.0000
     19 H           5.7360    0.5983    1.3248 H       1  LIG1        0.0000
     20 H           1.2063    1.7844    0.1842 H       1  LIG1        0.0000
     21 H          -0.2807   -1.4975   -0.2637 H       1  LIG1        0.0000
     22 H          -0.6743    0.1345   -0.3302 H       1  LIG1        0.0000
@<TRIPOS>BOND
     1     1     2   ar
     2     1     3   ar
     3     2     4   ar
     4     3     5   ar
     5     4    10   ar
     6     5     9    1
     7     5    10   ar
     8     6     7    1
     9     6     9    2
    10     6    14    1
    11     7    11   am
    12     7    13    2
    13     8    11    1
    14     8    12    2
    15     8    14    1
    16     1    15    1
    17     2    16    1
    18     3    17    1
    19     4    18    1
    20     9    19    1
    21    11    20    1
    22    12    21    1
    23    12    22    1
