@<TRIPOS>MOLECULE
DB07292
 21 22 0 0 0
SMALL
USER_CHARGES

@<TRIPOS>ATOM
      1 C           5.0875   -2.9593    1.0605 C.ar    1  LIG1       -0.0502
      2 C           6.8379   -1.3742    1.5558 C.ar    1  LIG1       -0.0502
      3 C           5.9745   -3.9963    1.2611 C.ar    1  LIG1       -0.0314
      4 C           7.7185   -2.4159    1.7607 C.ar    1  LIG1       -0.0314
      5 C           4.9775    0.7715    1.1284 C.ar    1  LIG1        0.0051
      6 C           5.5148   -1.6404    1.2069 C.ar    1  LIG1        0.0009
      7 C           7.2913   -3.7278    1.6085 C.ar    1  LIG1        0.0713
      8 C           4.5636   -0.5229    0.9915 C.ar    1  LIG1        0.0798
      9 C           2.4382    0.2122    0.4673 C.ar    1  LIG1        0.1548
     10 N           3.2993   -0.7708    0.6572 N.ar    1  LIG1       -0.2259
     11 N           1.0975    0.1485    0.1242 N.pl3   1  LIG1       -0.3375
     12 O           8.1629   -4.7519    1.8055 O.3     1  LIG1       -0.3609
     13 S           3.4620    1.6469    0.7632 S.2     1  LIG1       -0.0605
     14 H           4.0631   -3.1688    0.7899 H       1  LIG1        0.0630
     15 H           7.1720   -0.3535    1.6698 H       1  LIG1        0.0630
     16 H           5.6442   -5.0182    1.1475 H       1  LIG1        0.0650
     17 H           8.7436   -2.2103    2.0313 H       1  LIG1        0.0650
     18 H           5.9517    1.1593    1.3867 H       1  LIG1        0.0725
     19 H           0.5858    0.9650    0.0135 H       1  LIG1        0.1447
     20 H           0.6705   -0.7128   -0.0054 H       1  LIG1        0.1447
     21 H           8.1077   -4.9899    2.7412 H       1  LIG1        0.2182
@<TRIPOS>BOND
     1     1     3   ar
     2     1     6   ar
     3     2     4   ar
     4     2     6   ar
     5     3     7   ar
     6     4     7   ar
     7     5     8   ar
     8     5    13   ar
     9     6     8    1
    10     7    12    1
    11     8    10   ar
    12     9    10   ar
    13     9    11    1
    14     9    13   ar
    15     1    14    1
    16     2    15    1
    17     3    16    1
    18     4    17    1
    19     5    18    1
    20    11    19    1
    21    11    20    1
    22    12    21    1
