@<TRIPOS>MOLECULE
DB07506
 25 25 0 0 0
SMALL
USER_CHARGES

@<TRIPOS>ATOM
      1 C           7.3668   -3.2410    1.0866 C.ar    1  LIG1        0.0000
      2 C           6.1916   -3.6262    0.4417 C.ar    1  LIG1        0.0000
      3 C           7.3708   -2.1219    1.9192 C.ar    1  LIG1        0.0000
      4 C           5.0203   -2.8923    0.6292 C.ar    1  LIG1        0.0000
      5 C           6.1996   -1.3880    2.1068 C.ar    1  LIG1        0.0000
      6 C           5.0243   -1.7731    1.4618 C.ar    1  LIG1        0.0000
      7 C           1.8690    1.8098   -0.3956 C.2     1  LIG1        0.0000
      8 C           4.4572    1.3745    1.0358 C.2     1  LIG1        0.0000
      9 C           3.7563   -0.9776    1.6651 C.3     1  LIG1        0.0000
     10 C           2.1459    0.6457    0.5645 C.3     1  LIG1        0.0000
     11 C           3.5964    0.1559    0.6389 C.3     1  LIG1        0.0000
     12 O           0.9533    2.6108   -0.0617 O.co2   1  LIG1       -0.5000
     13 O           4.2072    1.8901    2.1617 O.co2   1  LIG1       -0.5000
     14 O           2.6164    1.8277   -1.4162 O.co2   1  LIG1       -0.5000
     15 O           5.3190    1.7103    0.1730 O.co2   1  LIG1       -0.5000
     16 H           8.2784   -3.8134    0.9416 H       1  LIG1        0.0000
     17 H           6.1880   -4.4983   -0.2059 H       1  LIG1        0.0000
     18 H           8.2854   -1.8223    2.4224 H       1  LIG1        0.0000
     19 H           4.1094   -3.1997    0.1224 H       1  LIG1        0.0000
     20 H           6.2121   -0.5174    2.7572 H       1  LIG1        0.0000
     21 H           2.8917   -1.6537    1.6404 H       1  LIG1        0.0000
     22 H           3.7755   -0.5700    2.6840 H       1  LIG1        0.0000
     23 H           1.4947   -0.1773    0.2400 H       1  LIG1        0.0000
     24 H           1.7990    0.9407    1.5640 H       1  LIG1        0.0000
     25 H           3.9183   -0.1886   -0.3526 H       1  LIG1        0.0000
@<TRIPOS>BOND
     1     1     2   ar
     2     1     3   ar
     3     2     4   ar
     4     3     5   ar
     5     4     6   ar
     6     5     6   ar
     7     6     9    1
     8     7    10    1
     9     7    12   ar
    10     7    14   ar
    11     8    11    1
    12     8    13   ar
    13     8    15   ar
    14     9    11    1
    15    10    11    1
    16     1    16    1
    17     2    17    1
    18     3    18    1
    19     4    19    1
    20     5    20    1
    21     9    21    1
    22     9    22    1
    23    10    23    1
    24    10    24    1
    25    11    25    1
