@<TRIPOS>MOLECULE
DB07524
 27 29 0 0 0
SMALL
USER_CHARGES

@<TRIPOS>ATOM
      1 C           0.4561    1.9692   -1.2275 C.ar    1  LIG1       -0.0621
      2 C          -0.0187    1.3633   -0.0644 C.ar    1  LIG1       -0.0604
      3 C           1.8180    1.9323   -1.5272 C.ar    1  LIG1       -0.0604
      4 C           5.7554   -3.7673    1.3958 C.ar    1  LIG1       -0.0430
      5 C           4.7557   -2.7962    1.3959 C.ar    1  LIG1       -0.0480
      6 C           0.8683    0.7202    0.7991 C.ar    1  LIG1       -0.0408
      7 C           2.7049    1.2893   -0.6637 C.ar    1  LIG1       -0.0408
      8 C           7.0825   -3.3595    1.3962 C.ar    1  LIG1        0.0291
      9 C           5.4525    0.7891    1.3969 C.ar    1  LIG1        0.0164
     10 C           5.1506   -1.4486    1.3962 C.ar    1  LIG1        0.0376
     11 C           2.2301    0.6833    0.4995 C.ar    1  LIG1        0.0303
     12 C           4.4862   -0.1937    1.3964 C.ar    1  LIG1        0.0553
     13 C           6.5165   -1.1816    1.3965 C.ar    1  LIG1        0.1304
     14 N           7.5204   -2.0789    1.3963 N.ar    1  LIG1       -0.2406
     15 N           6.6800    0.1787    1.3965 N.ar    1  LIG1       -0.3036
     16 N           3.1523    0.0149    1.3967 N.pl3   1  LIG1       -0.3133
     17 H          -0.2345    2.4701   -1.8997 H       1  LIG1        0.0622
     18 H          -1.0788    1.3922    0.1689 H       1  LIG1        0.0623
     19 H           2.1876    2.4043   -2.4330 H       1  LIG1        0.0623
     20 H           5.5005   -4.8217    1.3967 H       1  LIG1        0.0639
     21 H           3.7089   -3.0824    1.3956 H       1  LIG1        0.0631
     22 H           0.4882    0.2513    1.7029 H       1  LIG1        0.0642
     23 H           3.7640    1.2666   -0.9077 H       1  LIG1        0.0642
     24 H           7.8749   -4.1034    1.3971 H       1  LIG1        0.0840
     25 H           5.3795    1.8681    1.3971 H       1  LIG1        0.0810
     26 H           7.5695    0.6581    1.3966 H       1  LIG1        0.1538
     27 H           2.6189   -0.3731    2.2026 H       1  LIG1        0.1528
@<TRIPOS>BOND
     1     1     2   ar
     2     1     3   ar
     3     2     6   ar
     4     3     7   ar
     5     4     5   ar
     6     4     8   ar
     7     5    10   ar
     8     6    11   ar
     9     7    11   ar
    10     8    14   ar
    11     9    12   ar
    12     9    15   ar
    13    10    12   ar
    14    10    13   ar
    15    11    16    1
    16    12    16    1
    17    13    14   ar
    18    13    15   ar
    19     1    17    1
    20     2    18    1
    21     3    19    1
    22     4    20    1
    23     5    21    1
    24     6    22    1
    25     7    23    1
    26     8    24    1
    27     9    25    1
    28    15    26    1
    29    16    27    1
