@<TRIPOS>MOLECULE
DB07301
 22 24 0 0 0
SMALL
USER_CHARGES

@<TRIPOS>ATOM
      1 C           2.4530    0.7751    1.3875 C.ar    1  LIG1       -0.0615
      2 C           6.1435   -4.0424    1.3934 C.ar    1  LIG1       -0.0615
      3 C           3.2673    1.8968    1.3920 C.ar    1  LIG1       -0.0603
      4 C           7.4385   -3.5482    1.3994 C.ar    1  LIG1       -0.0603
      5 C           3.0089   -0.4863    1.3877 C.ar    1  LIG1       -0.0524
      6 C           5.0704   -3.1772    1.3910 C.ar    1  LIG1       -0.0524
      7 C           4.6396    1.7670    1.3966 C.ar    1  LIG1       -0.0402
      8 C           7.6705   -2.1893    1.4029 C.ar    1  LIG1       -0.0402
      9 C           4.3939   -0.6317    1.3928 C.ar    1  LIG1        0.0049
     10 C           5.2905   -1.8022    1.3944 C.ar    1  LIG1        0.0049
     11 C           5.2198    0.5025    1.3974 C.ar    1  LIG1        0.0383
     12 C           6.6006   -1.3000    1.4005 C.ar    1  LIG1        0.0383
     13 N           6.5379    0.0820    1.3965 N.ar    1  LIG1       -0.3139
     14 H           1.3790    0.8898    1.3842 H       1  LIG1        0.0623
     15 H           5.9747   -5.1092    1.3910 H       1  LIG1        0.0623
     16 H           2.8227    2.8810    1.3921 H       1  LIG1        0.0623
     17 H           8.2731   -4.2337    1.4016 H       1  LIG1        0.0623
     18 H           2.3726   -1.3589    1.3845 H       1  LIG1        0.0630
     19 H           4.0622   -3.5644    1.3866 H       1  LIG1        0.0630
     20 H           5.2650    2.6477    1.4001 H       1  LIG1        0.0642
     21 H           8.6836   -1.8149    1.4079 H       1  LIG1        0.0642
     22 H           7.3079    0.6719    1.3950 H       1  LIG1        0.1528
@<TRIPOS>BOND
     1     1     3   ar
     2     1     5   ar
     3     2     4   ar
     4     2     6   ar
     5     3     7   ar
     6     4     8   ar
     7     5     9   ar
     8     6    10   ar
     9     7    11   ar
    10     8    12   ar
    11     9    10   ar
    12     9    11   ar
    13    10    12   ar
    14    11    13   ar
    15    12    13   ar
    16     1    14    1
    17     2    15    1
    18     3    16    1
    19     4    17    1
    20     5    18    1
    21     6    19    1
    22     7    20    1
    23     8    21    1
    24    13    22    1
