@<TRIPOS>MOLECULE
DB07661
 20 21 0 0 0
SMALL
USER_CHARGES

@<TRIPOS>ATOM
      1 C           6.1532   -4.0766    1.1312 C.ar    1  LIG1       -0.0590
      2 C           5.2002   -3.1088    0.8123 C.ar    1  LIG1       -0.0541
      3 C           6.8345   -0.0324    2.0949 C.ar    1  LIG1       -0.0492
      4 C           7.3336   -3.7082    1.7697 C.ar    1  LIG1       -0.0314
      5 C           5.8815    0.9353    1.7758 C.ar    1  LIG1       -0.0313
      6 C           4.4689   -0.7705    0.8153 C.ar    1  LIG1       -0.0241
      7 C           5.4171   -1.7578    1.1289 C.ar    1  LIG1       -0.0132
      8 C           6.6175   -1.3833    1.7782 C.ar    1  LIG1        0.0119
      9 C           4.7010    0.5671    1.1373 C.ar    1  LIG1        0.0719
     10 C           7.5657   -2.3708    2.0917 C.ar    1  LIG1        0.0791
     11 O           3.7719    1.5122    0.8266 O.3     1  LIG1       -0.3609
     12 O           8.7385   -2.0574    2.7178 O.3     1  LIG1       -0.3602
     13 H           5.9730   -5.1180    0.8807 H       1  LIG1        0.0624
     14 H           4.2847   -3.4196    0.3132 H       1  LIG1        0.0629
     15 H           7.7460    0.2892    2.5937 H       1  LIG1        0.0631
     16 H           8.0707   -4.4684    2.0146 H       1  LIG1        0.0650
     17 H           6.0672    1.9757    2.0289 H       1  LIG1        0.0650
     18 H           3.5406   -1.0421    0.3159 H       1  LIG1        0.0657
     19 H           3.0095    1.1027    0.3876 H       1  LIG1        0.2182
     20 H           9.2664   -2.8585    2.8533 H       1  LIG1        0.2182
@<TRIPOS>BOND
     1     1     2   ar
     2     1     4   ar
     3     2     7   ar
     4     3     5   ar
     5     3     8   ar
     6     4    10   ar
     7     5     9   ar
     8     6     7   ar
     9     6     9   ar
    10     7     8   ar
    11     8    10   ar
    12     9    11    1
    13    10    12    1
    14     1    13    1
    15     2    14    1
    16     3    15    1
    17     4    16    1
    18     5    17    1
    19     6    18    1
    20    11    19    1
    21    12    20    1
