@<TRIPOS>MOLECULE
DB07910
 26 26 0 0 0
SMALL
USER_CHARGES

@<TRIPOS>ATOM
      1 CZ          7.1539   -3.4401    1.2516 C.ar    1  PHE1       -0.0622
      2 CE1         5.9173   -3.7929    0.7115 C.ar    1  PHE1       -0.0620
      3 CE2         7.3192   -2.1969    1.8620 C.ar    1  PHE1       -0.0620
      4 CD1         4.8459   -2.9025    0.7817 C.ar    1  PHE1       -0.0591
      5 CD2         6.2479   -1.3064    1.9322 C.ar    1  PHE1       -0.0591
      6 CG          5.0112   -1.6592    1.3921 C.ar    1  PHE1       -0.0494
      7 CB          3.8527   -0.6953    1.4681 C.3     1  PHE1       -0.0360
      8 CA          3.7715    0.2476    0.2591 C.3     1  PHE1       -0.0278
      9 C           2.4370    0.9938    0.1202 C.3     1  PHE1        0.1388
     10 N           4.8637    1.2621    0.4137 N.4     1  PHE1        0.3849
     11 O           1.3831    0.0413    0.0279 O.3     1  PHE1       -0.3698
     12 OXT         2.4663    1.8414   -1.0203 O.3     1  PHE1       -0.3698
     13 HZ          7.9876   -4.1341    1.1980 H       1  PHE1        0.0622
     14 HE1         5.7880   -4.7615    0.2371 H       1  PHE1        0.0623
     15 HE2         8.2817   -1.9223    2.2836 H       1  PHE1        0.0623
     16 HD1         3.8861   -3.1859    0.3580 H       1  PHE1        0.0625
     17 HD2         6.3860   -0.3398    2.4095 H       1  PHE1        0.0625
     18 HB1         2.9129   -1.2501    1.5887 H       1  PHE1        0.0301
     19 HB2         3.9645   -0.1108    2.3917 H       1  PHE1        0.0301
     20 HA          4.0048   -0.2788   -0.6736 H       1  PHE1        0.0140
     21 H           2.2640    1.6067    1.0121 H       1  PHE1        0.0899
     22 H1          5.3612    1.1127    1.2918 H       1  PHE1       -0.0896
     23 H2          4.4708    2.2039    0.4151 H       1  PHE1       -0.0896
     24 H3          5.5277    1.1844   -0.3573 H       1  PHE1       -0.0896
     25 H           0.5533    0.5406   -0.0588 H       1  PHE1        0.2132
     26 HXT         1.6049    2.2897   -1.0658 H       1  PHE1        0.2132
@<TRIPOS>BOND
     1     1     2   ar
     2     1     3   ar
     3     2     4   ar
     4     3     5   ar
     5     4     6   ar
     6     5     6   ar
     7     6     7    1
     8     7     8    1
     9     8     9    1
    10     8    10    1
    11     9    11    1
    12     9    12    1
    13     1    13    1
    14     2    14    1
    15     3    15    1
    16     4    16    1
    17     5    17    1
    18     7    18    1
    19     7    19    1
    20     8    20    1
    21     9    21    1
    22    10    22    1
    23    10    23    1
    24    10    24    1
    25    11    25    1
    26    12    26    1
