@<TRIPOS>MOLECULE
DB07634
 24 24 0 0 0
SMALL
USER_CHARGES

@<TRIPOS>ATOM
      1 C           6.8031   -3.8714    1.3714 C.ar    1  LIG1        0.0000
      2 C           5.4957   -3.7618    1.8076 C.ar    1  LIG1        0.0000
      3 C           7.4738   -2.7567    0.9032 C.ar    1  LIG1        0.0000
      4 C           4.8562   -2.5377    1.7767 C.ar    1  LIG1        0.0000
      5 C           6.8367   -1.5314    0.8645 C.ar    1  LIG1        0.0000
      6 C           5.5268   -1.4178    1.3070 C.ar    1  LIG1        0.0000
      7 C           3.5413    1.2075   -0.0985 C.2     1  LIG1        0.0000
      8 C           3.4315   -2.4189    2.2533 C.3     1  LIG1        0.0000
      9 C           7.5683   -0.3168    0.3540 C.3     1  LIG1        0.0000
     10 C           4.2590   -0.1138    0.0017 C.3     1  LIG1        0.0000
     11 O           2.9224    1.4899   -1.1103 O.co2   1  LIG1       -0.5000
     12 O           3.5753    1.9920    0.8343 O.co2   1  LIG1       -0.5000
     13 O           4.8997   -0.2125    1.2751 O.3     1  LIG1        0.0000
     14 H           7.3014   -4.8292    1.3966 H       1  LIG1        0.0000
     15 H           4.9740   -4.6340    2.1733 H       1  LIG1        0.0000
     16 H           8.4951   -2.8446    0.5633 H       1  LIG1        0.0000
     17 H           2.7533   -2.5888    1.4171 H       1  LIG1        0.0000
     18 H           3.2448   -3.1614    3.0292 H       1  LIG1        0.0000
     19 H           3.2660   -1.4206    2.6584 H       1  LIG1        0.0000
     20 H           7.4150   -0.2255   -0.7212 H       1  LIG1        0.0000
     21 H           7.1858    0.5739    0.8525 H       1  LIG1        0.0000
     22 H           8.6334   -0.4203    0.5617 H       1  LIG1        0.0000
     23 H           3.5410   -0.9266   -0.1078 H       1  LIG1        0.0000
     24 H           5.0074   -0.1815   -0.7878 H       1  LIG1        0.0000
@<TRIPOS>BOND
     1     1     2   ar
     2     1     3   ar
     3     2     4   ar
     4     3     5   ar
     5     4     6   ar
     6     4     8    1
     7     5     6   ar
     8     5     9    1
     9     6    13    1
    10     7    10    1
    11     7    11   ar
    12     7    12   ar
    13    10    13    1
    14     1    14    1
    15     2    15    1
    16     3    16    1
    17     8    17    1
    18     8    18    1
    19     8    19    1
    20     9    20    1
    21     9    21    1
    22     9    22    1
    23    10    23    1
    24    10    24    1
