@<TRIPOS>MOLECULE
DB07479
 37 40 0 0 0
SMALL
USER_CHARGES

@<TRIPOS>ATOM
      1 C           5.0992   -5.7228   -0.1667 C.ar    1  LIG1       -0.0616
      2 C           4.0639   -4.8701   -0.4916 C.ar    1  LIG1       -0.0616
      3 C           6.1922   -5.2166    0.5193 C.ar    1  LIG1       -0.0543
      4 C           4.1190   -3.5220   -0.1113 C.ar    1  LIG1       -0.0537
      5 C           7.4044   -3.4350    1.5452 C.ar    1  LIG1       -0.0537
      6 C           7.5508   -2.1111    1.9167 C.ar    1  LIG1       -0.0537
      7 C           6.8096    0.1284    2.1055 C.ar    1  LIG1       -0.0540
      8 C           5.8830    1.1416    1.9423 C.ar    1  LIG1       -0.0554
      9 C           6.2539   -3.8629    0.8974 C.ar    1  LIG1       -0.0177
     10 C           6.5399   -1.1778    1.6893 C.ar    1  LIG1       -0.0174
     11 C           5.1947   -2.9477    0.6226 C.ar    1  LIG1       -0.0102
     12 C           5.3042   -1.5414    1.0749 C.ar    1  LIG1       -0.0068
     13 C           4.6388    0.8732    1.3766 C.ar    1  LIG1       -0.0129
     14 C           4.3194   -0.4619    0.9907 C.ar    1  LIG1       -0.0310
     15 C           2.9054   -0.7264    0.4978 C.3     1  LIG1        0.0020
     16 C           3.6497    2.0235    1.2848 C.3     1  LIG1        0.1077
     17 C           1.8811    0.3764    0.7739 C.3     1  LIG1        0.0869
     18 C           2.4453    1.7345    0.3935 C.3     1  LIG1        0.1102
     19 O           4.2931    3.2103    0.8219 O.3     1  LIG1       -0.3855
     20 O           0.7066    0.1054    0.0152 O.3     1  LIG1       -0.3899
     21 O           2.8508    1.7403   -0.9767 O.3     1  LIG1       -0.3873
     22 H           5.0662   -6.7681   -0.4563 H       1  LIG1        0.0623
     23 H           3.2075   -5.2395   -1.0483 H       1  LIG1        0.0623
     24 H           7.0112   -5.8958    0.7519 H       1  LIG1        0.0629
     25 H           3.2766   -2.9344   -0.4476 H       1  LIG1        0.0629
     26 H           8.2212   -4.1231    1.7552 H       1  LIG1        0.0629
     27 H           8.4824   -1.8203    2.4006 H       1  LIG1        0.0629
     28 H           7.7625    0.3821    2.5688 H       1  LIG1        0.0629
     29 H           6.1375    2.1421    2.2833 H       1  LIG1        0.0627
     30 H           2.9438   -0.9003   -0.5844 H       1  LIG1        0.0344
     31 H           2.5137   -1.6259    0.9861 H       1  LIG1        0.0344
     32 H           3.2967    2.2178    2.3063 H       1  LIG1        0.0681
     33 H           1.6002    0.3679    1.8343 H       1  LIG1        0.0632
     34 H           1.6939    2.5261    0.4947 H       1  LIG1        0.0659
     35 H           3.6100    3.8970    0.7876 H       1  LIG1        0.2110
     36 H           0.3804   -0.7597    0.3088 H       1  LIG1        0.2106
     37 H           2.0553    1.5533   -1.4970 H       1  LIG1        0.2107
@<TRIPOS>BOND
     1     1     2   ar
     2     1     3   ar
     3     2     4   ar
     4     3     9   ar
     5     4    11   ar
     6     5     6   ar
     7     5     9   ar
     8     6    10   ar
     9     7     8   ar
    10     7    10   ar
    11     8    13   ar
    12     9    11   ar
    13    10    12   ar
    14    11    12   ar
    15    12    14   ar
    16    13    14   ar
    17    13    16    1
    18    14    15    1
    19    15    17    1
    20    16    18    1
    21    16    19    1
    22    17    18    1
    23    17    20    1
    24    18    21    1
    25     1    22    1
    26     2    23    1
    27     3    24    1
    28     4    25    1
    29     5    26    1
    30     6    27    1
    31     7    28    1
    32     8    29    1
    33    15    30    1
    34    15    31    1
    35    16    32    1
    36    17    33    1
    37    18    34    1
    38    19    35    1
    39    20    36    1
    40    21    37    1
