@<TRIPOS>MOLECULE
DB07597
 26 27 0 0 0
SMALL
USER_CHARGES

@<TRIPOS>ATOM
      1 C           7.1156   -1.2758    1.6410 C.ar    1  LIG1       -0.0619
      2 C           6.8284   -0.0010    2.0915 C.ar    1  LIG1       -0.0619
      3 C           6.1357   -2.0180    1.0144 C.ar    1  LIG1       -0.0587
      4 C           5.5630    0.5196    1.9135 C.ar    1  LIG1       -0.0562
      5 C           4.8620   -1.4953    0.8333 C.ar    1  LIG1       -0.0423
      6 C           4.5747   -0.2268    1.2855 C.ar    1  LIG1       -0.0180
      7 C           3.8419   -2.3587    0.1380 C.3     1  LIG1       -0.0289
      8 C           2.4300   -1.8394    0.4019 C.3     1  LIG1       -0.0594
      9 C           3.2135    0.3999    1.1317 C.3     1  LIG1        0.0667
     10 C           2.3969   -0.3417    0.0754 C.3     1  LIG1       -0.0526
     11 N           1.0088    0.1386    0.0960 N.4     1  LIG1        0.3833
     12 O           3.3652    1.7650    0.7374 O.3     1  LIG1       -0.3901
     13 H           8.1037   -1.6893    1.7788 H       1  LIG1        0.0623
     14 H           7.5917    0.5856    2.5808 H       1  LIG1        0.0623
     15 H           6.3610   -3.0140    0.6626 H       1  LIG1        0.0625
     16 H           5.3396    1.5160    2.2652 H       1  LIG1        0.0626
     17 H           3.9241   -3.3806    0.5079 H       1  LIG1        0.0315
     18 H           4.0340   -2.3487   -0.9349 H       1  LIG1        0.0315
     19 H           2.1723   -1.9925    1.4498 H       1  LIG1        0.0254
     20 H           1.7195   -2.3693   -0.2326 H       1  LIG1        0.0254
     21 H           2.6888    0.3583    2.0861 H       1  LIG1        0.0634
     22 H           2.8303   -0.1712   -0.9102 H       1  LIG1        0.0115
     23 H           0.9922    1.1278   -0.1019 H       1  LIG1       -0.0897
     24 H           0.4722   -0.3533   -0.6028 H       1  LIG1       -0.0897
     25 H           0.6084   -0.0289    1.0069 H       1  LIG1       -0.0897
     26 H           3.8697    2.2035    1.4362 H       1  LIG1        0.2108
@<TRIPOS>BOND
     1     1     2   ar
     2     1     3   ar
     3     2     4   ar
     4     3     5   ar
     5     4     6   ar
     6     5     6   ar
     7     5     7    1
     8     6     9    1
     9     7     8    1
    10     8    10    1
    11     9    10    1
    12     9    12    1
    13    10    11    1
    14     1    13    1
    15     2    14    1
    16     3    15    1
    17     4    16    1
    18     7    17    1
    19     7    18    1
    20     8    19    1
    21     8    20    1
    22     9    21    1
    23    10    22    1
    24    11    23    1
    25    11    24    1
    26    11    25    1
    27    12    26    1
