@<TRIPOS>MOLECULE
DB07919
 28 30 0 0 0
SMALL
USER_CHARGES

@<TRIPOS>ATOM
      1 C           5.0704   -3.1917    1.1467 C.ar    1  LIG1       -0.0498
      2 C           6.0864   -4.0956    1.3622 C.ar    1  LIG1       -0.0311
      3 C           3.1556   -0.3985    0.7382 C.ar    1  LIG1       -0.0340
      4 C           7.6584   -2.2940    1.6476 C.ar    1  LIG1       -0.0098
      5 C           2.7082    0.9018    0.6382 C.ar    1  LIG1        0.0279
      6 C           5.3379   -1.8242    1.1812 C.ar    1  LIG1        0.0052
      7 C           4.5055   -0.6241    1.0063 C.ar    1  LIG1        0.0083
      8 C           6.6421   -1.3690    1.4356 C.ar    1  LIG1        0.0409
      9 C           5.3591    0.4823    1.1589 C.ar    1  LIG1        0.0599
     10 C           7.3795   -3.6484    1.6150 C.ar    1  LIG1        0.0765
     11 C           4.8181    1.7572    1.0464 C.ar    1  LIG1        0.0592
     12 C           5.7068    2.9633    1.2105 C.3     1  LIG1       -0.0203
     13 C           7.7872   -5.8465    1.7281 C.3     1  LIG1        0.0422
     14 N           3.5360    1.9203    0.7923 N.ar    1  LIG1       -0.2595
     15 N           6.6343    0.0142    1.4155 N.ar    1  LIG1       -0.3123
     16 O           8.3754   -4.5480    1.8274 O.3     1  LIG1       -0.3492
     17 H           4.0676   -3.5418    0.9514 H       1  LIG1        0.0631
     18 H           5.8789   -5.1551    1.3354 H       1  LIG1        0.0650
     19 H           2.4737   -1.2264    0.6118 H       1  LIG1        0.0646
     20 H           8.6648   -1.9546    1.8441 H       1  LIG1        0.0670
     21 H           1.6653    1.0908    0.4310 H       1  LIG1        0.0840
     22 H           6.1159    3.2477    0.2410 H       1  LIG1        0.0296
     23 H           5.1250    3.7909    1.6162 H       1  LIG1        0.0296
     24 H           6.5224    2.7235    1.8928 H       1  LIG1        0.0296
     25 H           7.0055   -5.9498    2.4806 H       1  LIG1        0.0535
     26 H           7.3553   -5.9747    0.7355 H       1  LIG1        0.0535
     27 H           8.5522   -6.6054    1.8922 H       1  LIG1        0.0535
     28 H           7.4123    0.5753    1.5601 H       1  LIG1        0.1529
@<TRIPOS>BOND
     1     1     2   ar
     2     1     6   ar
     3     2    10   ar
     4     3     5   ar
     5     3     7   ar
     6     4     8   ar
     7     4    10   ar
     8     5    14   ar
     9     6     7   ar
    10     6     8   ar
    11     7     9   ar
    12     8    15   ar
    13     9    11   ar
    14     9    15   ar
    15    10    16    1
    16    11    12    1
    17    11    14   ar
    18    13    16    1
    19     1    17    1
    20     2    18    1
    21     3    19    1
    22     4    20    1
    23     5    21    1
    24    12    22    1
    25    12    23    1
    26    12    24    1
    27    13    25    1
    28    13    26    1
    29    13    27    1
    30    15    28    1
