@<TRIPOS>MOLECULE
DB07718
 20 20 0 0 0
SMALL
USER_CHARGES

@<TRIPOS>ATOM
      1 C           4.9867   -2.6074    1.7214 C.ar    1  LIG1        0.0000
      2 C           6.9395   -1.5546    0.8157 C.ar    1  LIG1        0.0000
      3 C           5.6061   -3.8391    1.6322 C.ar    1  LIG1        0.0000
      4 C           7.5651   -2.7833    0.7294 C.ar    1  LIG1        0.0000
      5 C           5.6537   -1.4660    1.3165 C.ar    1  LIG1        0.0000
      6 C           6.8981   -3.9300    1.1354 C.ar    1  LIG1        0.0000
      7 C           4.2278    0.1567    0.1376 C.2     1  LIG1        0.0000
      8 C           3.4722    1.4353   -0.0202 C.2     1  LIG1        0.0000
      9 C           4.9759   -0.1236    1.4154 C.3     1  LIG1        0.0000
     10 O           3.4563    2.2508    0.8876 O.co2   1  LIG1       -0.5000
     11 O           4.2436   -0.6502   -0.7609 O.2     1  LIG1        0.0000
     12 O           2.8706    1.6646   -1.0571 O.co2   1  LIG1       -0.5000
     13 O           7.5097   -5.1404    1.0471 O.3     1  LIG1        0.0000
     14 H           3.9808   -2.5361    2.1081 H       1  LIG1        0.0000
     15 H           7.4581   -0.6617    0.4995 H       1  LIG1        0.0000
     16 H           5.0849   -4.7302    1.9492 H       1  LIG1        0.0000
     17 H           8.5711   -2.8515    0.3423 H       1  LIG1        0.0000
     18 H           5.7257    0.6512    1.5750 H       1  LIG1        0.0000
     19 H           4.2767   -0.1304    2.2516 H       1  LIG1        0.0000
     20 H           7.2990   -5.4969    0.1732 H       1  LIG1        0.0000
@<TRIPOS>BOND
     1     1     3   ar
     2     1     5   ar
     3     2     4   ar
     4     2     5   ar
     5     3     6   ar
     6     4     6   ar
     7     5     9    1
     8     6    13    1
     9     7     8    1
    10     7     9    1
    11     7    11    2
    12     8    10   ar
    13     8    12   ar
    14     1    14    1
    15     2    15    1
    16     3    16    1
    17     4    17    1
    18     9    18    1
    19     9    19    1
    20    13    20    1
