@<TRIPOS>MOLECULE
DB07992
 20 21 0 0 0
SMALL
USER_CHARGES

@<TRIPOS>ATOM
      1 C           5.8434   -3.8773    1.3960 C.ar    1  LIG1       -0.0614
      2 C           7.1907   -3.5220    1.3961 C.ar    1  LIG1       -0.0603
      3 C           4.8441   -2.8973    1.3961 C.ar    1  LIG1       -0.0503
      4 C           7.5823   -2.1802    1.3962 C.ar    1  LIG1       -0.0401
      5 C           5.4058    0.7145    1.3968 C.ar    1  LIG1        0.0266
      6 C           5.2147   -1.5379    1.3962 C.ar    1  LIG1        0.0297
      7 C           6.5725   -1.2113    1.3963 C.ar    1  LIG1        0.0400
      8 C           4.4906   -0.3128    1.3964 C.ar    1  LIG1        0.1252
      9 N           6.6588    0.1627    1.3965 N.ar    1  LIG1       -0.3181
     10 O           3.0060    0.7948   -0.8798 O.3     1  LIG1       -0.3958
     11 O           0.9923    0.6340    0.5048 O.2     1  LIG1       -0.4673
     12 O           2.0383   -1.4045   -0.4066 O.2     1  LIG1       -0.4673
     13 O           3.1605   -0.1428    1.3944 O.3     1  LIG1       -0.2352
     14 S           2.2134   -0.0225    0.0388 S.3     1  LIG1       -0.1117
     15 H           5.5632   -4.9273    1.3961 H       1  LIG1        0.0623
     16 H           7.9503   -4.2999    1.3957 H       1  LIG1        0.0623
     17 H           3.7978   -3.1890    1.3960 H       1  LIG1        0.0630
     18 H           8.6316   -1.9046    1.3958 H       1  LIG1        0.0642
     19 H           5.2790    1.7882    1.3957 H       1  LIG1        0.0818
     20 H           7.5226    0.6873    1.3929 H       1  LIG1        0.1523
@<TRIPOS>BOND
     1     1     2   ar
     2     1     3   ar
     3     2     4   ar
     4     3     6   ar
     5     4     7   ar
     6     5     8   ar
     7     5     9   ar
     8     6     7   ar
     9     6     8   ar
    10     7     9   ar
    11     8    13    1
    12    10    14    1
    13    11    14    2
    14    12    14    2
    15    13    14    1
    16     1    15    1
    17     2    16    1
    18     3    17    1
    19     4    18    1
    20     5    19    1
    21     9    20    1
