@<TRIPOS>MOLECULE
DB07610
 20 21 0 0 0
SMALL
USER_CHARGES

@<TRIPOS>ATOM
      1 C           7.1034   -3.7842    1.6462 C.ar    1  LIG1       -0.0616
      2 C           5.9029   -4.0904    1.0076 C.ar    1  LIG1       -0.0615
      3 C           7.4068   -2.5033    1.9912 C.ar    1  LIG1       -0.0543
      4 C           4.9984   -3.1172    0.7124 C.ar    1  LIG1       -0.0516
      5 C           6.7773   -0.1381    2.0485 C.ar    1  LIG1       -0.0516
      6 C           5.8787    0.8426    1.7589 C.ar    1  LIG1       -0.0287
      7 C           6.4970   -1.4708    1.7036 C.ar    1  LIG1       -0.0156
      8 C           5.2760   -1.7830    1.0546 C.ar    1  LIG1        0.0144
      9 C           4.6734    0.5473    1.1202 C.ar    1  LIG1        0.1019
     10 C           4.3608   -0.7514    0.7710 C.ar    1  LIG1        0.1092
     11 O           3.7951    1.5487    0.8437 O.3     1  LIG1       -0.3582
     12 O           3.1845   -1.0301    0.1492 O.3     1  LIG1       -0.3577
     13 H           7.8037   -4.5754    1.8698 H       1  LIG1        0.0623
     14 H           5.6870   -5.1152    0.7435 H       1  LIG1        0.0623
     15 H           8.3413   -2.2812    2.4851 H       1  LIG1        0.0629
     16 H           4.0718   -3.3691    0.2180 H       1  LIG1        0.0630
     17 H           7.7054    0.1083    2.5428 H       1  LIG1        0.0630
     18 H           6.1020    1.8646    2.0271 H       1  LIG1        0.0651
     19 H           3.2127    1.6294    1.6114 H       1  LIG1        0.2183
     20 H           2.5390   -1.2193    0.8440 H       1  LIG1        0.2184
@<TRIPOS>BOND
     1     1     2   ar
     2     1     3   ar
     3     2     4   ar
     4     3     7   ar
     5     4     8   ar
     6     5     6   ar
     7     5     7   ar
     8     6     9   ar
     9     7     8   ar
    10     8    10   ar
    11     9    10   ar
    12     9    11    1
    13    10    12    1
    14     1    13    1
    15     2    14    1
    16     3    15    1
    17     4    16    1
    18     5    17    1
    19     6    18    1
    20    11    19    1
    21    12    20    1
