@<TRIPOS>MOLECULE
DB07435
 39 43 0 0 0
SMALL
USER_CHARGES

@<TRIPOS>ATOM
      1 C           9.7215   -3.0467    1.3885 C.ar    1  LIG1       -0.0610
      2 C           8.5725   -3.8061    1.4957 C.ar    1  LIG1       -0.0543
      3 C           9.6704   -1.6789    1.1987 C.ar    1  LIG1       -0.0543
      4 C           6.1173   -3.9371    1.5171 C.ar    1  LIG1       -0.0537
      5 C           8.3410    0.3699    0.9153 C.ar    1  LIG1       -0.0537
      6 C           4.9133   -3.3258    1.4344 C.ar    1  LIG1       -0.0537
      7 C           7.1365    0.9793    0.8327 C.ar    1  LIG1       -0.0534
      8 C           3.5940   -1.2701    1.1538 C.ar    1  LIG1       -0.0481
      9 C           7.3186   -3.1950    1.4127 C.ar    1  LIG1       -0.0171
     10 C           8.4367   -1.0297    1.1104 C.ar    1  LIG1       -0.0171
     11 C           4.8204   -1.9261    1.2415 C.ar    1  LIG1       -0.0167
     12 C           5.9365    0.2332    0.9402 C.ar    1  LIG1       -0.0134
     13 C           7.2548   -1.7969    1.2191 C.ar    1  LIG1       -0.0027
     14 C           6.0038   -1.1620    1.1337 C.ar    1  LIG1       -0.0024
     15 C           3.5325    0.1060    0.9658 C.ar    1  LIG1       -0.0123
     16 C           4.6818    0.8571    0.8548 C.ar    1  LIG1       -0.0315
     17 C           4.6609    2.3480    0.6376 C.3     1  LIG1        0.0020
     18 C           2.1581    0.7241    0.9004 C.3     1  LIG1        0.1078
     19 C           3.2954    2.9270    1.0003 C.3     1  LIG1        0.0869
     20 C           2.2195    2.1135    0.2712 C.3     1  LIG1        0.1102
     21 O           1.3038   -0.1104    0.1159 O.3     1  LIG1       -0.3855
     22 O           3.2270    4.2939    0.5895 O.3     1  LIG1       -0.3899
     23 O           2.5568    2.0006   -1.1128 O.3     1  LIG1       -0.3873
     24 H          10.6831   -3.5338    1.4551 H       1  LIG1        0.0623
     25 H           8.6435   -4.8741    1.6393 H       1  LIG1        0.0629
     26 H          10.5855   -1.1110    1.1188 H       1  LIG1        0.0629
     27 H           6.1628   -5.0061    1.6648 H       1  LIG1        0.0629
     28 H           9.2425    0.9587    0.8317 H       1  LIG1        0.0629
     29 H           4.0109   -3.9134    1.5161 H       1  LIG1        0.0629
     30 H           7.0885    2.0479    0.6834 H       1  LIG1        0.0629
     31 H           2.6790   -1.8383    1.2333 H       1  LIG1        0.0633
     32 H           5.4249    2.8124    1.2610 H       1  LIG1        0.0344
     33 H           4.8746    2.5613   -0.4098 H       1  LIG1        0.0344
     34 H           1.7525    0.8045    1.9090 H       1  LIG1        0.0681
     35 H           3.1414    2.8582    2.0772 H       1  LIG1        0.0632
     36 H           1.2529    2.6066    0.3751 H       1  LIG1        0.0659
     37 H           1.2742   -0.9716    0.5548 H       1  LIG1        0.2110
     38 H           3.9194    4.7658    1.0720 H       1  LIG1        0.2106
     39 H           1.8637    1.4683   -1.5269 H       1  LIG1        0.2107
@<TRIPOS>BOND
     1     1     2   ar
     2     1     3   ar
     3     2     9   ar
     4     3    10   ar
     5     4     6   ar
     6     4     9   ar
     7     5     7   ar
     8     5    10   ar
     9     6    11   ar
    10     7    12   ar
    11     8    11   ar
    12     8    15   ar
    13     9    13   ar
    14    10    13   ar
    15    11    14   ar
    16    12    14   ar
    17    12    16   ar
    18    13    14   ar
    19    15    16   ar
    20    15    18    1
    21    16    17    1
    22    17    19    1
    23    18    20    1
    24    18    21    1
    25    19    20    1
    26    19    22    1
    27    20    23    1
    28     1    24    1
    29     2    25    1
    30     3    26    1
    31     4    27    1
    32     5    28    1
    33     6    29    1
    34     7    30    1
    35     8    31    1
    36    17    32    1
    37    17    33    1
    38    18    34    1
    39    19    35    1
    40    20    36    1
    41    21    37    1
    42    22    38    1
    43    23    39    1
