@<TRIPOS>MOLECULE
DB07950
 21 22 0 0 0
SMALL
USER_CHARGES

@<TRIPOS>ATOM
      1 C           6.0996   -4.0119    1.3960 C.ar    1  LIG1        0.0000
      2 C           7.4218   -3.5721    1.3961 C.ar    1  LIG1        0.0000
      3 C           5.0403   -3.0970    1.3961 C.ar    1  LIG1        0.0000
      4 C           7.7277   -2.2081    1.3962 C.ar    1  LIG1        0.0000
      5 C           5.3725    0.5431    1.3968 C.ar    1  LIG1        0.0000
      6 C           5.3243   -1.7169    1.3962 C.ar    1  LIG1        0.0000
      7 C           4.5241   -0.5401    1.3963 C.ar    1  LIG1        0.0000
      8 C           6.6587   -1.3051    1.3963 C.ar    1  LIG1        0.0000
      9 C           2.5194   -0.4567   -0.0412 C.2     1  LIG1        0.0000
     10 C           3.0483   -0.4798    1.3976 C.3     1  LIG1        0.0000
     11 N           6.6579    0.0716    1.3965 N.ar    1  LIG1        0.0000
     12 O           2.7788   -1.4864   -0.7260 O.co2   1  LIG1       -0.5000
     13 O           1.8875    0.5886   -0.3650 O.co2   1  LIG1       -0.5000
     14 H           5.8868   -5.0775    1.3954 H       1  LIG1        0.0000
     15 H           8.2290   -4.3000    1.3962 H       1  LIG1        0.0000
     16 H           4.0150   -3.4558    1.3951 H       1  LIG1        0.0000
     17 H           8.7573   -1.8667    1.3973 H       1  LIG1        0.0000
     18 H           5.1779    1.6068    1.3957 H       1  LIG1        0.0000
     19 H           2.6032   -1.3395    1.9331 H       1  LIG1        0.0000
     20 H           2.6754    0.4126    1.9347 H       1  LIG1        0.0000
     21 H           7.4867    0.6499    1.3965 H       1  LIG1        0.0000
@<TRIPOS>BOND
     1     1     2   ar
     2     1     3   ar
     3     2     4   ar
     4     3     6   ar
     5     4     8   ar
     6     5     7   ar
     7     5    11   ar
     8     6     7   ar
     9     6     8   ar
    10     7    10    1
    11     8    11   ar
    12     9    10    1
    13     9    12   ar
    14     9    13   ar
    15     1    14    1
    16     2    15    1
    17     3    16    1
    18     4    17    1
    19     5    18    1
    20    10    19    1
    21    10    20    1
    22    11    21    1
