@<TRIPOS>MOLECULE
DB07060
 25 26 0 0 0
SMALL
USER_CHARGES

@<TRIPOS>ATOM
      1 C           6.1442   -4.0350    1.3961 C.ar    1  LIG1        0.0000
      2 C           7.4474   -3.5413    1.3964 C.ar    1  LIG1        0.0000
      3 C           5.0484   -3.1643    1.3960 C.ar    1  LIG1        0.0000
      4 C           7.6970   -2.1659    1.3965 C.ar    1  LIG1        0.0000
      5 C           5.2309    0.4863    1.3966 C.ar    1  LIG1        0.0000
      6 C           5.2754   -1.7737    1.3962 C.ar    1  LIG1        0.0000
      7 C           4.4277   -0.6308    1.3960 C.ar    1  LIG1        0.0000
      8 C           6.5918   -1.3075    1.3963 C.ar    1  LIG1        0.0000
      9 C           2.7681    1.5985    0.0639 C.2     1  LIG1        0.0000
     10 C           2.9507   -0.6310    1.3970 C.3     1  LIG1        0.0000
     11 C           2.3376    0.1303    0.2039 C.3     1  LIG1        0.0000
     12 N           6.5345    0.0679    1.3965 N.ar    1  LIG1        0.0000
     13 O           2.8496    2.0040   -1.1321 O.co2   1  LIG1       -0.5000
     14 O           2.9842    2.2274    1.1362 O.co2   1  LIG1       -0.5000
     15 O           2.7384   -0.5266   -0.9982 O.3     1  LIG1        0.0000
     16 H           5.9755   -5.1085    1.3955 H       1  LIG1        0.0000
     17 H           8.2837   -4.2356    1.3966 H       1  LIG1        0.0000
     18 H           4.0386   -3.5649    1.3948 H       1  LIG1        0.0000
     19 H           8.7117   -1.7826    1.3978 H       1  LIG1        0.0000
     20 H           4.9929    1.5411    1.3955 H       1  LIG1        0.0000
     21 H           2.5625   -1.6702    1.3963 H       1  LIG1        0.0000
     22 H           2.5720   -0.1890    2.3407 H       1  LIG1        0.0000
     23 H           1.2429    0.0925    0.2637 H       1  LIG1        0.0000
     24 H           7.3390    0.6797    1.3967 H       1  LIG1        0.0000
     25 H           3.7010   -0.4295   -1.0557 H       1  LIG1        0.0000
@<TRIPOS>BOND
     1     1     2   ar
     2     1     3   ar
     3     2     4   ar
     4     3     6   ar
     5     4     8   ar
     6     5     7   ar
     7     5    12   ar
     8     6     7   ar
     9     6     8   ar
    10     7    10    1
    11     8    12   ar
    12     9    11    1
    13     9    13   ar
    14     9    14   ar
    15    10    11    1
    16    11    15    1
    17     1    16    1
    18     2    17    1
    19     3    18    1
    20     4    19    1
    21     5    20    1
    22    10    21    1
    23    10    22    1
    24    11    23    1
    25    12    24    1
    26    15    25    1
