@<TRIPOS>MOLECULE
DB08165
 24 25 0 0 0
SMALL
USER_CHARGES

@<TRIPOS>ATOM
      1 C           5.3275    0.0920    1.9131 C.ar    1  LIG1       -0.0569
      2 C           4.3232    0.5744    1.0963 C.ar    1  LIG1       -0.0393
      3 C           4.0772   -1.5972    0.1226 C.ar    1  LIG1       -0.0361
      4 C           5.7100   -1.2364    1.8366 C.ar    1  LIG1       -0.0446
      5 C           5.0837   -2.0824    0.9402 C.ar    1  LIG1       -0.0429
      6 C           3.6973   -0.2712    0.2000 C.ar    1  LIG1        0.0543
      7 C           6.7656   -1.9992    2.6080 C.3     1  LIG1       -0.0273
      8 C           5.6764   -3.4711    1.0477 C.3     1  LIG1       -0.0272
      9 C           7.0181   -3.2816    1.7868 C.3     1  LIG1       -0.0451
     10 N           0.9835    0.1419   -0.0375 N.3     1  LIG1       -0.3036
     11 O           2.6220    1.7451   -0.9237 O.2     1  LIG1       -0.4766
     12 O           2.3630   -0.5468   -1.9513 O.2     1  LIG1       -0.4766
     13 S           2.4163    0.3415   -0.8434 S.O2    1  LIG1       -0.1706
     14 H           5.8161    0.7534    2.6131 H       1  LIG1        0.0626
     15 H           4.0277    1.6114    1.1578 H       1  LIG1        0.0642
     16 H           3.5845   -2.2584   -0.5747 H       1  LIG1        0.0645
     17 H           7.6801   -1.4104    2.6804 H       1  LIG1        0.0316
     18 H           6.3984   -2.2530    3.6024 H       1  LIG1        0.0316
     19 H           5.0162   -4.1205    1.6227 H       1  LIG1        0.0316
     20 H           5.8469   -3.8874    0.0550 H       1  LIG1        0.0316
     21 H           7.2217   -4.1278    2.4430 H       1  LIG1        0.0273
     22 H           7.8332   -3.1342    1.0784 H       1  LIG1        0.0273
     23 H           0.9761   -0.2542    0.8480 H       1  LIG1        0.1601
     24 H           0.1516    0.4213   -0.4508 H       1  LIG1        0.1601
@<TRIPOS>BOND
     1     1     2   ar
     2     1     4   ar
     3     2     6   ar
     4     3     5   ar
     5     3     6   ar
     6     4     5   ar
     7     4     7    1
     8     5     8    1
     9     6    13    1
    10     7     9    1
    11     8     9    1
    12    10    13    1
    13    11    13    2
    14    12    13    2
    15     1    14    1
    16     2    15    1
    17     3    16    1
    18     7    17    1
    19     7    18    1
    20     8    19    1
    21     8    20    1
    22     9    21    1
    23     9    22    1
    24    10    23    1
    25    10    24    1
