@<TRIPOS>MOLECULE
DB08653
 25 26 0 0 0
SMALL
USER_CHARGES

@<TRIPOS>ATOM
      1 C           5.7537   -3.9406    1.3043 C.ar    1  LIG1       -0.0615
      2 C           7.1139   -3.6406    1.3429 C.ar    1  LIG1       -0.0603
      3 C           4.7948   -2.9211    1.3127 C.ar    1  LIG1       -0.0528
      4 C           7.5590   -2.3164    1.3909 C.ar    1  LIG1       -0.0402
      5 C           5.5009    0.6633    1.4321 C.ar    1  LIG1       -0.0034
      6 C           5.2196   -1.5785    1.3608 C.ar    1  LIG1        0.0001
      7 C           4.5454   -0.3254    1.3822 C.ar    1  LIG1       -0.0269
      8 C           6.5891   -1.3076    1.3987 C.ar    1  LIG1        0.0375
      9 C           3.0840   -0.1123    1.3575 C.3     1  LIG1       -0.0417
     10 C           2.4292   -0.3192   -0.0158 C.3     1  LIG1       -0.0923
     11 N           6.7304    0.0612    1.4415 N.ar    1  LIG1       -0.3203
     12 N           0.9609   -0.1319    0.0865 N.4     1  LIG1        0.3797
     13 H           5.4322   -4.9779    1.2667 H       1  LIG1        0.0623
     14 H           7.8415   -4.4481    1.3356 H       1  LIG1        0.0623
     15 H           3.7382   -3.1713    1.2812 H       1  LIG1        0.0630
     16 H           8.6180   -2.0839    1.4220 H       1  LIG1        0.0642
     17 H           5.4172    1.7410    1.4602 H       1  LIG1        0.0792
     18 H           2.5931   -0.8086    2.0630 H       1  LIG1        0.0297
     19 H           2.8147    0.8942    1.7300 H       1  LIG1        0.0297
     20 H           2.5842   -1.3366   -0.3867 H       1  LIG1        0.0052
     21 H           2.7905    0.3968   -0.7602 H       1  LIG1        0.0052
     22 H           7.6143    0.5500    1.4750 H       1  LIG1        0.1522
     23 H           0.6988    0.8358   -0.1289 H       1  LIG1       -0.0903
     24 H           0.6296   -0.3461    1.0332 H       1  LIG1       -0.0903
     25 H           0.4663   -0.7468   -0.5685 H       1  LIG1       -0.0903
@<TRIPOS>BOND
     1     1     2   ar
     2     1     3   ar
     3     2     4   ar
     4     3     6   ar
     5     4     8   ar
     6     5     7   ar
     7     5    11   ar
     8     6     7   ar
     9     6     8   ar
    10     7     9    1
    11     8    11   ar
    12     9    10    1
    13    10    12    1
    14     1    13    1
    15     2    14    1
    16     3    15    1
    17     4    16    1
    18     5    17    1
    19     9    18    1
    20     9    19    1
    21    10    20    1
    22    10    21    1
    23    11    22    1
    24    12    23    1
    25    12    24    1
    26    12    25    1
