@<TRIPOS>MOLECULE
DB08777
 24 26 0 0 0
SMALL
USER_CHARGES

@<TRIPOS>ATOM
      1 C           4.2031   -0.8250    0.6994 C.ar    1  LIG1        0.0740
      2 C           5.1747   -1.8234    1.0242 C.ar    1  LIG1       -0.0228
      3 C           6.2884   -1.2558    1.6164 C.ar    1  LIG1       -0.0046
      4 C           4.6093    0.4472    1.0752 C.ar    1  LIG1        0.1149
      5 C           2.7667    1.4535    0.3408 C.ar    1  LIG1        0.0880
      6 C           2.9053   -0.9728    0.0514 C.ar    1  LIG1        0.2510
      7 C           5.0891   -3.2974    0.7587 C.3     1  LIG1       -0.0262
      8 C           7.4919   -2.0091    2.0919 C.3     1  LIG1       -0.0211
      9 C           6.1449   -4.0895    1.5455 C.3     1  LIG1       -0.0488
     10 C           7.5226   -3.4177    1.4815 C.3     1  LIG1       -0.0484
     11 N           3.9189    1.6115    0.9144 N.ar    1  LIG1       -0.2332
     12 N           2.2393    0.2444   -0.0882 N.ar    1  LIG1       -0.2719
     13 O           2.4546   -2.0478   -0.3300 O.2     1  LIG1       -0.2713
     14 S           6.1553    0.4298    1.8019 S.2     1  LIG1       -0.0734
     15 H           2.0993    2.3070    0.1460 H       1  LIG1        0.1015
     16 H           4.0947   -3.6767    1.0192 H       1  LIG1        0.0316
     17 H           5.2349   -3.4663   -0.3153 H       1  LIG1        0.0316
     18 H           8.4161   -1.4806    1.8321 H       1  LIG1        0.0321
     19 H           7.4502   -2.0881    3.1853 H       1  LIG1        0.0321
     20 H           5.8349   -4.1718    2.5952 H       1  LIG1        0.0270
     21 H           6.2066   -5.1093    1.1495 H       1  LIG1        0.0270
     22 H           7.8445   -3.3581    0.4339 H       1  LIG1        0.0270
     23 H           8.2632   -4.0287    2.0096 H       1  LIG1        0.0270
     24 H           1.3223    0.2457   -0.5257 H       1  LIG1        0.1569
@<TRIPOS>BOND
     1     1     2   ar
     2     1     4   ar
     3     1     6   ar
     4     2     3   ar
     5     2     7    1
     6     3     8    1
     7     3    14   ar
     8     4    11   ar
     9     4    14   ar
    10     5    11   ar
    11     5    12   ar
    12     6    12   ar
    13     6    13    2
    14     7     9    1
    15     8    10    1
    16     9    10    1
    17     5    15    1
    18     7    16    1
    19     7    17    1
    20     8    18    1
    21     8    19    1
    22     9    20    1
    23     9    21    1
    24    10    22    1
    25    10    23    1
    26    12    24    1
