@<TRIPOS>MOLECULE
DB08065
 22 24 0 0 0
SMALL
USER_CHARGES

@<TRIPOS>ATOM
      1 C           6.9967   -4.1056    1.5344 C.ar    1  LIG1       -0.0600
      2 C           8.0227   -3.1921    1.7294 C.ar    1  LIG1       -0.0602
      3 C           5.7157   -3.6737    1.2765 C.ar    1  LIG1       -0.0344
      4 C           7.7736   -1.8371    1.6678 C.ar    1  LIG1       -0.0385
      5 C           2.2355    0.6196    0.5552 C.ar    1  LIG1       -0.0157
      6 C           1.6903    1.8487    0.4350 C.ar    1  LIG1        0.0135
      7 C           5.4450   -2.3034    1.2104 C.ar    1  LIG1        0.0867
      8 C           6.4888   -1.3820    1.4090 C.ar    1  LIG1        0.0576
      9 C           3.6113    0.7811    0.8200 C.ar    1  LIG1        0.1228
     10 C           4.5921   -0.3067    1.0239 C.ar    1  LIG1        0.1501
     11 N           4.3171   -1.5874    0.9807 N.ar    1  LIG1       -0.2291
     12 N           3.8676    2.0736    0.8545 N.ar    1  LIG1       -0.1811
     13 N           2.6708    2.7605    0.6143 N.ar    1  LIG1       -0.2451
     14 N           5.9247   -0.1273    1.2801 N.ar    1  LIG1       -0.2960
     15 H           7.2051   -5.1641    1.5856 H       1  LIG1        0.0623
     16 H           9.0234   -3.5447    1.9315 H       1  LIG1        0.0623
     17 H           4.9222   -4.3907    1.1260 H       1  LIG1        0.0646
     18 H           8.5770   -1.1316    1.8211 H       1  LIG1        0.0643
     19 H           1.7112   -0.3203    0.4653 H       1  LIG1        0.0661
     20 H           0.6528    2.0651    0.2272 H       1  LIG1        0.0807
     21 H           2.5645    3.7242    0.5820 H       1  LIG1        0.1747
     22 H           6.3865    0.7221    1.3586 H       1  LIG1        0.1544
@<TRIPOS>BOND
     1     1     2   ar
     2     1     3   ar
     3     2     4   ar
     4     3     7   ar
     5     4     8   ar
     6     5     6   ar
     7     5     9   ar
     8     6    13   ar
     9     7     8   ar
    10     7    11   ar
    11     8    14   ar
    12     9    10    1
    13     9    12   ar
    14    10    11   ar
    15    10    14   ar
    16    12    13   ar
    17     1    15    1
    18     2    16    1
    19     3    17    1
    20     4    18    1
    21     5    19    1
    22     6    20    1
    23    13    21    1
    24    14    22    1
