@<TRIPOS>MOLECULE
DB08652
 23 24 0 0 0
SMALL
USER_CHARGES

@<TRIPOS>ATOM
      1 C           5.7515   -3.7963    1.6163 C.ar    1  LIG1       -0.0615
      2 C           7.1048   -3.4942    1.7535 C.ar    1  LIG1       -0.0603
      3 C           4.8192   -2.7930    1.3281 C.ar    1  LIG1       -0.0527
      4 C           7.5693   -2.1839    1.6075 C.ar    1  LIG1       -0.0402
      5 C           5.5823    0.7518    0.8660 C.ar    1  LIG1       -0.0028
      6 C           5.2639   -1.4646    1.1765 C.ar    1  LIG1        0.0007
      7 C           4.6179   -0.2293    0.8903 C.ar    1  LIG1       -0.0159
      8 C           6.6259   -1.1912    1.3195 C.ar    1  LIG1        0.0375
      9 C           2.8336    0.5904   -0.6937 C.2     1  LIG1        0.2136
     10 C           3.1732   -0.0246    0.6608 C.3     1  LIG1        0.0512
     11 N           6.7902    0.1619    1.1256 N.ar    1  LIG1       -0.3203
     12 N           2.5491   -0.3495   -1.6617 N.am    1  LIG1       -0.3289
     13 O           2.8191    1.8012   -0.8973 O.2     1  LIG1       -0.2775
     14 H           5.4145   -4.8227    1.7338 H       1  LIG1        0.0623
     15 H           7.8116   -4.2890    1.9777 H       1  LIG1        0.0623
     16 H           3.7676   -3.0448    1.2232 H       1  LIG1        0.0630
     17 H           8.6229   -1.9495    1.7156 H       1  LIG1        0.0642
     18 H           5.5185    1.8160    0.6858 H       1  LIG1        0.0792
     19 H           2.6172   -0.9791    0.7367 H       1  LIG1        0.0415
     20 H           2.7354    0.6278    1.4412 H       1  LIG1        0.0415
     21 H           7.6748    0.6486    1.1690 H       1  LIG1        0.1522
     22 H           2.5815   -1.3361   -1.4258 H       1  LIG1        0.1455
     23 H           2.3077   -0.0689   -2.6063 H       1  LIG1        0.1455
@<TRIPOS>BOND
     1     1     2   ar
     2     1     3   ar
     3     2     4   ar
     4     3     6   ar
     5     4     8   ar
     6     5     7   ar
     7     5    11   ar
     8     6     7   ar
     9     6     8   ar
    10     7    10    1
    11     8    11   ar
    12     9    10    1
    13     9    12   am
    14     9    13    2
    15     1    14    1
    16     2    15    1
    17     3    16    1
    18     4    17    1
    19     5    18    1
    20    10    19    1
    21    10    20    1
    22    11    21    1
    23    12    22    1
    24    12    23    1
