@<TRIPOS>MOLECULE
DB08671
 28 29 0 0 0
SMALL
USER_CHARGES

@<TRIPOS>ATOM
      1 C           7.1489   -3.8425    2.0106 C.ar    1  LIG1        0.0000
      2 C           5.7654   -3.8108    2.0437 C.ar    1  LIG1        0.0000
      3 C           7.8585   -2.8181    1.4067 C.ar    1  LIG1        0.0000
      4 C           5.0826   -2.7569    1.4750 C.ar    1  LIG1        0.0000
      5 C           7.1910   -1.7572    0.8336 C.ar    1  LIG1        0.0000
      6 C           5.7922   -1.7143    0.8682 C.ar    1  LIG1        0.0000
      7 C           3.1734    0.3985   -0.2318 C.2     1  LIG1        0.0000
      8 C           3.7038    1.4909   -0.8672 C.2     1  LIG1        0.0000
      9 C           1.6961    0.6119   -0.3047 C.2     1  LIG1        0.0000
     10 C           7.9651   -0.6434    0.1769 C.3     1  LIG1        0.0000
     11 N           2.6994    2.2754   -1.2721 N.2     1  LIG1        0.0000
     12 N           1.5469    1.8052   -0.9641 N.2     1  LIG1        0.0000
     13 N           5.1245   -0.6685    0.3035 N.2     1  LIG1        0.0000
     14 N           3.8351   -0.6379    0.3277 N.2     1  LIG1        0.0000
     15 N           0.7594   -0.1591    0.1619 N.2     1  LIG1        0.0000
     16 N           5.0655    1.7426   -1.0598 N.pl3   1  LIG1        0.0000
     17 F           9.3354   -0.9103    0.2691 F       1  LIG1        0.0000
     18 F           7.6811    0.5652    0.8218 F       1  LIG1        0.0000
     19 F           7.5976   -0.5510   -1.1698 F       1  LIG1        0.0000
     20 H           7.6780   -4.6711    2.4580 H       1  LIG1        0.0000
     21 H           5.2195   -4.6141    2.5160 H       1  LIG1        0.0000
     22 H           8.9377   -2.8507    1.3845 H       1  LIG1        0.0000
     23 H           4.0031   -2.7335    1.5017 H       1  LIG1        0.0000
     24 H          -0.1717    0.0922    0.0587 H       1  LIG1        0.0000
     25 H           0.9916   -0.9857    0.6132 H       1  LIG1        0.0000
     26 H           5.3622    1.3363   -1.9343 H       1  LIG1        0.0000
     27 H           5.2236    2.7389   -1.0808 H       1  LIG1        0.0000
     28 H           5.5933    1.3342   -0.3029 H       1  LIG1        0.0000
@<TRIPOS>BOND
     1     1     2   ar
     2     1     3   ar
     3     2     4   ar
     4     3     5   ar
     5     4     6   ar
     6     5     6   ar
     7     5    10    1
     8     6    13    1
     9     7     8    2
    10     7     9    1
    11     7    14    1
    12     8    11    1
    13     8    16    1
    14     9    12    1
    15     9    15    2
    16    10    17    1
    17    10    18    1
    18    10    19    1
    19    11    12    2
    20    13    14    2
    21     1    20    1
    22     2    21    1
    23     3    22    1
    24     4    23    1
    25    15    24    1
    26    15    25    1
    27    16    26    1
    28    16    27    1
    29    16    28    1
