@<TRIPOS>MOLECULE
DB08451
 25 26 0 0 0
SMALL
USER_CHARGES

@<TRIPOS>ATOM
      1 C           5.9269    0.6568    1.9422 C.ar    1  LIG1       -0.0596
      2 C           6.4348   -4.1024    1.1918 C.ar    1  LIG1       -0.0432
      3 C           6.6059   -0.5320    2.1937 C.ar    1  LIG1       -0.0527
      4 C           6.8626   -2.9385    1.8142 C.ar    1  LIG1       -0.0512
      5 C           4.8393    0.6558    1.0776 C.ar    1  LIG1       -0.0374
      6 C           5.3462   -4.0118    0.3483 C.ar    1  LIG1        0.0276
      7 C           6.1973   -1.7278    1.5790 C.ar    1  LIG1        0.0021
      8 C           5.0941   -1.7362    0.6999 C.ar    1  LIG1        0.0926
      9 C           4.4334   -0.5332    0.4666 C.ar    1  LIG1        0.0692
     10 C           0.7996    0.1817   -1.1065 C.3     1  LIG1        0.0225
     11 N           4.6766   -2.8641    0.0944 N.ar    1  LIG1       -0.2542
     12 N           3.3060   -0.4883   -0.4171 N.pl3   1  LIG1       -0.2611
     13 O           1.8801    1.0186    1.1071 O.2     1  LIG1       -0.4814
     14 O           2.7063    1.9736   -1.0726 O.2     1  LIG1       -0.4814
     15 S           2.2324    0.8491   -0.2904 S.O2    1  LIG1       -0.1956
     16 H           6.2453    1.5787    2.4191 H       1  LIG1        0.0623
     17 H           6.9373   -5.0473    1.3614 H       1  LIG1        0.0639
     18 H           7.4560   -0.5203    2.8721 H       1  LIG1        0.0630
     19 H           7.7187   -2.9810    2.4839 H       1  LIG1        0.0630
     20 H           4.3104    1.5856    0.8839 H       1  LIG1        0.0643
     21 H           4.9660   -4.8884   -0.1660 H       1  LIG1        0.0840
     22 H           0.0156    0.9407   -1.1013 H       1  LIG1        0.0442
     23 H           1.0753   -0.0764   -2.1300 H       1  LIG1        0.0442
     24 H           0.4756   -0.7065   -0.5619 H       1  LIG1        0.0442
     25 H           3.5180   -0.7853   -1.3817 H       1  LIG1        0.1703
@<TRIPOS>BOND
     1     1     3   ar
     2     1     5   ar
     3     2     4   ar
     4     2     6   ar
     5     3     7   ar
     6     4     7   ar
     7     5     9   ar
     8     6    11   ar
     9     7     8   ar
    10     8     9   ar
    11     8    11   ar
    12     9    12    1
    13    10    15    1
    14    12    15    1
    15    13    15    2
    16    14    15    2
    17     1    16    1
    18     2    17    1
    19     3    18    1
    20     4    19    1
    21     5    20    1
    22     6    21    1
    23    10    22    1
    24    10    23    1
    25    10    24    1
    26    12    25    1
