@<TRIPOS>MOLECULE
DB08238
 23 24 0 0 0
SMALL
USER_CHARGES

@<TRIPOS>ATOM
      1 C           6.2841   -4.1514    1.2063 C.ar    1  LIG1       -0.0598
      2 C           5.2294   -3.2966    1.1055 C.ar    1  LIG1       -0.0542
      3 C           6.9194   -0.0480    1.7379 C.ar    1  LIG1       -0.0507
      4 C           7.5652   -3.6829    1.4831 C.ar    1  LIG1       -0.0407
      5 C           5.8602    0.8014    1.6298 C.ar    1  LIG1       -0.0401
      6 C           4.3556   -1.0101    1.1826 C.ar    1  LIG1       -0.0328
      7 C           5.4256   -1.9159    1.2814 C.ar    1  LIG1       -0.0147
      8 C           6.7250   -1.4265    1.5630 C.ar    1  LIG1        0.0026
      9 C           7.7999   -2.3365    1.6623 C.ar    1  LIG1        0.0313
     10 C           4.5812    0.3208    1.3582 C.ar    1  LIG1        0.0430
     11 N           9.0858   -1.8779    1.9395 N.pl3   1  LIG1       -0.3578
     12 O           3.1635    1.8510   -0.1643 O.3     1  LIG1       -0.4148
     13 O           3.5562    2.5690    2.1098 O.2     1  LIG1       -0.4879
     14 O           2.0501    0.7317    1.6656 O.2     1  LIG1       -0.4879
     15 S           3.2370    1.4531    1.2329 S.3     1  LIG1       -0.2023
     16 H           6.1240   -5.2107    1.0696 H       1  LIG1        0.0623
     17 H           4.2424   -3.6790    0.8908 H       1  LIG1        0.0629
     18 H           7.9048    0.3381    1.9533 H       1  LIG1        0.0630
     19 H           8.3847   -4.3824    1.5586 H       1  LIG1        0.0642
     20 H           6.0127    1.8620    1.7644 H       1  LIG1        0.0642
     21 H           3.3594   -1.3683    0.9689 H       1  LIG1        0.0648
     22 H           9.8211   -2.5070    2.0071 H       1  LIG1        0.1427
     23 H           9.2460   -0.9295    2.0649 H       1  LIG1        0.1427
@<TRIPOS>BOND
     1     1     2   ar
     2     1     4   ar
     3     2     7   ar
     4     3     5   ar
     5     3     8   ar
     6     4     9   ar
     7     5    10   ar
     8     6     7   ar
     9     6    10   ar
    10     7     8   ar
    11     8     9   ar
    12     9    11    1
    13    10    15    1
    14    12    15    1
    15    13    15    2
    16    14    15    2
    17     1    16    1
    18     2    17    1
    19     3    18    1
    20     4    19    1
    21     5    20    1
    22     6    21    1
    23    11    22    1
    24    11    23    1
