@<TRIPOS>MOLECULE
DB08254
 21 22 0 0 0
SMALL
USER_CHARGES

@<TRIPOS>ATOM
      1 C           7.3049   -3.8319    1.4407 C.ar    1  LIG1       -0.0616
      2 C           5.9794   -4.2331    1.2837 C.ar    1  LIG1       -0.0616
      3 C           7.6318   -2.5139    1.5325 C.ar    1  LIG1       -0.0544
      4 C           4.9736   -3.3188    1.2178 C.ar    1  LIG1       -0.0543
      5 C           6.9192   -0.1702    1.5580 C.ar    1  LIG1       -0.0526
      6 C           5.9141    0.7445    1.4855 C.ar    1  LIG1       -0.0401
      7 C           4.2609   -0.9750    1.2440 C.ar    1  LIG1       -0.0329
      8 C           6.6203   -1.5405    1.4674 C.ar    1  LIG1       -0.0183
      9 C           5.2724   -1.9485    1.3085 C.ar    1  LIG1       -0.0166
     10 C           4.5880    0.3429    1.3348 C.ar    1  LIG1        0.0430
     11 O           3.1610    1.8989   -0.1525 O.3     1  LIG1       -0.4148
     12 O           3.7771    2.6893    2.0468 O.2     1  LIG1       -0.4879
     13 O           2.1217    0.9445    1.8096 O.2     1  LIG1       -0.4879
     14 S           3.3167    1.5602    1.2536 S.3     1  LIG1       -0.2023
     15 H           8.0842   -4.5779    1.4906 H       1  LIG1        0.0623
     16 H           5.7470   -5.2855    1.2138 H       1  LIG1        0.0623
     17 H           8.6632   -2.2177    1.6546 H       1  LIG1        0.0629
     18 H           3.9510   -3.6444    1.0967 H       1  LIG1        0.0629
     19 H           7.9416    0.1553    1.6806 H       1  LIG1        0.0630
     20 H           6.1466    1.7969    1.5554 H       1  LIG1        0.0642
     21 H           3.2294   -1.2712    1.1234 H       1  LIG1        0.0648
@<TRIPOS>BOND
     1     1     2   ar
     2     1     3   ar
     3     2     4   ar
     4     3     8   ar
     5     4     9   ar
     6     5     6   ar
     7     5     8   ar
     8     6    10   ar
     9     7     9   ar
    10     7    10   ar
    11     8     9   ar
    12    10    14    1
    13    11    14    1
    14    12    14    2
    15    13    14    2
    16     1    15    1
    17     2    16    1
    18     3    17    1
    19     4    18    1
    20     5    19    1
    21     6    20    1
    22     7    21    1
