@<TRIPOS>MOLECULE
DB08075
 20 21 0 0 0
SMALL
USER_CHARGES

@<TRIPOS>ATOM
      1 C           5.1025   -2.9708    1.0654 C.ar    1  LIG1       -0.0155
      2 C           6.0246   -3.9779    1.2766 C.ar    1  LIG1        0.0329
      3 C           4.9845    0.7686    1.1308 C.ar    1  LIG1        0.0067
      4 C           5.5208   -1.6431    1.2098 C.ar    1  LIG1        0.0946
      5 C           4.5714   -0.5282    0.9946 C.ar    1  LIG1        0.0983
      6 C           7.6372   -2.3947    1.7368 C.ar    1  LIG1        0.2115
      7 C           2.4456    0.2064    0.4696 C.ar    1  LIG1        0.1548
      8 N           7.2675   -3.6604    1.6068 N.ar    1  LIG1       -0.2238
      9 N           6.7885   -1.3983    1.5386 N.ar    1  LIG1       -0.2136
     10 N           3.3029   -0.7760    0.6710 N.ar    1  LIG1       -0.2242
     11 N           8.9460   -2.1067    2.0832 N.pl3   1  LIG1       -0.3273
     12 N           1.1052    0.1420    0.1260 N.pl3   1  LIG1       -0.3375
     13 S           3.4681    1.6420    0.7647 S.2     1  LIG1       -0.0605
     14 H           4.0829   -3.2027    0.7957 H       1  LIG1        0.0662
     15 H           5.7349   -5.0133    1.1739 H       1  LIG1        0.0842
     16 H           5.9585    1.1578    1.3883 H       1  LIG1        0.0725
     17 H           9.5793   -2.8271    2.2274 H       1  LIG1        0.1457
     18 H           9.2299   -1.1843    2.1817 H       1  LIG1        0.1457
     19 H           0.6774   -0.7196    0.0013 H       1  LIG1        0.1447
     20 H           0.5934    0.9583    0.0140 H       1  LIG1        0.1447
@<TRIPOS>BOND
     1     1     2   ar
     2     1     4   ar
     3     2     8   ar
     4     3     5   ar
     5     3    13   ar
     6     4     5    1
     7     4     9   ar
     8     5    10   ar
     9     6     8   ar
    10     6     9   ar
    11     6    11    1
    12     7    10   ar
    13     7    12    1
    14     7    13   ar
    15     1    14    1
    16     2    15    1
    17     3    16    1
    18    11    17    1
    19    11    18    1
    20    12    19    1
    21    12    20    1
