@<TRIPOS>MOLECULE
DB08666
 28 29 0 0 0
SMALL
USER_CHARGES

@<TRIPOS>ATOM
      1 C           5.7652   -3.8138    2.0383 C.ar    1  LIG1        0.0000
      2 C           7.1489   -3.8434    2.0091 C.ar    1  LIG1        0.0000
      3 C           5.0824   -2.7590    1.4711 C.ar    1  LIG1        0.0000
      4 C           7.1914   -1.7514    0.8439 C.ar    1  LIG1        0.0000
      5 C           7.8586   -2.8157    1.4110 C.ar    1  LIG1        0.0000
      6 C           5.7921   -1.7164    0.8645 C.ar    1  LIG1        0.0000
      7 C           3.1734    0.3981   -0.2326 C.2     1  LIG1        0.0000
      8 C           3.7038    1.4907   -0.8677 C.2     1  LIG1        0.0000
      9 C           1.6962    0.6120   -0.3045 C.2     1  LIG1        0.0000
     10 C           9.3648   -2.8582    1.3855 C.3     1  LIG1        0.0000
     11 N           2.6994    2.2754   -1.2721 N.2     1  LIG1        0.0000
     12 N           1.5470    1.8052   -0.9642 N.2     1  LIG1        0.0000
     13 N           5.1244   -0.6699    0.3010 N.2     1  LIG1        0.0000
     14 N           3.8350   -0.6390    0.3259 N.2     1  LIG1        0.0000
     15 N           0.7594   -0.1591    0.1619 N.2     1  LIG1        0.0000
     16 N           5.0655    1.7425   -1.0598 N.pl3   1  LIG1        0.0000
     17 F           9.8684   -2.2331    2.5313 F       1  LIG1        0.0000
     18 F           9.8309   -2.1912    0.2474 F       1  LIG1        0.0000
     19 F           9.7933   -4.1895    1.3540 F       1  LIG1        0.0000
     20 H           5.2191   -4.6194    2.5064 H       1  LIG1        0.0000
     21 H           7.6779   -4.6727    2.4550 H       1  LIG1        0.0000
     22 H           4.0028   -2.7376    1.4944 H       1  LIG1        0.0000
     23 H           7.7463   -0.9507    0.3778 H       1  LIG1        0.0000
     24 H          -0.1718    0.0920    0.0583 H       1  LIG1        0.0000
     25 H           0.9916   -0.9855    0.6135 H       1  LIG1        0.0000
     26 H           5.3625    1.3365   -1.9344 H       1  LIG1        0.0000
     27 H           5.2235    2.7388   -1.0806 H       1  LIG1        0.0000
     28 H           5.5931    1.3341   -0.3030 H       1  LIG1        0.0000
@<TRIPOS>BOND
     1     1     2   ar
     2     1     3   ar
     3     2     5   ar
     4     3     6   ar
     5     4     5   ar
     6     4     6   ar
     7     5    10    1
     8     6    13    1
     9     7     8    2
    10     7     9    1
    11     7    14    1
    12     8    11    1
    13     8    16    1
    14     9    12    1
    15     9    15    2
    16    10    17    1
    17    10    18    1
    18    10    19    1
    19    11    12    2
    20    13    14    2
    21     1    20    1
    22     2    21    1
    23     3    22    1
    24     4    23    1
    25    15    24    1
    26    15    25    1
    27    16    26    1
    28    16    27    1
    29    16    28    1
