@<TRIPOS>MOLECULE
DB08765
 20 21 0 0 0
SMALL
USER_CHARGES

@<TRIPOS>ATOM
      1 C           5.1188   -3.3274    1.0485 C.ar    1  LIG1       -0.0326
      2 C           6.3356   -3.8543    1.3465 C.ar    1  LIG1       -0.0299
      3 C           7.2989   -1.6669    1.5283 C.ar    1  LIG1       -0.0158
      4 C           4.9324   -1.9273    0.9700 C.ar    1  LIG1        0.0800
      5 C           7.4406   -3.0444    1.5958 C.ar    1  LIG1        0.0726
      6 C           6.0723   -1.1298    1.2224 C.ar    1  LIG1        0.0434
      7 C           3.7474    0.0530    0.6401 C.ar    1  LIG1        0.1821
      8 N           3.7993   -1.2504    0.6837 N.ar    1  LIG1       -0.2246
      9 N           1.0680    0.1096    0.0004 N.3     1  LIG1       -0.3018
     10 O           2.0791    1.7742    1.4995 O.2     1  LIG1       -0.4746
     11 O           2.6641    1.7151   -0.9561 O.2     1  LIG1       -0.4746
     12 O           8.6454   -3.5981    1.8964 O.3     1  LIG1       -0.3608
     13 S           5.4295    0.5151    1.0298 S.2     1  LIG1       -0.0511
     14 S           2.3695    1.0927    0.2868 S.O2    1  LIG1       -0.1468
     15 H           4.2833   -3.9869    0.8653 H       1  LIG1        0.0647
     16 H           6.4464   -4.9274    1.3991 H       1  LIG1        0.0651
     17 H           8.1451   -1.0221    1.7147 H       1  LIG1        0.0663
     18 H           0.1725    0.4166    0.2116 H       1  LIG1        0.1602
     19 H           1.2013   -0.7733   -0.3786 H       1  LIG1        0.1602
     20 H           9.1093   -3.7300    1.0583 H       1  LIG1        0.2182
@<TRIPOS>BOND
     1     1     2   ar
     2     1     4   ar
     3     2     5   ar
     4     3     5   ar
     5     3     6   ar
     6     4     6   ar
     7     4     8   ar
     8     5    12    1
     9     6    13   ar
    10     7     8   ar
    11     7    13   ar
    12     7    14    1
    13     9    14    1
    14    10    14    2
    15    11    14    2
    16     1    15    1
    17     2    16    1
    18     3    17    1
    19     9    18    1
    20     9    19    1
    21    12    20    1
