@<TRIPOS>MOLECULE
DB08048
 28 30 0 0 0
SMALL
USER_CHARGES

@<TRIPOS>ATOM
      1 C           4.8308   -2.8787    1.3960 C.ar    1  LIG1       -0.0482
      2 C           2.3884   -0.5190    2.4530 C.ar    1  LIG1       -0.0475
      3 C           5.8227   -3.8675    1.3958 C.ar    1  LIG1       -0.0313
      4 C           1.0124   -0.2916    2.4742 C.ar    1  LIG1       -0.0312
      5 C           7.5867   -2.1893    1.3965 C.ar    1  LIG1       -0.0085
      6 C           1.1785    0.9078    0.3835 C.ar    1  LIG1       -0.0013
      7 C           5.2271   -1.5308    1.3962 C.ar    1  LIG1        0.0255
      8 C           3.1596   -0.0330    1.3971 C.ar    1  LIG1        0.0326
      9 C           6.5821   -1.2192    1.3964 C.ar    1  LIG1        0.0595
     10 C           7.1767   -3.5267    1.3960 C.ar    1  LIG1        0.0733
     11 C           0.4074    0.4219    1.4395 C.ar    1  LIG1        0.0739
     12 C           2.5545    0.6803    0.3624 C.ar    1  LIG1        0.0834
     13 C           4.5797   -0.2766    1.3965 C.ar    1  LIG1        0.1001
     14 N           5.4351    0.7482    1.3966 N.ar    1  LIG1       -0.1828
     15 N           6.6373    0.1485    1.3965 N.ar    1  LIG1       -0.2372
     16 O           8.1170   -4.5143    1.3962 O.3     1  LIG1       -0.3608
     17 O          -0.9355    0.6427    1.4592 O.3     1  LIG1       -0.3608
     18 O           3.2842    1.1681   -0.6817 O.3     1  LIG1       -0.3601
     19 H           3.7818   -3.1587    1.3959 H       1  LIG1        0.0631
     20 H           2.8439   -1.0762    3.2685 H       1  LIG1        0.0631
     21 H           5.5261   -4.9140    1.3957 H       1  LIG1        0.0650
     22 H           0.4167   -0.6724    3.2993 H       1  LIG1        0.0650
     23 H           8.6370   -1.9172    1.3967 H       1  LIG1        0.0671
     24 H           0.7066    1.4651   -0.4220 H       1  LIG1        0.0678
     25 H           7.4633    0.7338    1.3975 H       1  LIG1        0.1755
     26 H           7.6877   -5.3836    1.3961 H       1  LIG1        0.2182
     27 H          -1.3301    0.2449    2.2517 H       1  LIG1        0.2182
     28 H           2.7055    1.6353   -1.3036 H       1  LIG1        0.2182
@<TRIPOS>BOND
     1     1     3   ar
     2     1     7   ar
     3     2     4   ar
     4     2     8   ar
     5     3    10   ar
     6     4    11   ar
     7     5     9   ar
     8     5    10   ar
     9     6    11   ar
    10     6    12   ar
    11     7     9   ar
    12     7    13   ar
    13     8    12   ar
    14     8    13    1
    15     9    15   ar
    16    10    16    1
    17    11    17    1
    18    12    18    1
    19    13    14   ar
    20    14    15   ar
    21     1    19    1
    22     2    20    1
    23     3    21    1
    24     4    22    1
    25     5    23    1
    26     6    24    1
    27    15    25    1
    28    16    26    1
    29    17    27    1
    30    18    28    1
