@<TRIPOS>MOLECULE
DB08114
 23 24 0 0 0
SMALL
USER_CHARGES

@<TRIPOS>ATOM
      1 C           7.3818   -3.4720    1.1047 C.ar    1  LIG1       -0.0622
      2 C           6.0523   -3.8922    1.0635 C.ar    1  LIG1       -0.0620
      3 C           7.6946   -2.1913    1.5604 C.ar    1  LIG1       -0.0620
      4 C           5.0358   -3.0316    1.4776 C.ar    1  LIG1       -0.0587
      5 C           6.6779   -1.3307    1.9746 C.ar    1  LIG1       -0.0587
      6 C           2.5104   -0.6898    0.4300 C.ar    1  LIG1        0.0399
      7 C           5.3485   -1.7509    1.9332 C.ar    1  LIG1       -0.0430
      8 C           3.5060   -0.1782    1.2358 C.ar    1  LIG1        0.0153
      9 C           2.6406    1.3186   -0.4415 C.ar    1  LIG1        0.1543
     10 C           4.2620   -0.8301    2.3760 C.3     1  LIG1        0.0054
     11 N           2.0127    0.1672   -0.5321 N.ar    1  LIG1       -0.2341
     12 N           2.3948    2.3900   -1.2415 N.pl3   1  LIG1       -0.3375
     13 S           3.8418    1.4401    0.7782 S.2     1  LIG1       -0.0573
     14 H           8.1733   -4.1427    0.7835 H       1  LIG1        0.0622
     15 H           5.8086   -4.8898    0.7097 H       1  LIG1        0.0623
     16 H           8.7296   -1.8642    1.5937 H       1  LIG1        0.0623
     17 H           4.0028   -3.3675    1.4417 H       1  LIG1        0.0625
     18 H           6.9311   -0.3346    2.3279 H       1  LIG1        0.0625
     19 H           2.1034   -1.6896    0.5031 H       1  LIG1        0.0849
     20 H           3.5428   -1.3633    3.0224 H       1  LIG1        0.0372
     21 H           4.6676   -0.0404    3.0326 H       1  LIG1        0.0372
     22 H           1.7190    2.3434   -2.0117 H       1  LIG1        0.1447
     23 H           2.9416    3.2546   -1.1667 H       1  LIG1        0.1447
@<TRIPOS>BOND
     1     1     2   ar
     2     1     3   ar
     3     2     4   ar
     4     3     5   ar
     5     4     7   ar
     6     5     7   ar
     7     6     8   ar
     8     6    11   ar
     9     7    10    1
    10     8    10    1
    11     8    13   ar
    12     9    11   ar
    13     9    12    1
    14     9    13   ar
    15     1    14    1
    16     2    15    1
    17     3    16    1
    18     4    17    1
    19     5    18    1
    20     6    19    1
    21    10    20    1
    22    10    21    1
    23    12    22    1
    24    12    23    1
