@<TRIPOS>MOLECULE
DB08298
 30 31 0 0 0
SMALL
USER_CHARGES

@<TRIPOS>ATOM
      1 C           6.7178   -0.1562    1.4951 C.ar    1  LIG1        0.0000
      2 C           5.4140   -3.6351    1.3391 C.ar    1  LIG1        0.0000
      3 C           5.5919    0.5382    1.1737 C.ar    1  LIG1        0.0000
      4 C           6.5367   -4.3318    1.6602 C.ar    1  LIG1        0.0000
      5 C           4.3170   -1.4800    0.9511 C.ar    1  LIG1        0.0000
      6 C           7.8175   -2.3092    1.8832 C.ar    1  LIG1        0.0000
      7 C           5.4580   -2.2311    1.2791 C.ar    1  LIG1        0.0000
      8 C           6.6758   -1.5596    1.5550 C.ar    1  LIG1        0.0000
      9 C           4.3951   -0.1218    0.9026 C.ar    1  LIG1        0.0000
     10 C           7.7393   -3.6718    1.9324 C.ar    1  LIG1        0.0000
     11 C           3.4365    1.4883   -0.6927 C.2     1  LIG1        0.0000
     12 C           2.8258    1.6216    1.7070 C.3     1  LIG1        0.0000
     13 C           8.4582   -5.7713    2.2259 C.3     1  LIG1        0.0000
     14 C           3.1686    0.6800    0.5507 C.3     1  LIG1        0.0000
     15 O           2.5670    2.2109   -1.1491 O.co2   1  LIG1       -0.5000
     16 O           4.5227    1.4196   -1.2422 O.co2   1  LIG1       -0.5000
     17 O           8.8431   -4.3954    2.2555 O.3     1  LIG1        0.0000
     18 H           7.6384    0.3688    1.7032 H       1  LIG1        0.0000
     19 H           4.4924   -4.1580    1.1306 H       1  LIG1        0.0000
     20 H           5.6267    1.6167    1.1287 H       1  LIG1        0.0000
     21 H           6.4993   -5.4102    1.7054 H       1  LIG1        0.0000
     22 H           3.3825   -1.9779    0.7381 H       1  LIG1        0.0000
     23 H           8.7517   -1.8108    2.0961 H       1  LIG1        0.0000
     24 H           3.6625    2.2969    1.8859 H       1  LIG1        0.0000
     25 H           1.9387    2.2015    1.4525 H       1  LIG1        0.0000
     26 H           2.6321    1.0369    2.6063 H       1  LIG1        0.0000
     27 H           7.6595   -5.9408    2.9480 H       1  LIG1        0.0000
     28 H           8.1057   -6.0285    1.2271 H       1  LIG1        0.0000
     29 H           9.3159   -6.3940    2.4801 H       1  LIG1        0.0000
     30 H           2.3320    0.0047    0.3718 H       1  LIG1        0.0000
@<TRIPOS>BOND
     1     1     3   ar
     2     1     8   ar
     3     2     4   ar
     4     2     7   ar
     5     3     9   ar
     6     4    10   ar
     7     5     7   ar
     8     5     9   ar
     9     6     8   ar
    10     6    10   ar
    11     7     8   ar
    12     9    14    1
    13    10    17    1
    14    11    14    1
    15    11    15   ar
    16    11    16   ar
    17    12    14    1
    18    13    17    1
    19     1    18    1
    20     2    19    1
    21     3    20    1
    22     4    21    1
    23     5    22    1
    24     6    23    1
    25    12    24    1
    26    12    25    1
    27    12    26    1
    28    13    27    1
    29    13    28    1
    30    13    29    1
    31    14    30    1
