@<TRIPOS>MOLECULE
DB08113
 24 26 0 0 0
SMALL
USER_CHARGES

@<TRIPOS>ATOM
      1 C           6.1305   -4.0277    1.3960 C.ar    1  LIG1       -0.0614
      2 C           7.4405   -3.5448    1.3964 C.ar    1  LIG1       -0.0603
      3 C           5.0391   -3.1500    1.3959 C.ar    1  LIG1       -0.0508
      4 C           7.7060   -2.1714    1.3968 C.ar    1  LIG1       -0.0386
      5 C           2.3398   -1.0541    2.4377 C.ar    1  LIG1       -0.0343
      6 C           2.4160    0.1463    0.3550 C.ar    1  LIG1       -0.0343
      7 C           0.9598   -0.9394    2.3912 C.ar    1  LIG1        0.0274
      8 C           1.0325    0.2071    0.4016 C.ar    1  LIG1        0.0274
      9 C           5.2897   -1.7676    1.3961 C.ar    1  LIG1        0.0252
     10 C           3.0745   -0.4982    1.3962 C.ar    1  LIG1        0.0055
     11 C           6.6039   -1.3136    1.3965 C.ar    1  LIG1        0.0569
     12 C           4.5125   -0.5894    1.3962 C.ar    1  LIG1        0.0976
     13 N           0.2848   -0.3209    1.3965 N.ar    1  LIG1       -0.2646
     14 N           5.2541    0.5206    1.3963 N.ar    1  LIG1       -0.1829
     15 N           6.5132    0.0522    1.3965 N.ar    1  LIG1       -0.2373
     16 H           5.9545   -5.1004    1.3963 H       1  LIG1        0.0623
     17 H           8.2686   -4.2491    1.3973 H       1  LIG1        0.0623
     18 H           4.0260   -3.5403    1.3958 H       1  LIG1        0.0630
     19 H           8.7227   -1.7946    1.3979 H       1  LIG1        0.0643
     20 H           2.8178   -1.5648    3.2674 H       1  LIG1        0.0646
     21 H           2.9546    0.5924   -0.4750 H       1  LIG1        0.0646
     22 H           0.3408   -1.3560    3.1790 H       1  LIG1        0.0840
     23 H           0.4714    0.6984   -0.3865 H       1  LIG1        0.0840
     24 H           7.2723    0.7221    1.3974 H       1  LIG1        0.1755
@<TRIPOS>BOND
     1     1     2   ar
     2     1     3   ar
     3     2     4   ar
     4     3     9   ar
     5     4    11   ar
     6     5     7   ar
     7     5    10   ar
     8     6     8   ar
     9     6    10   ar
    10     7    13   ar
    11     8    13   ar
    12     9    11   ar
    13     9    12   ar
    14    10    12    1
    15    11    15   ar
    16    12    14   ar
    17    14    15   ar
    18     1    16    1
    19     2    17    1
    20     3    18    1
    21     4    19    1
    22     5    20    1
    23     6    21    1
    24     7    22    1
    25     8    23    1
    26    15    24    1
