@<TRIPOS>MOLECULE
DB08667
 25 26 0 0 0
SMALL
USER_CHARGES

@<TRIPOS>ATOM
      1 C           7.1915   -1.7525    0.8394 C.ar    1  LIG1        0.0000
      2 C           5.0809   -2.7583    1.4721 C.ar    1  LIG1        0.0000
      3 C           7.8594   -2.8124    1.4114 C.ar    1  LIG1        0.0000
      4 C           5.7619   -3.8143    2.0360 C.ar    1  LIG1        0.0000
      5 C           5.7916   -1.7156    0.8645 C.ar    1  LIG1        0.0000
      6 C           7.1489   -3.8418    2.0120 C.ar    1  LIG1        0.0000
      7 C           3.1737    0.3975   -0.2326 C.2     1  LIG1        0.0000
      8 C           3.7041    1.4901   -0.8679 C.2     1  LIG1        0.0000
      9 C           1.6964    0.6115   -0.3046 C.2     1  LIG1        0.0000
     10 N           2.7001    2.2748   -1.2717 N.2     1  LIG1        0.0000
     11 N           1.5475    1.8050   -0.9635 N.2     1  LIG1        0.0000
     12 N           5.1246   -0.6702    0.3012 N.2     1  LIG1        0.0000
     13 N           3.8352   -0.6392    0.3261 N.2     1  LIG1        0.0000
     14 N           0.7595   -0.1593    0.1620 N.2     1  LIG1        0.0000
     15 N           5.0657    1.7417   -1.0609 N.pl3   1  LIG1        0.0000
     16 F           7.8106   -4.8785    2.5712 F       1  LIG1        0.0000
     17 H           7.7457   -0.9515    0.3728 H       1  LIG1        0.0000
     18 H           4.0014   -2.7359    1.4954 H       1  LIG1        0.0000
     19 H           8.9388   -2.8423    1.3927 H       1  LIG1        0.0000
     20 H           5.2151   -4.6191    2.5048 H       1  LIG1        0.0000
     21 H          -0.1717    0.0925    0.0592 H       1  LIG1        0.0000
     22 H           0.9915   -0.9861    0.6129 H       1  LIG1        0.0000
     23 H           5.3621    1.3356   -1.9357 H       1  LIG1        0.0000
     24 H           5.2240    2.7380   -1.0818 H       1  LIG1        0.0000
     25 H           5.5937    1.3330   -0.3044 H       1  LIG1        0.0000
@<TRIPOS>BOND
     1     1     3   ar
     2     1     5   ar
     3     2     4   ar
     4     2     5   ar
     5     3     6   ar
     6     4     6   ar
     7     5    12    1
     8     6    16    1
     9     7     8    2
    10     7     9    1
    11     7    13    1
    12     8    10    1
    13     8    15    1
    14     9    11    1
    15     9    14    2
    16    10    11    2
    17    12    13    2
    18     1    17    1
    19     2    18    1
    20     3    19    1
    21     4    20    1
    22    14    21    1
    23    14    22    1
    24    15    23    1
    25    15    24    1
    26    15    25    1
