@<TRIPOS>MOLECULE
DB08718
 27 28 0 0 0
SMALL
USER_CHARGES

@<TRIPOS>ATOM
      1 C           5.3127    0.2949   -0.2514 C.ar    1  LIG1       -0.0510
      2 C           4.5111    1.2831   -0.7847 C.ar    1  LIG1       -0.0287
      3 C           7.3316   -2.8962    2.1784 C.ar    1  LIG1       -0.0512
      4 C           3.3460   -0.8980    0.4863 C.ar    1  LIG1       -0.0210
      5 C           6.8731   -4.1014    1.7549 C.ar    1  LIG1       -0.0238
      6 C           4.7348   -0.8044    0.3856 C.ar    1  LIG1       -0.0086
      7 C           6.6853   -1.7500    1.7685 C.ar    1  LIG1       -0.0332
      8 C           3.1314    1.1930   -0.6796 C.ar    1  LIG1        0.1013
      9 C           2.5484    0.0988   -0.0454 C.ar    1  LIG1        0.1019
     10 C           5.5921   -1.8670    0.9527 C.ar    1  LIG1        0.0222
     11 C           6.3635    0.0515    3.4418 C.3     1  LIG1       -0.0613
     12 C           7.1663   -0.3944    2.2181 C.3     1  LIG1       -0.0296
     13 O           2.3457    2.1724   -1.2021 O.3     1  LIG1       -0.3582
     14 O           1.1947    0.0109    0.0515 O.3     1  LIG1       -0.3582
     15 S           5.4757   -3.6365    0.7457 S.2     1  LIG1       -0.0971
     16 H           6.3872    0.3696   -0.3307 H       1  LIG1        0.0630
     17 H           4.9597    2.1332   -1.2773 H       1  LIG1        0.0651
     18 H           8.1942   -2.8359    2.8255 H       1  LIG1        0.0631
     19 H           2.8951   -1.7470    0.9788 H       1  LIG1        0.0658
     20 H           7.2549   -5.0879    1.9726 H       1  LIG1        0.0701
     21 H           5.3065    0.1089    3.1817 H       1  LIG1        0.0234
     22 H           6.5005   -0.6686    4.2485 H       1  LIG1        0.0234
     23 H           6.7113    1.0320    3.7672 H       1  LIG1        0.0234
     24 H           8.2233   -0.4519    2.4783 H       1  LIG1        0.0313
     25 H           7.0293    0.3258    1.4116 H       1  LIG1        0.0313
     26 H           2.1527    1.9187   -2.1150 H       1  LIG1        0.2183
     27 H           0.8882   -0.4599   -0.7356 H       1  LIG1        0.2183
@<TRIPOS>BOND
     1     1     2   ar
     2     1     6   ar
     3     2     8   ar
     4     3     5   ar
     5     3     7   ar
     6     4     6   ar
     7     4     9   ar
     8     5    15   ar
     9     6    10    1
    10     7    10   ar
    11     7    12    1
    12     8     9   ar
    13     8    13    1
    14     9    14    1
    15    10    15   ar
    16    11    12    1
    17     1    16    1
    18     2    17    1
    19     3    18    1
    20     4    19    1
    21     5    20    1
    22    11    21    1
    23    11    22    1
    24    11    23    1
    25    12    24    1
    26    12    25    1
    27    13    26    1
    28    14    27    1
