@<TRIPOS>MOLECULE
DB08771
 31 32 0 0 0
SMALL
USER_CHARGES

@<TRIPOS>ATOM
      1 C           5.7014   -3.7302    1.4097 C.ar    1  LIG1        0.0000
      2 C           6.9660   -4.0681    1.8558 C.ar    1  LIG1        0.0000
      3 C           5.3871   -2.4098    1.1525 C.ar    1  LIG1        0.0000
      4 C           7.9207   -3.0864    2.0466 C.ar    1  LIG1        0.0000
      5 C           6.3422   -1.4204    1.3420 C.ar    1  LIG1        0.0000
      6 C           7.6131   -1.7624    1.7911 C.ar    1  LIG1        0.0000
      7 C           3.0651    1.4684   -0.2964 C.2     1  LIG1        0.0000
      8 C           4.7411    0.2720    0.7882 C.3     1  LIG1        0.0000
      9 C           2.0621    0.6543    0.5115 C.3     1  LIG1        0.0000
     10 C           0.2387    0.6883    2.2193 C.3     1  LIG1        0.0000
     11 C           2.1533    2.2829    2.4041 C.3     1  LIG1        0.0000
     12 C           1.2284    1.5487    1.4312 C.3     1  LIG1        0.0000
     13 N           4.3202    1.1900   -0.0719 N.am    1  LIG1        0.0000
     14 N           6.0264   -0.0814    1.0827 N.pl3   1  LIG1        0.0000
     15 O           2.7203    2.3178   -1.0948 O.2     1  LIG1        0.0000
     16 F           8.5457   -0.8029    1.9779 F       1  LIG1        0.0000
     17 S           3.2286   -0.3987    1.4654 S.3     1  LIG1        0.0000
     18 H           4.9596   -4.5003    1.2580 H       1  LIG1        0.0000
     19 H           7.2084   -5.1014    2.0559 H       1  LIG1        0.0000
     20 H           4.3992   -2.1476    0.8035 H       1  LIG1        0.0000
     21 H           8.9072   -3.3535    2.3957 H       1  LIG1        0.0000
     22 H           1.4260    0.0507   -0.1359 H       1  LIG1        0.0000
     23 H          -0.3552    1.3254    2.8745 H       1  LIG1        0.0000
     24 H          -0.4202    0.1652    1.5262 H       1  LIG1        0.0000
     25 H           0.7866   -0.0389    2.8187 H       1  LIG1        0.0000
     26 H           2.8583    2.8959    1.8426 H       1  LIG1        0.0000
     27 H           1.5593    2.9200    3.0593 H       1  LIG1        0.0000
     28 H           2.7010    1.5557    3.0034 H       1  LIG1        0.0000
     29 H           0.6805    2.2759    0.8319 H       1  LIG1        0.0000
     30 H           4.9899    1.6873   -0.5672 H       1  LIG1        0.0000
     31 H           6.7209    0.5951    1.1121 H       1  LIG1        0.0000
@<TRIPOS>BOND
     1     1     2   ar
     2     1     3   ar
     3     2     4   ar
     4     3     5   ar
     5     4     6   ar
     6     5     6   ar
     7     5    14    1
     8     6    16    1
     9     7     9    1
    10     7    13   am
    11     7    15    2
    12     8    13    1
    13     8    14    1
    14     8    17    1
    15     9    12    1
    16     9    17    1
    17    10    12    1
    18    11    12    1
    19     1    18    1
    20     2    19    1
    21     3    20    1
    22     4    21    1
    23     9    22    1
    24    10    23    1
    25    10    24    1
    26    10    25    1
    27    11    26    1
    28    11    27    1
    29    11    28    1
    30    12    29    1
    31    13    30    1
    32    14    31    1
