@<TRIPOS>MOLECULE
DB08649
 26 27 0 0 0
SMALL
USER_CHARGES

@<TRIPOS>ATOM
      1 C           6.0996   -4.0119    1.3960 C.ar    1  LIG1       -0.0615
      2 C           7.4218   -3.5721    1.3961 C.ar    1  LIG1       -0.0603
      3 C           5.0403   -3.0970    1.3961 C.ar    1  LIG1       -0.0528
      4 C           7.7277   -2.2081    1.3962 C.ar    1  LIG1       -0.0402
      5 C           5.3725    0.5431    1.3968 C.ar    1  LIG1       -0.0033
      6 C           5.3243   -1.7169    1.3962 C.ar    1  LIG1        0.0002
      7 C           4.5241   -0.5401    1.3963 C.ar    1  LIG1       -0.0244
      8 C           6.6587   -1.3051    1.3963 C.ar    1  LIG1        0.0375
      9 C           3.0483   -0.4798    1.3976 C.3     1  LIG1       -0.0159
     10 C           2.4496   -0.1460    0.0134 C.3     1  LIG1        0.0213
     11 N           6.6579    0.0716    1.3965 N.ar    1  LIG1       -0.3203
     12 N           0.9709   -0.0146    0.1452 N.4     1  LIG1        0.3964
     13 O           2.8651   -1.1390   -0.9184 O.3     1  LIG1       -0.4115
     14 H           5.8868   -5.0775    1.3954 H       1  LIG1        0.0623
     15 H           8.2290   -4.3000    1.3962 H       1  LIG1        0.0623
     16 H           4.0150   -3.4558    1.3951 H       1  LIG1        0.0630
     17 H           8.7573   -1.8667    1.3973 H       1  LIG1        0.0642
     18 H           5.1779    1.6068    1.3957 H       1  LIG1        0.0792
     19 H           2.7039    0.2721    2.1365 H       1  LIG1        0.0322
     20 H           2.6165   -1.4401    1.7474 H       1  LIG1        0.0322
     21 H           2.8069    0.8279   -0.3384 H       1  LIG1        0.0384
     22 H           7.4867    0.6499    1.3965 H       1  LIG1        0.1522
     23 H           0.5412    0.2103   -0.7615 H       1  LIG1       -0.0862
     24 H           0.7103    0.7323    0.8029 H       1  LIG1       -0.0862
     25 H           0.5447   -0.8896    0.4781 H       1  LIG1       -0.0862
     26 H           2.4767   -0.9075   -1.7793 H       1  LIG1        0.2076
@<TRIPOS>BOND
     1     1     2   ar
     2     1     3   ar
     3     2     4   ar
     4     3     6   ar
     5     4     8   ar
     6     5     7   ar
     7     5    11   ar
     8     6     7   ar
     9     6     8   ar
    10     7     9    1
    11     8    11   ar
    12     9    10    1
    13    10    12    1
    14    10    13    1
    15     1    14    1
    16     2    15    1
    17     3    16    1
    18     4    17    1
    19     5    18    1
    20     9    19    1
    21     9    20    1
    22    10    21    1
    23    11    22    1
    24    12    23    1
    25    12    24    1
    26    12    25    1
    27    13    26    1
