# Name:		DB00150
# Created and modified by SHAFTS on Mon Feb  6 15:41:12 2012

# 

@<TRIPOS>MOLECULE
DB00150
   27    28     0
SMALL
USER_CHARGE


@<TRIPOS>ATOM
      1 C1          5.9278   -4.0032    1.3206 C.ar      1 <1>         0.0000
      2 C2          7.2638   -3.6218    1.2142 C.ar      1 <1>         0.0000
      3 C3          4.9185   -3.0443    1.4654 C.ar      1 <1>         0.0000
      4 C4          7.6337   -2.2742    1.2489 C.ar      1 <1>         0.0000
      5 C5          5.4241    0.5731    1.6049 C.2       1 <1>         0.0000
      6 C6          5.2673   -1.6796    1.5030 C.ar      1 <1>         0.0000
      7 C7          4.5283   -0.4707    1.6352 C.2       1 <1>         0.0000
      8 C8          6.6141   -1.3268    1.3941 C.ar      1 <1>         0.0000
      9 C9          2.8766    1.4507   -0.0131 C.2       1 <1>         0.0000
     10 C10         3.0637   -0.3465    1.7811 C.3       1 <1>         0.0000
     11 C11         2.3428    0.1017    0.4906 C.3       1 <1>         0.0000
     12 N1          6.6796    0.0469    1.4590 N.pl3     1 <1>         0.0000
     13 N2          2.4942   -0.9776   -0.5356 N.4       1 <1>         0.0000
     14 O1          2.8672    1.5870   -1.2694 O.co2     1 <1>        -0.5000
     15 O2          3.2658    2.2539    0.8809 O.co2     1 <1>        -0.5000
     16 H1          5.6649   -5.0571    1.2905 H         1 <1>         0.0000
     17 H2          8.0315   -4.3831    1.1025 H         1 <1>         0.0000
     18 H3          3.8815   -3.3577    1.5461 H         1 <1>         0.0000
     19 H4          8.6741   -1.9783    1.1671 H         1 <1>         0.0000
     20 H5          5.2817    1.6429    1.6725 H         1 <1>         0.0000
     21 H6          2.8315    0.3806    2.5840 H         1 <1>         0.0000
     22 H7          2.6168   -1.2958    2.1363 H         1 <1>         0.0000
     23 H8          1.2632    0.1732    0.6691 H         1 <1>         0.0000
     24 H9          7.5317    0.5878    1.4065 H         1 <1>         0.0000
     25 H10         2.9845   -1.7789   -0.1362 H         1 <1>         0.0000
     26 H11         3.0282   -0.6324   -1.3345 H         1 <1>         0.0000
     27 H12         1.5774   -1.2850   -0.8631 H         1 <1>         0.0000
@<TRIPOS>BOND
     1    1    2 ar
     2    1    3 ar
     3    2    4 ar
     4    3    6 ar
     5    4    8 ar
     6    5    7 2
     7    5   12 1
     8    6    7 1
     9    6    8 ar
    10    7   10 1
    11    8   12 1
    12    9   11 1
    13    9   14 1
    14    9   15 2
    15   10   11 1
    16   11   13 1
    17    1   16 1
    18    2   17 1
    19    3   18 1
    20    4   19 1
    21    5   20 1
    22   10   21 1
    23   10   22 1
    24   11   23 1
    25   12   24 1
    26   13   25 1
    27   13   26 1
    28   13   27 1
@<TRIPOS>Similarity
1.7304
@<TRIPOS>ShapeSim
0.9689
@<TRIPOS>PharmSim
0.7614
# END
# Name:		DB03225
# Created and modified by SHAFTS on Mon Feb  6 15:41:12 2012

# 

@<TRIPOS>MOLECULE
DB03225
   27    28     0
SMALL
USER_CHARGE


@<TRIPOS>ATOM
      1 C1          5.9278   -4.0032    1.3206 C.ar      1 <1>         0.0000
      2 C2          7.2638   -3.6218    1.2142 C.ar      1 <1>         0.0000
      3 C3          4.9185   -3.0443    1.4654 C.ar      1 <1>         0.0000
      4 C4          7.6337   -2.2742    1.2489 C.ar      1 <1>         0.0000
      5 C5          5.4241    0.5731    1.6049 C.2       1 <1>         0.0000
      6 C6          5.2673   -1.6796    1.5030 C.ar      1 <1>         0.0000
      7 C7          4.5283   -0.4707    1.6352 C.2       1 <1>         0.0000
      8 C8          6.6141   -1.3268    1.3941 C.ar      1 <1>         0.0000
      9 C9          2.8766    1.4507   -0.0131 C.2       1 <1>         0.0000
     10 C10         3.0637   -0.3465    1.7811 C.3       1 <1>         0.0000
     11 C11         2.3428    0.1017    0.4906 C.3       1 <1>         0.0000
     12 N1          6.6796    0.0469    1.4590 N.pl3     1 <1>         0.0000
     13 N2          2.4942   -0.9776   -0.5356 N.4       1 <1>         0.0000
     14 O1          2.8672    1.5870   -1.2694 O.co2     1 <1>        -0.5000
     15 O2          3.2658    2.2539    0.8809 O.co2     1 <1>        -0.5000
     16 H1          5.6649   -5.0571    1.2905 H         1 <1>         0.0000
     17 H2          8.0315   -4.3831    1.1025 H         1 <1>         0.0000
     18 H3          3.8815   -3.3577    1.5461 H         1 <1>         0.0000
     19 H4          8.6741   -1.9783    1.1671 H         1 <1>         0.0000
     20 H5          5.2817    1.6429    1.6725 H         1 <1>         0.0000
     21 H6          2.8315    0.3806    2.5840 H         1 <1>         0.0000
     22 H7          2.6168   -1.2958    2.1363 H         1 <1>         0.0000
     23 H8          1.2632    0.1732    0.6691 H         1 <1>         0.0000
     24 H9          7.5317    0.5878    1.4065 H         1 <1>         0.0000
     25 H10         2.9845   -1.7789   -0.1362 H         1 <1>         0.0000
     26 H11         3.0282   -0.6324   -1.3345 H         1 <1>         0.0000
     27 H12         1.5774   -1.2850   -0.8631 H         1 <1>         0.0000
@<TRIPOS>BOND
     1    1    2 ar
     2    1    3 ar
     3    2    4 ar
     4    3    6 ar
     5    4    8 ar
     6    5    7 2
     7    5   12 1
     8    6    7 1
     9    6    8 ar
    10    7   10 1
    11    8   12 1
    12    9   11 1
    13    9   14 1
    14    9   15 2
    15   10   11 1
    16   11   13 1
    17    1   16 1
    18    2   17 1
    19    3   18 1
    20    4   19 1
    21    5   20 1
    22   10   21 1
    23   10   22 1
    24   11   23 1
    25   12   24 1
    26   13   25 1
    27   13   26 1
    28   13   27 1
@<TRIPOS>Similarity
1.7304
@<TRIPOS>ShapeSim
0.9689
@<TRIPOS>PharmSim
0.7614
# END
# Name:		DB07060
# Created and modified by SHAFTS on Mon Feb  6 15:41:12 2012

# 

@<TRIPOS>MOLECULE
DB07060
   25    26     0
SMALL
USER_CHARGE


@<TRIPOS>ATOM
      1 C1          6.1442   -4.0350    1.3961 C.ar      1 <1>         0.0000
      2 C2          7.4474   -3.5413    1.3964 C.ar      1 <1>         0.0000
      3 C3          5.0484   -3.1643    1.3960 C.ar      1 <1>         0.0000
      4 C4          7.6970   -2.1659    1.3965 C.ar      1 <1>         0.0000
      5 C5          5.2309    0.4863    1.3966 C.2       1 <1>         0.0000
      6 C6          5.2754   -1.7737    1.3962 C.ar      1 <1>         0.0000
      7 C7          4.4277   -0.6308    1.3960 C.2       1 <1>         0.0000
      8 C8          6.5918   -1.3075    1.3963 C.ar      1 <1>         0.0000
      9 C9          2.7681    1.5985    0.0639 C.2       1 <1>         0.0000
     10 C10         2.9507   -0.6310    1.3970 C.3       1 <1>         0.0000
     11 C11         2.3376    0.1303    0.2039 C.3       1 <1>         0.0000
     12 N1          6.5345    0.0679    1.3965 N.pl3     1 <1>         0.0000
     13 O1          2.8496    2.0040   -1.1321 O.co2     1 <1>        -0.5000
     14 O2          2.9842    2.2274    1.1362 O.co2     1 <1>        -0.5000
     15 O3          2.7384   -0.5266   -0.9982 O.3       1 <1>         0.0000
     16 H1          5.9755   -5.1085    1.3955 H         1 <1>         0.0000
     17 H2          8.2837   -4.2356    1.3966 H         1 <1>         0.0000
     18 H3          4.0386   -3.5649    1.3948 H         1 <1>         0.0000
     19 H4          8.7117   -1.7826    1.3978 H         1 <1>         0.0000
     20 H5          4.9929    1.5411    1.3955 H         1 <1>         0.0000
     21 H6          2.5625   -1.6702    1.3963 H         1 <1>         0.0000
     22 H7          2.5720   -0.1890    2.3407 H         1 <1>         0.0000
     23 H8          1.2429    0.0925    0.2637 H         1 <1>         0.0000
     24 H9          7.3390    0.6797    1.3967 H         1 <1>         0.0000
     25 H10         3.7010   -0.4295   -1.0557 H         1 <1>         0.0000
@<TRIPOS>BOND
     1    1    2 ar
     2    1    3 ar
     3    2    4 ar
     4    3    6 ar
     5    4    8 ar
     6    5    7 2
     7    5   12 1
     8    6    7 1
     9    6    8 ar
    10    7   10 1
    11    8   12 1
    12    9   11 1
    13    9   13 1
    14    9   14 2
    15   10   11 1
    16   11   15 1
    17    1   16 1
    18    2   17 1
    19    3   18 1
    20    4   19 1
    21    5   20 1
    22   10   21 1
    23   10   22 1
    24   11   23 1
    25   12   24 1
    26   15   25 1
@<TRIPOS>Similarity
1.7283
@<TRIPOS>ShapeSim
0.9725
@<TRIPOS>PharmSim
0.7558
# END
# Name:		DB04537
# Created and modified by SHAFTS on Mon Feb  6 15:41:12 2012

# 

@<TRIPOS>MOLECULE
DB04537
   29    30     0
SMALL
USER_CHARGE


@<TRIPOS>ATOM
      1 C1          6.3915   -3.8986    1.2992 C.ar      1 <1>        -0.0615
      2 C2          7.5833   -3.2188    1.5424 C.ar      1 <1>        -0.0603
      3 C3          5.1967   -3.1990    1.0947 C.ar      1 <1>        -0.0528
      4 C4          7.6199   -1.8222    1.5891 C.ar      1 <1>        -0.0402
      5 C5          4.8272    0.4374    1.1295 C.2       1 <1>        -0.0034
      6 C6          5.2090   -1.7906    1.1372 C.ar      1 <1>         0.0001
      7 C7          4.2143   -0.7852    0.9791 C.2       1 <1>        -0.0261
      8 C8          6.4178   -1.1360    1.3830 C.ar      1 <1>         0.0375
      9 C9          2.5344    0.8435   -1.0169 C.2       1 <1>         0.1950
     10 C10         2.7794   -1.0028    0.7046 C.3       1 <1>        -0.0304
     11 C11         2.0023    0.2666    0.2826 C.3       1 <1>        -0.0008
     12 N1          6.1562    0.2156    1.3725 N.pl3     1 <1>        -0.3203
     13 N2          2.5120   -0.0622   -2.0554 N.am      1 <1>        -0.3306
     14 N3          0.5577   -0.0752    0.1273 N.4       1 <1>         0.3874
     15 O1          2.9374    1.9984   -1.1303 O.2       1 <1>        -0.2798
     16 H1          6.3884   -4.9847    1.2671 H         1 <1>         0.0623
     17 H2          8.4997   -3.7821    1.6986 H         1 <1>         0.0623
     18 H3          4.2760   -3.7435    0.9052 H         1 <1>         0.0630
     19 H4          8.5480   -1.2939    1.7797 H         1 <1>         0.0642
     20 H5          4.4382    1.4453    1.0840 H         1 <1>         0.0792
     21 H6          2.6704   -1.7669   -0.0911 H         1 <1>         0.0305
     22 H7          2.2625   -1.4606    1.5737 H         1 <1>         0.0305
     23 H8          2.0431    1.0357    1.0623 H         1 <1>         0.0186
     24 H9          6.8460    0.9388    1.5227 H         1 <1>         0.1522
     25 H10         2.1706   -1.0111   -1.9414 H         1 <1>         0.1454
     26 H11         2.8404    0.1961   -2.9799 H         1 <1>         0.1454
     27 H12         0.4496   -0.9339   -0.4167 H         1 <1>        -0.0891
     28 H13         0.0623    0.6780   -0.3553 H         1 <1>        -0.0891
     29 H14         0.1227   -0.2147    1.0420 H         1 <1>        -0.0891
@<TRIPOS>BOND
     1    1    2 ar
     2    1    3 ar
     3    2    4 ar
     4    3    6 ar
     5    4    8 ar
     6    5    7 2
     7    5   12 1
     8    6    7 1
     9    6    8 ar
    10    7   10 1
    11    8   12 1
    12    9   11 1
    13    9   13 am
    14    9   15 2
    15   10   11 1
    16   11   14 1
    17    1   16 1
    18    2   17 1
    19    3   18 1
    20    4   19 1
    21    5   20 1
    22   10   21 1
    23   10   22 1
    24   11   23 1
    25   12   24 1
    26   13   25 1
    27   13   26 1
    28   14   27 1
    29   14   28 1
    30   14   29 1
@<TRIPOS>Similarity
1.7259
@<TRIPOS>ShapeSim
0.9256
@<TRIPOS>PharmSim
0.8003
# END
# Name:		DB01446
# Created and modified by SHAFTS on Mon Feb  6 15:41:12 2012

# 

@<TRIPOS>MOLECULE
DB01446
   28    29     0
SMALL
USER_CHARGE


@<TRIPOS>ATOM
      1 C1          5.8311   -3.9808    1.3045 C.ar      1 <1>        -0.0615
      2 C2          7.1851   -3.6519    1.3041 C.ar      1 <1>        -0.0603
      3 C3          4.8514   -2.9824    1.3531 C.ar      1 <1>        -0.0528
      4 C4          7.6032   -2.3189    1.3520 C.ar      1 <1>        -0.0402
      5 C5          5.4844    0.6152    1.4876 C.2       1 <1>        -0.0034
      6 C6          5.2488   -1.6314    1.4019 C.ar      1 <1>         0.0001
      7 C7          4.5491   -0.3935    1.4571 C.2       1 <1>        -0.0266
      8 C8          6.6127   -1.3314    1.4002 C.ar      1 <1>         0.0375
      9 C9          2.5532    1.7634   -0.0453 C.3       1 <1>        -0.0780
     10 C10         3.0834   -0.2117    1.4798 C.3       1 <1>        -0.0391
     11 C11         2.4716    0.2537    0.1398 C.3       1 <1>        -0.0828
     12 N1          6.7261    0.0396    1.4527 N.pl3     1 <1>        -0.3203
     13 N2          1.0317   -0.1339    0.0965 N.4       1 <1>         0.3813
     14 H1          5.5307   -5.0244    1.2663 H         1 <1>         0.0623
     15 H2          7.9292   -4.4434    1.2660 H         1 <1>         0.0623
     16 H3          3.7999   -3.2550    1.3518 H         1 <1>         0.0630
     17 H4          8.6575   -2.0639    1.3527 H         1 <1>         0.0642
     18 H5          5.3787    1.6905    1.5294 H         1 <1>         0.0792
     19 H6          2.0810    2.2877    0.7926 H         1 <1>         0.0214
     20 H7          3.5921    2.1043   -0.1143 H         1 <1>         0.0214
     21 H8          2.0363    2.0676   -0.9615 H         1 <1>         0.0214
     22 H9          2.8178    0.5363    2.2515 H         1 <1>         0.0300
     23 H10         2.5673   -1.1357    1.8058 H         1 <1>         0.0300
     24 H11         2.9483   -0.2527   -0.7067 H         1 <1>         0.0085
     25 H12         7.6001    0.5471    1.4639 H         1 <1>         0.1522
     26 H13         0.7974   -0.5434   -0.8109 H         1 <1>        -0.0899
     27 H14         0.4360    0.6842    0.2450 H         1 <1>        -0.0899
     28 H15         0.8233   -0.8214    0.8245 H         1 <1>        -0.0899
@<TRIPOS>BOND
     1    1    2 ar
     2    1    3 ar
     3    2    4 ar
     4    3    6 ar
     5    4    8 ar
     6    5    7 2
     7    5   12 1
     8    6    7 1
     9    6    8 ar
    10    7   10 1
    11    8   12 1
    12    9   11 1
    13   10   11 1
    14   11   13 1
    15    1   14 1
    16    2   15 1
    17    3   16 1
    18    4   17 1
    19    5   18 1
    20    9   19 1
    21    9   20 1
    22    9   21 1
    23   10   22 1
    24   10   23 1
    25   11   24 1
    26   12   25 1
    27   13   26 1
    28   13   27 1
    29   13   28 1
@<TRIPOS>Similarity
1.6929
@<TRIPOS>ShapeSim
0.9672
@<TRIPOS>PharmSim
0.7257
# END
# Name:		DB02286
# Created and modified by SHAFTS on Mon Feb  6 15:41:12 2012

# 

@<TRIPOS>MOLECULE
DB02286
   29    30     0
SMALL
USER_CHARGE


@<TRIPOS>ATOM
      1 C1          7.2673   -3.6189    1.2121 C.ar      1 <1>         0.0000
      2 C2          7.6336   -2.2703    1.2446 C.ar      1 <1>         0.0000
      3 C3          5.9328   -4.0039    1.3232 C.ar      1 <1>         0.0000
      4 C4          5.4172    0.5711    1.6061 C.2       1 <1>         0.0000
      5 C5          5.2663   -1.6822    1.5062 C.ar      1 <1>         0.0000
      6 C6          4.5244   -0.4752    1.6400 C.2       1 <1>         0.0000
      7 C7          6.6118   -1.3256    1.3926 C.ar      1 <1>         0.0000
      8 C8          4.9213   -3.0479    1.4707 C.ar      1 <1>         0.0000
      9 C9          2.8791    1.4506   -0.0092 C.2       1 <1>         0.0000
     10 C10         3.0605   -0.3427    1.7893 C.3       1 <1>         0.0000
     11 C11         2.3391    0.1060    0.4995 C.3       1 <1>         0.0000
     12 N1          6.6736    0.0483    1.4563 N.pl3     1 <1>         0.0000
     13 N2          3.5840   -3.4860    1.5790 N.pl3     1 <1>         0.0000
     14 N3          2.4824   -0.9769   -0.5241 N.4       1 <1>         0.0000
     15 O1          2.8677    1.5836   -1.2660 O.co2     1 <1>        -0.5000
     16 O2          3.2747    2.2542    0.8817 O.co2     1 <1>        -0.5000
     17 H1          8.0369   -4.3783    1.0988 H         1 <1>         0.0000
     18 H2          8.6727   -1.9706    1.1589 H         1 <1>         0.0000
     19 H3          5.6850   -5.0626    1.2919 H         1 <1>         0.0000
     20 H4          5.2731    1.6405    1.6743 H         1 <1>         0.0000
     21 H5          2.8346    0.3876    2.5908 H         1 <1>         0.0000
     22 H6          2.6097   -1.2887    2.1480 H         1 <1>         0.0000
     23 H7          1.2602    0.1838    0.6801 H         1 <1>         0.0000
     24 H8          7.5237    0.5917    1.4010 H         1 <1>         0.0000
     25 H9          3.3835   -4.4620    1.5008 H         1 <1>         0.0000
     26 H10         2.8526   -2.8071    1.6370 H         1 <1>         0.0000
     27 H11         2.9745   -1.7774   -0.1252 H         1 <1>         0.0000
     28 H12         3.0114   -0.6351   -1.3277 H         1 <1>         0.0000
     29 H13         1.5631   -1.2845   -0.8443 H         1 <1>         0.0000
@<TRIPOS>BOND
     1    1    2 ar
     2    1    3 ar
     3    2    7 ar
     4    3    8 ar
     5    4    6 2
     6    4   12 1
     7    5    6 1
     8    5    7 ar
     9    5    8 ar
    10    6   10 1
    11    7   12 1
    12    8   13 1
    13    9   11 1
    14    9   15 1
    15    9   16 2
    16   10   11 1
    17   11   14 1
    18    1   17 1
    19    2   18 1
    20    3   19 1
    21    4   20 1
    22   10   21 1
    23   10   22 1
    24   11   23 1
    25   12   24 1
    26   13   25 1
    27   13   26 1
    28   14   27 1
    29   14   28 1
    30   14   29 1
@<TRIPOS>Similarity
1.6837
@<TRIPOS>ShapeSim
0.9567
@<TRIPOS>PharmSim
0.7271
# END
# Name:		DB02758
# Created and modified by SHAFTS on Mon Feb  6 15:41:12 2012

# 

@<TRIPOS>MOLECULE
DB02758
   24    25     0
SMALL
USER_CHARGE


@<TRIPOS>ATOM
      1 C1          6.0898   -3.8845    1.4357 C.ar      1 <1>         0.0000
      2 C2          7.3651   -3.3636    1.2263 C.ar      1 <1>         0.0000
      3 C3          4.9765   -3.0406    1.5207 C.ar      1 <1>         0.0000
      4 C4          7.5690   -1.9870    1.0953 C.ar      1 <1>         0.0000
      5 C5          5.0416    0.6031    1.2379 C.2       1 <1>         0.0000
      6 C6          5.1573   -1.6492    1.3917 C.ar      1 <1>         0.0000
      7 C7          4.2812   -0.5283    1.4242 C.2       1 <1>         0.0000
      8 C8          6.4468   -1.1555    1.1825 C.ar      1 <1>         0.0000
      9 C9          2.3674    1.5558    0.1756 C.2       1 <1>         0.0000
     10 C10         2.8179   -0.5610    1.6233 C.3       1 <1>         0.0000
     11 C11         2.0368    0.0891    0.4710 C.3       1 <1>         0.0000
     12 N1          6.3464    0.2147    1.0927 N.pl3     1 <1>         0.0000
     13 O1          2.1083    2.3445    1.1305 O.co2     1 <1>        -0.5000
     14 O2          2.8519    1.8096   -0.9609 O.co2     1 <1>        -0.5000
     15 H1          5.9565   -4.9585    1.5339 H         1 <1>         0.0000
     16 H2          8.2159   -4.0373    1.1636 H         1 <1>         0.0000
     17 H3          3.9886   -3.4623    1.6833 H         1 <1>         0.0000
     18 H4          8.5623   -1.5823    0.9334 H         1 <1>         0.0000
     19 H5          4.7721    1.6494    1.1938 H         1 <1>         0.0000
     20 H6          2.4631   -1.6011    1.7483 H         1 <1>         0.0000
     21 H7          2.5398   -0.0570    2.5676 H         1 <1>         0.0000
     22 H8          0.9615    0.0297    0.6840 H         1 <1>         0.0000
     23 H9          2.2095   -0.4810   -0.4509 H         1 <1>         0.0000
     24 H10         7.1240    0.8423    0.9416 H         1 <1>         0.0000
@<TRIPOS>BOND
     1    1    2 ar
     2    1    3 ar
     3    2    4 ar
     4    3    6 ar
     5    4    8 ar
     6    5    7 2
     7    5   12 1
     8    6    7 1
     9    6    8 ar
    10    7   10 1
    11    8   12 1
    12    9   11 1
    13    9   13 1
    14    9   14 2
    15   10   11 1
    16    1   15 1
    17    2   16 1
    18    3   17 1
    19    4   18 1
    20    5   19 1
    21   10   20 1
    22   10   21 1
    23   11   22 1
    24   11   23 1
    25   12   24 1
@<TRIPOS>Similarity
1.6580
@<TRIPOS>ShapeSim
0.9463
@<TRIPOS>PharmSim
0.7117
# END
# Name:		DB08653
# Created and modified by SHAFTS on Mon Feb  6 15:41:12 2012

# 

@<TRIPOS>MOLECULE
DB08653
   25    26     0
SMALL
USER_CHARGE


@<TRIPOS>ATOM
      1 C1          5.7537   -3.9406    1.3043 C.ar      1 <1>        -0.0615
      2 C2          7.1139   -3.6406    1.3429 C.ar      1 <1>        -0.0603
      3 C3          4.7948   -2.9211    1.3127 C.ar      1 <1>        -0.0528
      4 C4          7.5590   -2.3164    1.3909 C.ar      1 <1>        -0.0402
      5 C5          5.5009    0.6633    1.4321 C.2       1 <1>        -0.0034
      6 C6          5.2196   -1.5785    1.3608 C.ar      1 <1>         0.0001
      7 C7          4.5454   -0.3254    1.3822 C.2       1 <1>        -0.0269
      8 C8          6.5891   -1.3076    1.3987 C.ar      1 <1>         0.0375
      9 C9          3.0840   -0.1123    1.3575 C.3       1 <1>        -0.0417
     10 C10         2.4292   -0.3192   -0.0158 C.3       1 <1>        -0.0923
     11 N1          6.7304    0.0612    1.4415 N.pl3     1 <1>        -0.3203
     12 N2          0.9609   -0.1319    0.0865 N.4       1 <1>         0.3797
     13 H1          5.4322   -4.9779    1.2667 H         1 <1>         0.0623
     14 H2          7.8415   -4.4481    1.3356 H         1 <1>         0.0623
     15 H3          3.7382   -3.1713    1.2812 H         1 <1>         0.0630
     16 H4          8.6180   -2.0839    1.4220 H         1 <1>         0.0642
     17 H5          5.4172    1.7410    1.4602 H         1 <1>         0.0792
     18 H6          2.5931   -0.8086    2.0630 H         1 <1>         0.0297
     19 H7          2.8147    0.8942    1.7300 H         1 <1>         0.0297
     20 H8          2.5842   -1.3366   -0.3867 H         1 <1>         0.0052
     21 H9          2.7905    0.3968   -0.7602 H         1 <1>         0.0052
     22 H10         7.6143    0.5500    1.4750 H         1 <1>         0.1522
     23 H11         0.6988    0.8358   -0.1289 H         1 <1>        -0.0903
     24 H12         0.6296   -0.3461    1.0332 H         1 <1>        -0.0903
     25 H13         0.4663   -0.7468   -0.5685 H         1 <1>        -0.0903
@<TRIPOS>BOND
     1    1    2 ar
     2    1    3 ar
     3    2    4 ar
     4    3    6 ar
     5    4    8 ar
     6    5    7 2
     7    5   11 1
     8    6    7 1
     9    6    8 ar
    10    7    9 1
    11    8   11 1
    12    9   10 1
    13   10   12 1
    14    1   13 1
    15    2   14 1
    16    3   15 1
    17    4   16 1
    18    5   17 1
    19    9   18 1
    20    9   19 1
    21   10   20 1
    22   10   21 1
    23   11   22 1
    24   12   23 1
    25   12   24 1
    26   12   25 1
@<TRIPOS>Similarity
1.6431
@<TRIPOS>ShapeSim
0.9192
@<TRIPOS>PharmSim
0.7239
# END
# Name:		DB02988
# Created and modified by SHAFTS on Mon Feb  6 15:41:12 2012

# 

@<TRIPOS>MOLECULE
DB02988
   24    25     0
SMALL
USER_CHARGE


@<TRIPOS>ATOM
      1 C1          5.8289   -4.3432    1.3530 C.ar      1 <1>         0.0000
      2 C2          7.2098   -4.1568    1.3534 C.ar      1 <1>         0.0000
      3 C3          4.9584   -3.2487    1.4100 C.ar      1 <1>         0.0000
      4 C4          7.7642   -2.8749    1.4104 C.ar      1 <1>         0.0000
      5 C5          5.9619    0.2624    1.5699 C.2       1 <1>         0.0000
      6 C6          5.4941   -1.9468    1.4681 C.ar      1 <1>         0.0000
      7 C7          4.9268   -0.6433    1.5331 C.2       1 <1>         0.0000
      8 C8          6.8818   -1.7902    1.4671 C.ar      1 <1>         0.0000
      9 C9          3.0158    0.2299    0.2248 C.2       1 <1>         0.0000
     10 C10         3.0033    1.7017   -0.0822 C.2       1 <1>         0.0000
     11 C11         3.4880   -0.3103    1.5589 C.3       1 <1>         0.0000
     12 N1          2.5717   -0.5706   -0.6891 N.2       1 <1>         0.0000
     13 N2          7.1371   -0.4388    1.5294 N.pl3     1 <1>         0.0000
     14 O1          3.4121    2.4592    0.8442 O.co2     1 <1>        -0.5000
     15 O2          2.5876    2.0236   -1.2336 O.co2     1 <1>        -0.5000
     16 H1          5.4216   -5.3496    1.3075 H         1 <1>         0.0000
     17 H2          7.8676   -5.0211    1.3087 H         1 <1>         0.0000
     18 H3          3.8842   -3.4106    1.4079 H         1 <1>         0.0000
     19 H4          8.8393   -2.7308    1.4118 H         1 <1>         0.0000
     20 H5          5.9686    1.3426    1.6197 H         1 <1>         0.0000
     21 H6          3.2724    0.4531    2.3271 H         1 <1>         0.0000
     22 H7          2.8630   -1.1784    1.8280 H         1 <1>         0.0000
     23 H8          2.2744   -0.0482   -1.5199 H         1 <1>         0.0000
     24 H9          8.0590   -0.0250    1.5433 H         1 <1>         0.0000
@<TRIPOS>BOND
     1    1    2 ar
     2    1    3 ar
     3    2    4 ar
     4    3    6 ar
     5    4    8 ar
     6    5    7 2
     7    5   13 1
     8    6    7 1
     9    6    8 ar
    10    7   11 1
    11    8   13 1
    12    9   10 1
    13    9   11 1
    14    9   12 2
    15   10   14 1
    16   10   15 2
    17    1   16 1
    18    2   17 1
    19    3   18 1
    20    4   19 1
    21    5   20 1
    22   11   21 1
    23   11   22 1
    24   12   23 1
    25   13   24 1
@<TRIPOS>Similarity
1.6402
@<TRIPOS>ShapeSim
0.9537
@<TRIPOS>PharmSim
0.6866
# END
# Name:		DB04236
# Created and modified by SHAFTS on Mon Feb  6 15:41:12 2012

# 

@<TRIPOS>MOLECULE
DB04236
   29    30     0
SMALL
USER_CHARGE


@<TRIPOS>ATOM
      1 C1          5.8385   -4.0039    1.4110 C.ar      1 <1>        -0.0615
      2 C2          7.2010   -3.7190    1.3483 C.ar      1 <1>        -0.0603
      3 C3          4.8914   -2.9736    1.4302 C.ar      1 <1>        -0.0528
      4 C4          7.6602   -2.3995    1.3029 C.ar      1 <1>        -0.0402
      5 C5          5.6359    0.6035    1.3285 C.2       1 <1>        -0.0034
      6 C6          5.3304   -1.6355    1.3853 C.ar      1 <1>         0.0001
      7 C7          4.6703   -0.3748    1.3879 C.2       1 <1>        -0.0265
      8 C8          6.7019   -1.3798    1.3228 C.ar      1 <1>         0.0375
      9 C9          3.2123   -0.1454    1.4456 C.3       1 <1>        -0.0367
     10 C10         2.6693    1.7606   -0.1647 C.3       1 <1>         0.0307
     11 C11         2.5702    0.2595    0.1002 C.3       1 <1>        -0.0560
     12 N1          6.8580   -0.0124    1.2893 N.pl3     1 <1>        -0.3203
     13 N2          1.1206   -0.1059    0.1261 N.4       1 <1>         0.3830
     14 O1          4.0310    2.1715   -0.2011 O.3       1 <1>        -0.3980
     15 H1          5.5059   -5.0379    1.4449 H         1 <1>         0.0623
     16 H2          7.9194   -4.5346    1.3345 H         1 <1>         0.0623
     17 H3          3.8326   -3.2122    1.4782 H         1 <1>         0.0630
     18 H4          8.7211   -2.1786    1.2552 H         1 <1>         0.0642
     19 H5          5.5639    1.6823    1.3089 H         1 <1>         0.0792
     20 H6          2.9961    0.6550    2.1793 H         1 <1>         0.0301
     21 H7          2.6794   -1.0315    1.8426 H         1 <1>         0.0301
     22 H8          2.2047    2.0341   -1.1181 H         1 <1>         0.0546
     23 H9          2.1718    2.3301    0.6274 H         1 <1>         0.0546
     24 H10         2.9989   -0.3076   -0.7338 H         1 <1>         0.0112
     25 H11         7.7466    0.4668    1.2425 H         1 <1>         0.1522
     26 H12         0.5582    0.6419   -0.2835 H         1 <1>        -0.0898
     27 H13         0.8101   -0.2574    1.0876 H         1 <1>        -0.0898
     28 H14         0.9606   -0.9628   -0.4066 H         1 <1>        -0.0898
     29 H15         4.0292    3.1269   -0.3716 H         1 <1>         0.2099
@<TRIPOS>BOND
     1    1    2 ar
     2    1    3 ar
     3    2    4 ar
     4    3    6 ar
     5    4    8 ar
     6    5    7 2
     7    5   12 1
     8    6    7 1
     9    6    8 ar
    10    7    9 1
    11    8   12 1
    12    9   11 1
    13   10   11 1
    14   10   14 1
    15   11   13 1
    16    1   15 1
    17    2   16 1
    18    3   17 1
    19    4   18 1
    20    5   19 1
    21    9   20 1
    22    9   21 1
    23   10   22 1
    24   10   23 1
    25   11   24 1
    26   12   25 1
    27   13   26 1
    28   13   27 1
    29   13   28 1
    30   14   29 1
@<TRIPOS>Similarity
1.6273
@<TRIPOS>ShapeSim
0.9753
@<TRIPOS>PharmSim
0.6519
# END
# Name:		DB02740
# Created and modified by SHAFTS on Mon Feb  6 15:41:12 2012

# 

@<TRIPOS>MOLECULE
DB02740
   27    28     0
SMALL
USER_CHARGE


@<TRIPOS>ATOM
      1 C1          5.8976   -3.9416    1.2066 C.ar      1 <1>         0.0000
      2 C2          7.2049   -3.5470    0.9295 C.ar      1 <1>         0.0000
      3 C3          4.9146   -2.9952    1.5182 C.ar      1 <1>         0.0000
      4 C4          7.5715   -2.1983    0.9544 C.ar      1 <1>         0.0000
      5 C5          5.4222    0.6201    1.6981 C.2       1 <1>         0.0000
      6 C6          5.2605   -1.6296    1.5494 C.ar      1 <1>         0.0000
      7 C7          4.5426   -0.4309    1.8190 C.2       1 <1>         0.0000
      8 C8          6.5783   -1.2634    1.2674 C.ar      1 <1>         0.0000
      9 C9          1.9596    1.2539   -0.3198 C.2       1 <1>         0.0000
     10 C10         3.1116   -0.3223    2.1685 C.3       1 <1>         0.0000
     11 C11         2.2628   -0.2462   -0.2639 C.3       1 <1>         0.0000
     12 C12         2.1371   -0.8966    1.1130 C.3       1 <1>         0.0000
     13 N1          6.6474    0.1081    1.3649 N.pl3     1 <1>         0.0000
     14 O1          1.0510    1.6658    0.4533 O.co2     1 <1>        -0.5000
     15 O2          2.6780    1.9031   -1.1325 O.co2     1 <1>        -0.5000
     16 H1          5.6367   -4.9961    1.1805 H         1 <1>         0.0000
     17 H2          7.9526   -4.2988    0.6900 H         1 <1>         0.0000
     18 H3          3.8996   -3.3188    1.7309 H         1 <1>         0.0000
     19 H4          8.5898   -1.8922    0.7396 H         1 <1>         0.0000
     20 H5          5.2868    1.6863    1.8174 H         1 <1>         0.0000
     21 H6          2.8460    0.7425    2.3211 H         1 <1>         0.0000
     22 H7          2.8952   -0.7945    3.1468 H         1 <1>         0.0000
     23 H8          1.6308   -0.7739   -0.9880 H         1 <1>         0.0000
     24 H9          3.2964   -0.3668   -0.6124 H         1 <1>         0.0000
     25 H10         1.1065   -0.7673    1.4664 H         1 <1>         0.0000
     26 H11         2.2962   -1.9781    1.0212 H         1 <1>         0.0000
     27 H12         7.4823    0.6569    1.2125 H         1 <1>         0.0000
@<TRIPOS>BOND
     1    1    2 ar
     2    1    3 ar
     3    2    4 ar
     4    3    6 ar
     5    4    8 ar
     6    5    7 2
     7    5   13 1
     8    6    7 1
     9    6    8 ar
    10    7   10 1
    11    8   13 1
    12    9   11 1
    13    9   14 1
    14    9   15 2
    15   10   12 1
    16   11   12 1
    17    1   16 1
    18    2   17 1
    19    3   18 1
    20    4   19 1
    21    5   20 1
    22   10   21 1
    23   10   22 1
    24   11   23 1
    25   11   24 1
    26   12   25 1
    27   12   26 1
    28   13   27 1
@<TRIPOS>Similarity
1.6012
@<TRIPOS>ShapeSim
0.9114
@<TRIPOS>PharmSim
0.6898
# END
# Name:		DB07723
# Created and modified by SHAFTS on Mon Feb  6 15:41:12 2012

# 

@<TRIPOS>MOLECULE
DB07723
   28    29     0
SMALL
USER_CHARGE


@<TRIPOS>ATOM
      1 C1          7.5191   -2.1375    1.0472 C.ar      1 <1>         0.0000
      2 C2          7.2700   -3.5025    1.2167 C.ar      1 <1>         0.0000
      3 C3          4.9062   -3.0847    1.5840 C.ar      1 <1>         0.0000
      4 C4          5.0939    0.5470    1.2151 C.2       1 <1>         0.0000
      5 C5          5.1329   -1.7041    1.4169 C.ar      1 <1>         0.0000
      6 C6          4.2997   -0.5511    1.4530 C.2       1 <1>         0.0000
      7 C7          6.4315   -1.2632    1.1529 C.ar      1 <1>         0.0000
      8 C8          5.9846   -3.9710    1.4809 C.ar      1 <1>         0.0000
      9 C9          2.4215    1.5724    0.2159 C.2       1 <1>         0.0000
     10 C10         6.9086   -6.1619    1.5239 C.3       1 <1>         0.0000
     11 C11         2.8439   -0.5256    1.6994 C.3       1 <1>         0.0000
     12 C12         2.0487    0.1259    0.5574 C.3       1 <1>         0.0000
     13 N1          6.3779    0.1074    1.0350 N.pl3     1 <1>         0.0000
     14 O1          2.2223    2.3918    1.1590 O.co2     1 <1>        -0.5000
     15 O2          2.8769    1.7819   -0.9416 O.co2     1 <1>        -0.5000
     16 O3          5.7727   -5.3079    1.6406 O.3       1 <1>         0.0000
     17 H1          8.5204   -1.7738    0.8420 H         1 <1>         0.0000
     18 H2          8.0979   -4.2037    1.1408 H         1 <1>         0.0000
     19 H3          3.9072   -3.4596    1.7897 H         1 <1>         0.0000
     20 H4          4.8618    1.6014    1.1577 H         1 <1>         0.0000
     21 H5          6.6018   -7.2000    1.6723 H         1 <1>         0.0000
     22 H6          7.6551   -5.8810    2.2712 H         1 <1>         0.0000
     23 H7          7.3362   -6.0501    0.5247 H         1 <1>         0.0000
     24 H8          2.4562   -1.5489    1.8610 H         1 <1>         0.0000
     25 H9          2.6150    0.0098    2.6398 H         1 <1>         0.0000
     26 H10         0.9797    0.1106    0.8063 H         1 <1>         0.0000
     27 H11         2.1705   -0.4714   -0.3555 H         1 <1>         0.0000
     28 H12         7.1723    0.7022    0.8439 H         1 <1>         0.0000
@<TRIPOS>BOND
     1    1    2 ar
     2    1    7 ar
     3    2    8 ar
     4    3    5 ar
     5    3    8 ar
     6    4    6 2
     7    4   13 1
     8    5    6 1
     9    5    7 ar
    10    6   11 1
    11    7   13 1
    12    8   16 1
    13    9   12 1
    14    9   14 1
    15    9   15 2
    16   10   16 1
    17   11   12 1
    18    1   17 1
    19    2   18 1
    20    3   19 1
    21    4   20 1
    22   10   21 1
    23   10   22 1
    24   10   23 1
    25   11   24 1
    26   11   25 1
    27   12   26 1
    28   12   27 1
    29   13   28 1
@<TRIPOS>Similarity
1.5870
@<TRIPOS>ShapeSim
0.9112
@<TRIPOS>PharmSim
0.6758
# END
# Name:		DB04061
# Created and modified by SHAFTS on Mon Feb  6 15:41:12 2012

# 

@<TRIPOS>MOLECULE
DB04061
   27    28     0
SMALL
USER_CHARGE


@<TRIPOS>ATOM
      1 C1          7.7965   -3.0864    1.4725 C.ar      1 <1>         0.0000
      2 C2          6.8701   -4.0527    1.8946 C.ar      1 <1>         0.0000
      3 C3          7.3647   -1.8456    0.9988 C.ar      1 <1>         0.0000
      4 C4          5.4989   -3.7922    1.8485 C.ar      1 <1>         0.0000
      5 C5          6.0037   -1.5918    0.9682 C.ar      1 <1>         0.0000
      6 C6          5.0806   -2.5548    1.3885 C.ar      1 <1>         0.0000
      7 C7          2.9823    1.5811   -0.0874 C.2       1 <1>         0.0000
      8 C8          5.3087   -0.3617    0.4741 C.3       1 <1>         0.0000
      9 C9          3.6771   -2.0639    1.2167 C.3       1 <1>         0.0000
     10 C10         3.8882   -0.5414    1.0560 C.3       1 <1>         0.0000
     11 C11         2.8275    0.0738    0.1358 C.3       1 <1>         0.0000
     12 N1          2.8489   -0.7067   -1.1363 N.4       1 <1>         0.0000
     13 O1          2.6039    2.0349   -1.2026 O.co2     1 <1>        -0.5000
     14 O2          3.4887    2.1971    0.8951 O.co2     1 <1>        -0.5000
     15 H1          8.8594   -3.3092    1.5102 H         1 <1>         0.0000
     16 H2          7.2242   -5.0150    2.2544 H         1 <1>         0.0000
     17 H3          8.0821   -1.1045    0.6633 H         1 <1>         0.0000
     18 H4          4.7842   -4.5441    2.1652 H         1 <1>         0.0000
     19 H5          5.7927    0.5562    0.8205 H         1 <1>         0.0000
     20 H6          5.2824   -0.3737   -0.6209 H         1 <1>         0.0000
     21 H7          3.2501   -2.4932    0.3038 H         1 <1>         0.0000
     22 H8          3.0426   -2.3127    2.0724 H         1 <1>         0.0000
     23 H9          3.8056   -0.0405    2.0281 H         1 <1>         0.0000
     24 H10         1.8441   -0.1060    0.5770 H         1 <1>         0.0000
     25 H11         3.2678   -0.1545   -1.8879 H         1 <1>         0.0000
     26 H12         1.8988   -0.9631   -1.4142 H         1 <1>         0.0000
     27 H13         3.3948   -1.5635   -1.0212 H         1 <1>         0.0000
@<TRIPOS>BOND
     1    1    2 ar
     2    1    3 ar
     3    2    4 ar
     4    3    5 ar
     5    4    6 ar
     6    5    6 ar
     7    5    8 1
     8    6    9 1
     9    7   11 1
    10    7   13 1
    11    7   14 2
    12    8   10 1
    13    9   10 1
    14   10   11 1
    15   11   12 1
    16    1   15 1
    17    2   16 1
    18    3   17 1
    19    4   18 1
    20    8   19 1
    21    8   20 1
    22    9   21 1
    23    9   22 1
    24   10   23 1
    25   11   24 1
    26   12   25 1
    27   12   26 1
    28   12   27 1
@<TRIPOS>Similarity
1.5821
@<TRIPOS>ShapeSim
0.8815
@<TRIPOS>PharmSim
0.7007
# END
# Name:		DB08649
# Created and modified by SHAFTS on Mon Feb  6 15:41:12 2012

# 

@<TRIPOS>MOLECULE
DB08649
   26    27     0
SMALL
USER_CHARGE


@<TRIPOS>ATOM
      1 C1          6.0996   -4.0119    1.3960 C.ar      1 <1>        -0.0615
      2 C2          7.4218   -3.5721    1.3961 C.ar      1 <1>        -0.0603
      3 C3          5.0403   -3.0970    1.3961 C.ar      1 <1>        -0.0528
      4 C4          7.7277   -2.2081    1.3962 C.ar      1 <1>        -0.0402
      5 C5          5.3725    0.5431    1.3968 C.2       1 <1>        -0.0033
      6 C6          5.3243   -1.7169    1.3962 C.ar      1 <1>         0.0002
      7 C7          4.5241   -0.5401    1.3963 C.2       1 <1>        -0.0244
      8 C8          6.6587   -1.3051    1.3963 C.ar      1 <1>         0.0375
      9 C9          3.0483   -0.4798    1.3976 C.3       1 <1>        -0.0159
     10 C10         2.4496   -0.1460    0.0134 C.3       1 <1>         0.0213
     11 N1          6.6579    0.0716    1.3965 N.pl3     1 <1>        -0.3203
     12 N2          0.9709   -0.0146    0.1452 N.4       1 <1>         0.3964
     13 O1          2.8651   -1.1390   -0.9184 O.3       1 <1>        -0.4115
     14 H1          5.8868   -5.0775    1.3954 H         1 <1>         0.0623
     15 H2          8.2290   -4.3000    1.3962 H         1 <1>         0.0623
     16 H3          4.0150   -3.4558    1.3951 H         1 <1>         0.0630
     17 H4          8.7573   -1.8667    1.3973 H         1 <1>         0.0642
     18 H5          5.1779    1.6068    1.3957 H         1 <1>         0.0792
     19 H6          2.7039    0.2721    2.1365 H         1 <1>         0.0322
     20 H7          2.6165   -1.4401    1.7474 H         1 <1>         0.0322
     21 H8          2.8069    0.8279   -0.3384 H         1 <1>         0.0384
     22 H9          7.4867    0.6499    1.3965 H         1 <1>         0.1522
     23 H10         0.5412    0.2103   -0.7615 H         1 <1>        -0.0862
     24 H11         0.7103    0.7323    0.8029 H         1 <1>        -0.0862
     25 H12         0.5447   -0.8896    0.4781 H         1 <1>        -0.0862
     26 H13         2.4767   -0.9075   -1.7793 H         1 <1>         0.2076
@<TRIPOS>BOND
     1    1    2 ar
     2    1    3 ar
     3    2    4 ar
     4    3    6 ar
     5    4    8 ar
     6    5    7 2
     7    5   11 1
     8    6    7 1
     9    6    8 ar
    10    7    9 1
    11    8   11 1
    12    9   10 1
    13   10   12 1
    14   10   13 1
    15    1   14 1
    16    2   15 1
    17    3   16 1
    18    4   17 1
    19    5   18 1
    20    9   19 1
    21    9   20 1
    22   10   21 1
    23   11   22 1
    24   12   23 1
    25   12   24 1
    26   12   25 1
    27   13   26 1
@<TRIPOS>Similarity
1.5782
@<TRIPOS>ShapeSim
0.9149
@<TRIPOS>PharmSim
0.6634
# END
# Name:		DB01488
# Created and modified by SHAFTS on Mon Feb  6 15:41:12 2012

# 

@<TRIPOS>MOLECULE
DB01488
   31    32     0
SMALL
USER_CHARGE


@<TRIPOS>ATOM
      1 C1          5.8286   -4.0059    1.3152 C.ar      1 <1>        -0.0615
      2 C2          7.1943   -3.7319    1.3512 C.ar      1 <1>        -0.0603
      3 C3          4.8892   -2.9685    1.3290 C.ar      1 <1>        -0.0528
      4 C4          7.6644   -2.4165    1.4017 C.ar      1 <1>        -0.0402
      5 C5          5.6633    0.6016    1.4569 C.2       1 <1>        -0.0034
      6 C6          5.3394   -1.6343    1.3798 C.ar      1 <1>         0.0001
      7 C7          4.6892   -0.3688    1.4066 C.2       1 <1>        -0.0268
      8 C8          6.7139   -1.3896    1.4150 C.ar      1 <1>         0.0375
      9 C9          0.4309   -1.1289    0.9986 C.3       1 <1>        -0.1038
     10 C10         0.7549    1.2993    0.5522 C.3       1 <1>        -0.1038
     11 C11         3.2320   -0.1279    1.3864 C.3       1 <1>        -0.0408
     12 C12         2.5700   -0.3183    0.0142 C.3       1 <1>        -0.0875
     13 N1          6.8812   -0.0238    1.4613 N.pl3     1 <1>        -0.3203
     14 N2          1.1056   -0.1036    0.1209 N.4       1 <1>         0.3782
     15 H1          5.4873   -5.0368    1.2755 H         1 <1>         0.0623
     16 H2          7.9064   -4.5531    1.3397 H         1 <1>         0.0623
     17 H3          3.8279   -3.1985    1.2996 H         1 <1>         0.0630
     18 H4          8.7278   -2.2042    1.4308 H         1 <1>         0.0642
     19 H5          5.6002    1.6806    1.4884 H         1 <1>         0.0792
     20 H6          0.8405   -1.0280    2.0054 H         1 <1>         0.0022
     21 H7         -0.6413   -0.9237    0.9885 H         1 <1>         0.0022
     22 H8          0.6455   -2.1161    0.5849 H         1 <1>         0.0022
     23 H9          1.1720    1.4565    1.5486 H         1 <1>         0.0022
     24 H10         1.1931    1.9905   -0.1703 H         1 <1>         0.0022
     25 H11        -0.3335    1.3827    0.5648 H         1 <1>         0.0022
     26 H12         2.7299   -0.8168    2.0911 H         1 <1>         0.0297
     27 H13         2.9828    0.8825    1.7625 H         1 <1>         0.0297
     28 H14         2.7047   -1.3375   -0.3600 H         1 <1>         0.0062
     29 H15         2.9428    0.3929   -0.7290 H         1 <1>         0.0062
     30 H16         7.7744    0.4480    1.4941 H         1 <1>         0.1522
     31 H17         0.6990   -0.2228   -0.8228 H         1 <1>        -0.0829
@<TRIPOS>BOND
     1    1    2 ar
     2    1    3 ar
     3    2    4 ar
     4    3    6 ar
     5    4    8 ar
     6    5    7 2
     7    5   13 1
     8    6    7 1
     9    6    8 ar
    10    7   11 1
    11    8   13 1
    12    9   14 1
    13   10   14 1
    14   11   12 1
    15   12   14 1
    16    1   15 1
    17    2   16 1
    18    3   17 1
    19    4   18 1
    20    5   19 1
    21    9   20 1
    22    9   21 1
    23    9   22 1
    24   10   23 1
    25   10   24 1
    26   10   25 1
    27   11   26 1
    28   11   27 1
    29   12   28 1
    30   12   29 1
    31   13   30 1
    32   14   31 1
@<TRIPOS>Similarity
1.5764
@<TRIPOS>ShapeSim
0.8981
@<TRIPOS>PharmSim
0.6783
# END
# Name:		DB02000
# Created and modified by SHAFTS on Mon Feb  6 15:41:12 2012

# 

@<TRIPOS>MOLECULE
DB02000
   23    23     0
SMALL
USER_CHARGE


@<TRIPOS>ATOM
      1 C1          7.4189   -3.8124    1.4906 C.ar      1 <1>         0.0000
      2 C2          7.7198   -2.5148    1.9042 C.ar      1 <1>         0.0000
      3 C3          6.1396   -4.1175    1.0258 C.ar      1 <1>         0.0000
      4 C4          6.7411   -1.5220    1.8531 C.ar      1 <1>         0.0000
      5 C5          5.1611   -3.1248    0.9748 C.ar      1 <1>         0.0000
      6 C6          5.4618   -1.8270    1.3884 C.ar      1 <1>         0.0000
      7 C7          2.8724    1.5668   -0.0855 C.2       1 <1>         0.0000
      8 C8          4.4034   -0.7545    1.3332 C.3       1 <1>         0.0000
      9 C9          2.3241    0.1513    0.1174 C.3       1 <1>         0.0000
     10 C10         3.3714   -0.9569    0.2159 C.3       1 <1>         0.0000
     11 O1          3.5597    2.0372    0.8626 O.co2     1 <1>        -0.5000
     12 O2          2.5772    2.0876   -1.1990 O.co2     1 <1>        -0.5000
     13 H1          8.1814   -4.5850    1.5291 H         1 <1>         0.0000
     14 H2          8.7161   -2.2768    2.2650 H         1 <1>         0.0000
     15 H3          5.9054   -5.1274    0.7026 H         1 <1>         0.0000
     16 H4          6.9845   -0.5137    2.1776 H         1 <1>         0.0000
     17 H5          4.1670   -3.3716    0.6114 H         1 <1>         0.0000
     18 H6          4.9040    0.2110    1.1831 H         1 <1>         0.0000
     19 H7          3.9002   -0.6731    2.3042 H         1 <1>         0.0000
     20 H8          1.6747    0.1342    1.0006 H         1 <1>         0.0000
     21 H9          1.6772   -0.0572   -0.7442 H         1 <1>         0.0000
     22 H10         2.8537   -1.9136    0.3591 H         1 <1>         0.0000
     23 H11         3.9071   -1.0381   -0.7380 H         1 <1>         0.0000
@<TRIPOS>BOND
     1    1    2 ar
     2    1    3 ar
     3    2    4 ar
     4    3    5 ar
     5    4    6 ar
     6    5    6 ar
     7    6    8 1
     8    7    9 1
     9    7   11 1
    10    7   12 2
    11    8   10 1
    12    9   10 1
    13    1   13 1
    14    2   14 1
    15    3   15 1
    16    4   16 1
    17    5   17 1
    18    8   18 1
    19    8   19 1
    20    9   20 1
    21    9   21 1
    22   10   22 1
    23   10   23 1
@<TRIPOS>Similarity
1.5718
@<TRIPOS>ShapeSim
0.8936
@<TRIPOS>PharmSim
0.6782
# END
# Name:		DB02685
# Created and modified by SHAFTS on Mon Feb  6 15:41:12 2012

# 

@<TRIPOS>MOLECULE
DB02685
   26    26     0
SMALL
USER_CHARGE


@<TRIPOS>ATOM
      1 C1          6.7632    0.0923    1.7493 C.ar      1 <1>         0.0000
      2 C2          7.1467   -1.2310    1.5316 C.ar      1 <1>         0.0000
      3 C3          5.4114    0.4364    1.7446 C.ar      1 <1>         0.0000
      4 C4          4.8267   -1.8659    1.3041 C.ar      1 <1>         0.0000
      5 C5          6.1785   -2.2101    1.3089 C.ar      1 <1>         0.0000
      6 C6          4.4432   -0.5427    1.5219 C.ar      1 <1>         0.0000
      7 C7          2.7922    1.6911   -0.2045 C.2       1 <1>         0.0000
      8 C8          6.5893   -3.6251    1.0775 C.3       1 <1>         0.0000
      9 C9          2.9862   -0.1714    1.5161 C.3       1 <1>         0.0000
     10 C10         2.4750    0.2250    0.1250 C.3       1 <1>         0.0000
     11 N1          1.0043   -0.0530    0.1006 N.4       1 <1>         0.0000
     12 O1          3.8700    2.1236    0.2941 O.co2     1 <1>        -0.5000
     13 O2          1.9411    2.2875   -0.9225 O.co2     1 <1>        -0.5000
     14 H1          7.5172    0.8546    1.9229 H         1 <1>         0.0000
     15 H2          8.2023   -1.4899    1.5377 H         1 <1>         0.0000
     16 H3          5.1218    1.4701    1.9144 H         1 <1>         0.0000
     17 H4          4.0714   -2.6289    1.1315 H         1 <1>         0.0000
     18 H5          6.6440   -4.1674    2.0294 H         1 <1>         0.0000
     19 H6          5.8784   -4.1442    0.4216 H         1 <1>         0.0000
     20 H7          7.5708   -3.6801    0.5888 H         1 <1>         0.0000
     21 H8          2.8409    0.6636    2.2161 H         1 <1>         0.0000
     22 H9          2.3898   -0.9997    1.9219 H         1 <1>         0.0000
     23 H10         2.9037   -0.4292   -0.6434 H         1 <1>         0.0000
     24 H11         0.7065   -0.2982   -0.8447 H         1 <1>         0.0000
     25 H12         0.4841    0.7715    0.4038 H         1 <1>         0.0000
     26 H13         0.7808   -0.8289    0.7254 H         1 <1>         0.0000
@<TRIPOS>BOND
     1    1    2 ar
     2    1    3 ar
     3    2    5 ar
     4    3    6 ar
     5    4    5 ar
     6    4    6 ar
     7    5    8 1
     8    6    9 1
     9    7   10 1
    10    7   12 1
    11    7   13 2
    12    9   10 1
    13   10   11 1
    14    1   14 1
    15    2   15 1
    16    3   16 1
    17    4   17 1
    18    8   18 1
    19    8   19 1
    20    8   20 1
    21    9   21 1
    22    9   22 1
    23   10   23 1
    24   11   24 1
    25   11   25 1
    26   11   26 1
@<TRIPOS>Similarity
1.5717
@<TRIPOS>ShapeSim
0.9283
@<TRIPOS>PharmSim
0.6434
# END
# Name:		DB08652
# Created and modified by SHAFTS on Mon Feb  6 15:41:12 2012

# 

@<TRIPOS>MOLECULE
DB08652
   23    24     0
SMALL
USER_CHARGE


@<TRIPOS>ATOM
      1 C1          5.7515   -3.7963    1.6163 C.ar      1 <1>        -0.0615
      2 C2          7.1048   -3.4942    1.7535 C.ar      1 <1>        -0.0603
      3 C3          4.8192   -2.7930    1.3281 C.ar      1 <1>        -0.0527
      4 C4          7.5693   -2.1839    1.6075 C.ar      1 <1>        -0.0402
      5 C5          5.5823    0.7518    0.8660 C.2       1 <1>        -0.0028
      6 C6          5.2639   -1.4646    1.1765 C.ar      1 <1>         0.0007
      7 C7          4.6179   -0.2293    0.8903 C.2       1 <1>        -0.0159
      8 C8          6.6259   -1.1912    1.3195 C.ar      1 <1>         0.0375
      9 C9          2.8336    0.5904   -0.6937 C.2       1 <1>         0.2136
     10 C10         3.1732   -0.0246    0.6608 C.3       1 <1>         0.0512
     11 N1          6.7902    0.1619    1.1256 N.pl3     1 <1>        -0.3203
     12 N2          2.5491   -0.3495   -1.6617 N.am      1 <1>        -0.3289
     13 O1          2.8191    1.8012   -0.8973 O.2       1 <1>        -0.2775
     14 H1          5.4145   -4.8227    1.7338 H         1 <1>         0.0623
     15 H2          7.8116   -4.2890    1.9777 H         1 <1>         0.0623
     16 H3          3.7676   -3.0448    1.2232 H         1 <1>         0.0630
     17 H4          8.6229   -1.9495    1.7156 H         1 <1>         0.0642
     18 H5          5.5185    1.8160    0.6858 H         1 <1>         0.0792
     19 H6          2.6172   -0.9791    0.7367 H         1 <1>         0.0415
     20 H7          2.7354    0.6278    1.4412 H         1 <1>         0.0415
     21 H8          7.6748    0.6486    1.1690 H         1 <1>         0.1522
     22 H9          2.5815   -1.3361   -1.4258 H         1 <1>         0.1455
     23 H10         2.3077   -0.0689   -2.6063 H         1 <1>         0.1455
@<TRIPOS>BOND
     1    1    2 ar
     2    1    3 ar
     3    2    4 ar
     4    3    6 ar
     5    4    8 ar
     6    5    7 2
     7    5   11 1
     8    6    7 1
     9    6    8 ar
    10    7   10 1
    11    8   11 1
    12    9   10 1
    13    9   12 am
    14    9   13 2
    15    1   14 1
    16    2   15 1
    17    3   16 1
    18    4   17 1
    19    5   18 1
    20   10   19 1
    21   10   20 1
    22   11   21 1
    23   12   22 1
    24   12   23 1
@<TRIPOS>Similarity
1.5638
@<TRIPOS>ShapeSim
0.8882
@<TRIPOS>PharmSim
0.6756
# END
# Name:		DB01546
# Created and modified by SHAFTS on Mon Feb  6 15:41:12 2012

# 

@<TRIPOS>MOLECULE
DB01546
   31    32     0
SMALL
USER_CHARGE


@<TRIPOS>ATOM
      1 C1          5.4516   -3.8706    1.1332 C.ar      1 <1>        -0.0615
      2 C2          6.8286   -3.7596    1.3162 C.ar      1 <1>        -0.0603
      3 C3          4.6353   -2.7337    1.1306 C.ar      1 <1>        -0.0528
      4 C4          7.4327   -2.5128    1.5019 C.ar      1 <1>        -0.0402
      5 C5          5.7798    0.7088    1.5783 C.2       1 <1>        -0.0034
      6 C6          5.2219   -1.4660    1.3161 C.ar      1 <1>         0.0001
      7 C7          4.7151   -0.1374    1.3695 C.2       1 <1>        -0.0266
      8 C8          6.6042   -1.3850    1.4972 C.ar      1 <1>         0.0375
      9 C9          4.4280    0.8866   -1.5280 C.3       1 <1>        -0.0669
     10 C10         3.2780    0.2790    1.2267 C.3       1 <1>        -0.0389
     11 C11         2.9389    0.7532   -1.2375 C.3       1 <1>        -0.0688
     12 C12         2.6180   -0.1990   -0.0773 C.3       1 <1>        -0.0801
     13 N1          6.9149   -0.0530    1.6537 N.pl3     1 <1>        -0.3203
     14 N2          1.1386   -0.2522    0.1170 N.4       1 <1>         0.3815
     15 H1          5.0051   -4.8509    0.9901 H         1 <1>         0.0623
     16 H2          7.4436   -4.6557    1.3146 H         1 <1>         0.0623
     17 H3          3.5637   -2.8369    0.9858 H         1 <1>         0.0630
     18 H4          8.5044   -2.4275    1.6454 H         1 <1>         0.0642
     19 H5          5.8327    1.7841    1.6785 H         1 <1>         0.0792
     20 H6          4.9506    1.2563   -0.6399 H         1 <1>         0.0230
     21 H7          4.6073    1.5934   -2.3444 H         1 <1>         0.0230
     22 H8          4.8753   -0.0749   -1.7957 H         1 <1>         0.0230
     23 H9          3.1897    1.3705    1.3130 H         1 <1>         0.0300
     24 H10         2.7209   -0.1288    2.0816 H         1 <1>         0.0300
     25 H11         2.4496    0.3819   -2.1466 H         1 <1>         0.0247
     26 H12         2.5218    1.7486   -1.0404 H         1 <1>         0.0247
     27 H13         2.9286   -1.2203   -0.3259 H         1 <1>         0.0088
     28 H14         7.8466    0.3093    1.8027 H         1 <1>         0.1522
     29 H15         0.8721   -1.1144    0.5972 H         1 <1>        -0.0899
     30 H16         0.6590   -0.2226   -0.7854 H         1 <1>        -0.0899
     31 H17         0.8232    0.5420    0.6780 H         1 <1>        -0.0899
@<TRIPOS>BOND
     1    1    2 ar
     2    1    3 ar
     3    2    4 ar
     4    3    6 ar
     5    4    8 ar
     6    5    7 2
     7    5   13 1
     8    6    7 1
     9    6    8 ar
    10    7   10 1
    11    8   13 1
    12    9   11 1
    13   10   12 1
    14   11   12 1
    15   12   14 1
    16    1   15 1
    17    2   16 1
    18    3   17 1
    19    4   18 1
    20    5   19 1
    21    9   20 1
    22    9   21 1
    23    9   22 1
    24   10   23 1
    25   10   24 1
    26   11   25 1
    27   11   26 1
    28   12   27 1
    29   13   28 1
    30   14   29 1
    31   14   30 1
    32   14   31 1
@<TRIPOS>Similarity
1.5619
@<TRIPOS>ShapeSim
0.9056
@<TRIPOS>PharmSim
0.6563
# END
# Name:		DB02434
# Created and modified by SHAFTS on Mon Feb  6 15:41:12 2012

# 

@<TRIPOS>MOLECULE
DB02434
   20    20     0
SMALL
USER_CHARGE


@<TRIPOS>ATOM
      1 C1          6.6944   -3.8534    1.4893 C.2       1 <1>         0.0000
      2 C2          5.4352   -3.1866    1.5024 C.2       1 <1>         0.0000
      3 C3          7.7429   -2.9757    1.3225 C.2       1 <1>         0.0000
      4 C4          5.5695   -1.8245    1.3452 C.2       1 <1>         0.0000
      5 C5          2.9062    1.5329   -0.0797 C.2       1 <1>         0.0000
      6 C6          4.4889   -0.7735    1.3061 C.3       1 <1>         0.0000
      7 C7          2.3879    0.1039    0.1070 C.3       1 <1>         0.0000
      8 C8          3.4582   -0.9835    0.1890 C.3       1 <1>         0.0000
      9 O1          3.5862    2.0056    0.8725 O.co2     1 <1>        -0.5000
     10 O2          2.5971    2.0612   -1.1859 O.co2     1 <1>        -0.5000
     11 S1          7.2082   -1.3550    1.1827 S.3       1 <1>         0.0000
     12 H1          6.8252   -4.9221    1.5975 H         1 <1>         0.0000
     13 H2          4.4818   -3.6853    1.6227 H         1 <1>         0.0000
     14 H3          8.7973   -3.2088    1.2759 H         1 <1>         0.0000
     15 H4          4.9691    0.2039    1.1668 H         1 <1>         0.0000
     16 H5          3.9869   -0.7146    2.2794 H         1 <1>         0.0000
     17 H6          1.7415    0.0624    0.9915 H         1 <1>         0.0000
     18 H7          1.7431   -0.1073   -0.7554 H         1 <1>         0.0000
     19 H8          2.9609   -1.9524    0.3216 H         1 <1>         0.0000
     20 H9          3.9928   -1.0417   -0.7672 H         1 <1>         0.0000
@<TRIPOS>BOND
     1    1    2 1
     2    1    3 2
     3    2    4 2
     4    3   11 1
     5    4    6 1
     6    4   11 1
     7    5    7 1
     8    5    9 1
     9    5   10 2
    10    6    8 1
    11    7    8 1
    12    1   12 1
    13    2   13 1
    14    3   14 1
    15    6   15 1
    16    6   16 1
    17    7   17 1
    18    7   18 1
    19    8   19 1
    20    8   20 1
@<TRIPOS>Similarity
1.5528
@<TRIPOS>ShapeSim
0.8977
@<TRIPOS>PharmSim
0.6551
# END
# Name:		DB01460
# Created and modified by SHAFTS on Mon Feb  6 15:41:12 2012

# 

@<TRIPOS>MOLECULE
DB01460
   37    38     0
SMALL
USER_CHARGE


@<TRIPOS>ATOM
      1 C1          5.8285   -4.0060    1.3153 C.ar      1 <1>        -0.0615
      2 C2          7.1943   -3.7319    1.3511 C.ar      1 <1>        -0.0603
      3 C3          4.8892   -2.9685    1.3290 C.ar      1 <1>        -0.0528
      4 C4          7.6645   -2.4165    1.4016 C.ar      1 <1>        -0.0402
      5 C5          5.6633    0.6015    1.4568 C.2       1 <1>        -0.0034
      6 C6          5.3394   -1.6343    1.3799 C.ar      1 <1>         0.0001
      7 C7          4.6892   -0.3688    1.4066 C.2       1 <1>        -0.0268
      8 C8          6.7139   -1.3896    1.4149 C.ar      1 <1>         0.0375
      9 C9          0.7121   -2.5067    0.4963 C.3       1 <1>        -0.0802
     10 C10         1.3438    2.2757   -0.4727 C.3       1 <1>        -0.0802
     11 C11         3.2321   -0.1279    1.3863 C.3       1 <1>        -0.0408
     12 C12         0.4345   -1.1140    1.0186 C.3       1 <1>        -0.0939
     13 C13         0.7542    1.3063    0.5283 C.3       1 <1>        -0.0939
     14 C14         2.5699   -0.3183    0.0142 C.3       1 <1>        -0.0868
     15 N1          6.8812   -0.0239    1.4611 N.pl3     1 <1>        -0.3203
     16 N2          1.1057   -0.1036    0.1209 N.4       1 <1>         0.3816
     17 H1          5.4872   -5.0369    1.2757 H         1 <1>         0.0623
     18 H2          7.9064   -4.5532    1.3397 H         1 <1>         0.0623
     19 H3          3.8279   -3.1985    1.2998 H         1 <1>         0.0630
     20 H4          8.7278   -2.2042    1.4307 H         1 <1>         0.0642
     21 H5          5.6002    1.6806    1.4882 H         1 <1>         0.0792
     22 H6          0.2961   -2.6232   -0.5091 H         1 <1>         0.0211
     23 H7          1.7882   -2.7017    0.4419 H         1 <1>         0.0211
     24 H8          0.2601   -3.2685    1.1401 H         1 <1>         0.0211
     25 H9          2.4349    2.1920   -0.4824 H         1 <1>         0.0211
     26 H10         0.9796    2.0702   -1.4847 H         1 <1>         0.0211
     27 H11         1.0859    3.3099   -0.2215 H         1 <1>         0.0211
     28 H12         2.7299   -0.8167    2.0911 H         1 <1>         0.0297
     29 H13         2.9828    0.8824    1.7624 H         1 <1>         0.0297
     30 H14         0.8405   -0.9705    2.0237 H         1 <1>         0.0056
     31 H15        -0.6351   -0.8866    1.0149 H         1 <1>         0.0056
     32 H16        -0.3371    1.3695    0.5581 H         1 <1>         0.0056
     33 H17         1.1620    1.4622    1.5307 H         1 <1>         0.0056
     34 H18         2.7046   -1.3376   -0.3599 H         1 <1>         0.0062
     35 H19         2.9427    0.3927   -0.7291 H         1 <1>         0.0062
     36 H20         7.7744    0.4480    1.4937 H         1 <1>         0.1522
     37 H21         0.6966   -0.2401   -0.8193 H         1 <1>        -0.0821
@<TRIPOS>BOND
     1    1    2 ar
     2    1    3 ar
     3    2    4 ar
     4    3    6 ar
     5    4    8 ar
     6    5    7 2
     7    5   15 1
     8    6    7 1
     9    6    8 ar
    10    7   11 1
    11    8   15 1
    12    9   12 1
    13   10   13 1
    14   11   14 1
    15   12   16 1
    16   13   16 1
    17   14   16 1
    18    1   17 1
    19    2   18 1
    20    3   19 1
    21    4   20 1
    22    5   21 1
    23    9   22 1
    24    9   23 1
    25    9   24 1
    26   10   25 1
    27   10   26 1
    28   10   27 1
    29   11   28 1
    30   11   29 1
    31   12   30 1
    32   12   31 1
    33   13   32 1
    34   13   33 1
    35   14   34 1
    36   14   35 1
    37   15   36 1
    38   16   37 1
@<TRIPOS>Similarity
1.5467
@<TRIPOS>ShapeSim
0.8681
@<TRIPOS>PharmSim
0.6785
# END
# Name:		DB04159
# Created and modified by SHAFTS on Mon Feb  6 15:41:12 2012

# 

@<TRIPOS>MOLECULE
DB04159
   28    29     0
SMALL
USER_CHARGE


@<TRIPOS>ATOM
      1 C1          5.6276   -3.8583    1.0907 C.ar      1 <1>         0.0000
      2 C2          6.9992   -3.6275    1.0047 C.ar      1 <1>         0.0000
      3 C3          4.7380   -2.8055    1.3344 C.ar      1 <1>         0.0000
      4 C4          7.5248   -2.3415    1.1588 C.ar      1 <1>         0.0000
      5 C5          5.6653    0.6993    1.8002 C.2       1 <1>         0.0000
      6 C6          5.2448   -1.5003    1.4934 C.ar      1 <1>         0.0000
      7 C7          4.6531   -0.2309    1.7446 C.2       1 <1>         0.0000
      8 C8          6.6237   -1.2989    1.4020 C.ar      1 <1>         0.0000
      9 C9          2.5854    1.8097    0.0522 C.2       1 <1>         0.0000
     10 C10         3.2133    0.0498    1.9179 C.3       1 <1>         0.0000
     11 C11         2.4523    0.3733    0.5975 C.3       1 <1>         0.0000
     12 N1          6.8501    0.0456    1.5921 N.pl3     1 <1>         0.0000
     13 N2          2.8519   -0.6510   -0.4218 N.4       1 <1>         0.0000
     14 O1          2.5247    1.9471   -1.2005 O.co2     1 <1>        -0.5000
     15 O2          2.7347    2.6941    0.9453 O.co2     1 <1>        -0.5000
     16 O3          2.5317   -1.0235    2.6007 O.3       1 <1>         0.0000
     17 H1          5.2426   -4.8669    0.9668 H         1 <1>         0.0000
     18 H2          7.6720   -4.4598    0.8147 H         1 <1>         0.0000
     19 H3          3.6715   -3.0016    1.3979 H         1 <1>         0.0000
     20 H4          8.5927   -2.1631    1.0926 H         1 <1>         0.0000
     21 H5          5.6497    1.7675    1.9674 H         1 <1>         0.0000
     22 H6          3.0963    0.9187    2.5990 H         1 <1>         0.0000
     23 H7          1.3788    0.2122    0.7610 H         1 <1>         0.0000
     24 H8          7.7599    0.4858    1.5799 H         1 <1>         0.0000
     25 H9          3.7533   -0.4058   -0.8315 H         1 <1>         0.0000
     26 H10         2.1544   -0.6966   -1.1650 H         1 <1>         0.0000
     27 H11         2.9280   -1.5699    0.0148 H         1 <1>         0.0000
     28 H12         2.6558   -1.8027    2.0455 H         1 <1>         0.0000
@<TRIPOS>BOND
     1    1    2 ar
     2    1    3 ar
     3    2    4 ar
     4    3    6 ar
     5    4    8 ar
     6    5    7 2
     7    5   12 1
     8    6    7 1
     9    6    8 ar
    10    7   10 1
    11    8   12 1
    12    9   11 1
    13    9   14 1
    14    9   15 2
    15   10   11 1
    16   10   16 1
    17   11   13 1
    18    1   17 1
    19    2   18 1
    20    3   19 1
    21    4   20 1
    22    5   21 1
    23   10   22 1
    24   11   23 1
    25   12   24 1
    26   13   25 1
    27   13   26 1
    28   13   27 1
    29   16   28 1
@<TRIPOS>Similarity
1.5393
@<TRIPOS>ShapeSim
0.9210
@<TRIPOS>PharmSim
0.6184
# END
# Name:		DB03679
# Created and modified by SHAFTS on Mon Feb  6 15:41:12 2012

# 

@<TRIPOS>MOLECULE
DB03679
   28    29     0
SMALL
USER_CHARGE


@<TRIPOS>ATOM
      1 C1          5.9470   -4.0446    1.4593 C.ar      1 <1>         0.0000
      2 C2          7.1737   -3.6249    1.9699 C.ar      1 <1>         0.0000
      3 C3          5.0593   -3.1282    0.8838 C.ar      1 <1>         0.0000
      4 C4          7.5523   -2.2802    1.9223 C.ar      1 <1>         0.0000
      5 C5          5.4192   -1.7671    0.8246 C.ar      1 <1>         0.0000
      6 C6          4.7852   -0.5947    0.3261 C.2       1 <1>         0.0000
      7 C7          6.6549   -1.3753    1.3442 C.ar      1 <1>         0.0000
      8 C8          5.6322    0.4664    0.5489 C.2       1 <1>         0.0000
      9 C9          2.6558    1.8640    0.0553 C.2       1 <1>         0.0000
     10 C10         3.4564   -0.5245   -0.3160 C.3       1 <1>         0.0000
     11 C11         2.4525    0.3869    0.4236 C.3       1 <1>         0.0000
     12 N1          6.7574   -0.0144    1.1631 N.pl3     1 <1>         0.0000
     13 N2          1.0664   -0.0819    0.1080 N.4       1 <1>         0.0000
     14 O1          2.5645    2.1183   -1.1792 O.co2     1 <1>        -0.5000
     15 O2          2.8959    2.6412    1.0217 O.co2     1 <1>        -0.5000
     16 O3          5.5189    1.7582    0.2762 O.3       1 <1>         0.0000
     17 H1          5.6758   -5.0960    1.5071 H         1 <1>         0.0000
     18 H2          7.8473   -4.3537    2.4136 H         1 <1>         0.0000
     19 H3          4.1068   -3.4714    0.4901 H         1 <1>         0.0000
     20 H4          8.5075   -1.9543    2.3200 H         1 <1>         0.0000
     21 H5          3.0237   -1.5419   -0.3840 H         1 <1>         0.0000
     22 H6          3.5405   -0.1934   -1.3695 H         1 <1>         0.0000
     23 H7          2.5553    0.2573    1.5076 H         1 <1>         0.0000
     24 H8          7.5483    0.5487    1.4433 H         1 <1>         0.0000
     25 H9          1.1005   -0.9224   -0.4703 H         1 <1>         0.0000
     26 H10         0.5554    0.6427   -0.3984 H         1 <1>         0.0000
     27 H11         0.5615   -0.2973    0.9688 H         1 <1>         0.0000
     28 H12         6.3078    2.2700    0.5644 H         1 <1>         0.0000
@<TRIPOS>BOND
     1    1    2 ar
     2    1    3 ar
     3    2    4 ar
     4    3    5 ar
     5    4    7 ar
     6    5    6 1
     7    5    7 ar
     8    6    8 2
     9    6   10 1
    10    7   12 1
    11    8   12 1
    12    8   16 1
    13    9   11 1
    14    9   14 1
    15    9   15 2
    16   10   11 1
    17   11   13 1
    18    1   17 1
    19    2   18 1
    20    3   19 1
    21    4   20 1
    22   10   21 1
    23   10   22 1
    24   11   23 1
    25   12   24 1
    26   13   25 1
    27   13   26 1
    28   13   27 1
    29   16   28 1
@<TRIPOS>Similarity
1.5330
@<TRIPOS>ShapeSim
0.8645
@<TRIPOS>PharmSim
0.6686
# END
# Name:		DB02070
# Created and modified by SHAFTS on Mon Feb  6 15:41:12 2012

# 

@<TRIPOS>MOLECULE
DB02070
   27    27     0
SMALL
USER_CHARGE


@<TRIPOS>ATOM
      1 C1          5.8727   -3.8780    1.3840 C.ar      1 <1>         0.0000
      2 C2          7.0574   -3.4703    1.9968 C.ar      1 <1>         0.0000
      3 C3          5.0869   -2.9512    0.6990 C.ar      1 <1>         0.0000
      4 C4          7.4565   -2.1357    1.9247 C.ar      1 <1>         0.0000
      5 C5          5.4859   -1.6166    0.6268 C.ar      1 <1>         0.0000
      6 C6          6.6708   -1.2088    1.2397 C.ar      1 <1>         0.0000
      7 C7          4.6335   -0.6624   -0.1037 C.2       1 <1>         0.0000
      8 C8          2.7387    1.6310    0.1482 C.2       1 <1>         0.0000
      9 C9          3.1264   -0.9276   -0.1386 C.3       1 <1>         0.0000
     10 C10         2.2994    0.1961    0.4957 C.3       1 <1>         0.0000
     11 N1          7.0920    0.1384    1.1802 N.pl3     1 <1>         0.0000
     12 N2          0.8747   -0.0482    0.0956 N.4       1 <1>         0.0000
     13 O1          2.7855    1.9247   -1.0780 O.co2     1 <1>        -0.5000
     14 O2          5.0985    0.3209   -0.6831 O.2       1 <1>         0.0000
     15 O3          3.0061    2.3502    1.1544 O.co2     1 <1>        -0.5000
     16 H1          5.5618   -4.9171    1.4393 H         1 <1>         0.0000
     17 H2          7.6687   -4.1921    2.5307 H         1 <1>         0.0000
     18 H3          4.1652   -3.2819    0.2271 H         1 <1>         0.0000
     19 H4          8.3819   -1.8300    2.4062 H         1 <1>         0.0000
     20 H5          2.8442   -1.0389   -1.1932 H         1 <1>         0.0000
     21 H6          2.9218   -1.8726    0.3787 H         1 <1>         0.0000
     22 H7          2.3108    0.0937    1.5879 H         1 <1>         0.0000
     23 H8          7.9192    0.4105    1.6693 H         1 <1>         0.0000
     24 H9          6.5059    0.8106    0.7304 H         1 <1>         0.0000
     25 H10         0.6812   -1.0494    0.0816 H         1 <1>         0.0000
     26 H11         0.7019    0.3335   -0.8345 H         1 <1>         0.0000
     27 H12         0.2425    0.4003    0.7585 H         1 <1>         0.0000
@<TRIPOS>BOND
     1    1    2 ar
     2    1    3 ar
     3    2    4 ar
     4    3    5 ar
     5    4    6 ar
     6    5    6 ar
     7    5    7 1
     8    6   11 1
     9    7    9 1
    10    7   14 2
    11    8   10 1
    12    8   13 1
    13    8   15 2
    14    9   10 1
    15   10   12 1
    16    1   16 1
    17    2   17 1
    18    3   18 1
    19    4   19 1
    20    9   20 1
    21    9   21 1
    22   10   22 1
    23   11   23 1
    24   11   24 1
    25   12   25 1
    26   12   26 1
    27   12   27 1
@<TRIPOS>Similarity
1.5122
@<TRIPOS>ShapeSim
0.8284
@<TRIPOS>PharmSim
0.6839
# END
# Name:		DB04175
# Created and modified by SHAFTS on Mon Feb  6 15:41:12 2012

# 

@<TRIPOS>MOLECULE
DB04175
   26    27     0
SMALL
USER_CHARGE


@<TRIPOS>ATOM
      1 C1          7.5526   -2.1564    1.3739 C.ar      1 <1>         0.0000
      2 C2          5.8359   -3.8671    1.1980 C.ar      1 <1>         0.0000
      3 C3          5.1814   -1.5359    1.2716 C.ar      1 <1>         0.0000
      4 C4          4.4444   -0.3188    1.2881 C.2       1 <1>         0.0000
      5 C5          6.5333   -1.1977    1.3625 C.ar      1 <1>         0.0000
      6 C6          7.1770   -3.5002    1.2898 C.ar      1 <1>         0.0000
      7 C7          4.8270   -2.8971    1.1878 C.ar      1 <1>         0.0000
      8 C8          5.3463    0.7156    1.3872 C.2       1 <1>         0.0000
      9 C9          5.0264    2.2087    1.4396 C.2       1 <1>         0.0000
     10 C10         2.9897    0.6181   -1.2719 C.2       1 <1>         0.0000
     11 C11         2.9758   -0.1517    1.2130 C.3       1 <1>         0.0000
     12 C12         2.4224   -0.3277   -0.2082 C.3       1 <1>         0.0000
     13 N1          6.6036    0.1755    1.4313 N.pl3     1 <1>         0.0000
     14 O1          6.0106    2.9930    1.5320 O.co2     1 <1>        -0.5000
     15 O2          2.7461    1.8408   -1.0564 O.co2     1 <1>        -0.5000
     16 O3          3.8063    2.5261    1.3863 O.co2     1 <1>        -0.5000
     17 O4          3.6241    0.0856   -2.2232 O.co2     1 <1>        -0.5000
     18 Cl1         8.3950   -4.7198    1.2992 Cl        1 <1>         0.0000
     19 Cl2         3.1786   -3.3179    1.0763 Cl        1 <1>         0.0000
     20 H1          8.5941   -1.8589    1.4459 H         1 <1>         0.0000
     21 H2          5.5656   -4.9196    1.1332 H         1 <1>         0.0000
     22 H3          2.4685   -0.8688    1.8835 H         1 <1>         0.0000
     23 H4          2.6780    0.8434    1.5900 H         1 <1>         0.0000
     24 H5          1.3332   -0.1916   -0.1928 H         1 <1>         0.0000
     25 H6          2.6089   -1.3553   -0.5461 H         1 <1>         0.0000
     26 H7          7.4606    0.7063    1.5041 H         1 <1>         0.0000
@<TRIPOS>BOND
     1    1    5 ar
     2    1    6 ar
     3    2    6 ar
     4    2    7 ar
     5    3    4 1
     6    3    5 ar
     7    3    7 ar
     8    4    8 2
     9    4   11 1
    10    5   13 1
    11    6   18 1
    12    7   19 1
    13    8    9 1
    14    8   13 1
    15    9   14 1
    16    9   16 2
    17   10   12 1
    18   10   15 1
    19   10   17 2
    20   11   12 1
    21    1   20 1
    22    2   21 1
    23   11   22 1
    24   11   23 1
    25   12   24 1
    26   12   25 1
    27   13   26 1
@<TRIPOS>Similarity
1.5052
@<TRIPOS>ShapeSim
0.8523
@<TRIPOS>PharmSim
0.6529
# END
# Name:		DB01445
# Created and modified by SHAFTS on Mon Feb  6 15:41:12 2012

# 

@<TRIPOS>MOLECULE
DB01445
   32    33     0
SMALL
USER_CHARGE


@<TRIPOS>ATOM
      1 C1          7.6639   -2.4173    1.3990 C.ar      1 <1>        -0.0376
      2 C2          7.1929   -3.7325    1.3501 C.ar      1 <1>        -0.0302
      3 C3          4.8881   -2.9679    1.3310 C.ar      1 <1>        -0.0226
      4 C4          5.6645    0.6019    1.4549 C.2       1 <1>        -0.0034
      5 C5          5.3392   -1.6339    1.3801 C.ar      1 <1>         0.0027
      6 C6          4.6897   -0.3680    1.4069 C.2       1 <1>        -0.0267
      7 C7          6.7139   -1.3899    1.4129 C.ar      1 <1>         0.0377
      8 C8          5.8269   -4.0059    1.3166 C.ar      1 <1>         0.0720
      9 C9          0.4312   -1.1272    1.0011 C.3       1 <1>        -0.1038
     10 C10         0.7564    1.2999    0.5495 C.3       1 <1>        -0.1038
     11 C11         3.2330   -0.1266    1.3861 C.3       1 <1>        -0.0408
     12 C12         2.5704   -0.3198    0.0144 C.3       1 <1>        -0.0875
     13 N1          6.8820   -0.0242    1.4579 N.pl3     1 <1>        -0.3203
     14 N2          1.1063   -0.1041    0.1210 N.4       1 <1>         0.3782
     15 O1          5.3979   -5.2987    1.2683 O.3       1 <1>        -0.3609
     16 H1          8.7276   -2.2058    1.4256 H         1 <1>         0.0643
     17 H2          7.9100   -4.5502    1.3396 H         1 <1>         0.0651
     18 H3          3.8249   -3.1909    1.3040 H         1 <1>         0.0657
     19 H4          5.6021    1.6807    1.4873 H         1 <1>         0.0792
     20 H5          0.8410   -1.0244    2.0076 H         1 <1>         0.0022
     21 H6         -0.6409   -0.9215    0.9909 H         1 <1>         0.0022
     22 H7          0.6452   -2.1153    0.5895 H         1 <1>         0.0022
     23 H8          1.1738    1.4588    1.5454 H         1 <1>         0.0022
     24 H9          1.1948    1.9893   -0.1746 H         1 <1>         0.0022
     25 H10        -0.3320    1.3839    0.5622 H         1 <1>         0.0022
     26 H11         2.7302   -0.8137    2.0924 H         1 <1>         0.0297
     27 H12         2.9838    0.8847    1.7599 H         1 <1>         0.0297
     28 H13         2.7045   -1.3399   -0.3576 H         1 <1>         0.0062
     29 H14         2.9435    0.3895   -0.7305 H         1 <1>         0.0062
     30 H15         7.7755    0.4470    1.4893 H         1 <1>         0.1522
     31 H16         0.6992   -0.2251   -0.8223 H         1 <1>        -0.0829
     32 H17         4.4288   -5.3290    1.2495 H         1 <1>         0.2182
@<TRIPOS>BOND
     1    1    2 ar
     2    1    7 ar
     3    2    8 ar
     4    3    5 ar
     5    3    8 ar
     6    4    6 2
     7    4   13 1
     8    5    6 1
     9    5    7 ar
    10    6   11 1
    11    7   13 1
    12    8   15 1
    13    9   14 1
    14   10   14 1
    15   11   12 1
    16   12   14 1
    17    1   16 1
    18    2   17 1
    19    3   18 1
    20    4   19 1
    21    9   20 1
    22    9   21 1
    23    9   22 1
    24   10   23 1
    25   10   24 1
    26   10   25 1
    27   11   26 1
    28   11   27 1
    29   12   28 1
    30   12   29 1
    31   13   30 1
    32   14   31 1
    33   15   32 1
@<TRIPOS>Similarity
1.5015
@<TRIPOS>ShapeSim
0.8887
@<TRIPOS>PharmSim
0.6128
# END
# Name:		DB00788
# Created and modified by SHAFTS on Mon Feb  6 15:41:12 2012

# 

@<TRIPOS>MOLECULE
DB00788
   30    31     0
SMALL
USER_CHARGE


@<TRIPOS>ATOM
      1 C1          5.8542   -0.3643    2.3945 C.ar      1 <1>         0.0000
      2 C2          5.6658   -3.5496    0.4852 C.ar      1 <1>         0.0000
      3 C3          4.6945    0.2254    1.9954 C.ar      1 <1>         0.0000
      4 C4          6.8262   -4.1398    0.8781 C.ar      1 <1>         0.0000
      5 C5          4.1367   -1.6394    0.5954 C.ar      1 <1>         0.0000
      6 C6          7.3848   -2.2729    2.2864 C.ar      1 <1>         0.0000
      7 C7          5.3255   -2.2800    0.9841 C.ar      1 <1>         0.0000
      8 C8          6.1964   -1.6336    1.8964 C.ar      1 <1>         0.0000
      9 C9          3.8381   -0.4104    1.0983 C.ar      1 <1>         0.0000
     10 C10         7.6846   -3.5062    1.7823 C.ar      1 <1>         0.0000
     11 C11         2.8912    1.5845    0.0122 C.2       1 <1>         0.0000
     12 C12         1.6926    0.5312    1.9103 C.3       1 <1>         0.0000
     13 C13         8.8758   -5.3761    1.4736 C.3       1 <1>         0.0000
     14 C14         2.5625    0.2734    0.6784 C.3       1 <1>         0.0000
     15 O1          3.7826    2.2877    0.4568 O.co2     1 <1>        -0.5000
     16 O2          2.2657    1.9424   -0.9712 O.co2     1 <1>        -0.5000
     17 O3          8.8347   -4.1234    2.1600 O.3       1 <1>         0.0000
     18 H1          6.5084    0.1403    3.0900 H         1 <1>         0.0000
     19 H2          5.0103   -4.0523   -0.2105 H         1 <1>         0.0000
     20 H3          4.4338    1.2005    2.3796 H         1 <1>         0.0000
     21 H4          7.0846   -5.1150    0.4927 H         1 <1>         0.0000
     22 H5          3.4635   -2.1196   -0.0994 H         1 <1>         0.0000
     23 H6          8.0574   -1.7919    2.9812 H         1 <1>         0.0000
     24 H7          0.7700    1.0258    1.6067 H         1 <1>         0.0000
     25 H8          1.4548   -0.4172    2.3922 H         1 <1>         0.0000
     26 H9          2.2334    1.1687    2.6100 H         1 <1>         0.0000
     27 H10         9.7859   -5.9102    1.7465 H         1 <1>         0.0000
     28 H11         8.0071   -5.9722    1.7530 H         1 <1>         0.0000
     29 H12         8.8658   -5.2014    0.3977 H         1 <1>         0.0000
     30 H13         2.0218   -0.3640   -0.0212 H         1 <1>         0.0000
@<TRIPOS>BOND
     1    1    3 ar
     2    1    8 ar
     3    2    4 ar
     4    2    7 ar
     5    3    9 ar
     6    4   10 ar
     7    5    7 ar
     8    5    9 ar
     9    6    8 ar
    10    6   10 ar
    11    7    8 ar
    12    9   14 1
    13   10   17 1
    14   11   14 1
    15   11   15 1
    16   11   16 2
    17   12   14 1
    18   13   17 1
    19    1   18 1
    20    2   19 1
    21    3   20 1
    22    4   21 1
    23    5   22 1
    24    6   23 1
    25   12   24 1
    26   12   25 1
    27   12   26 1
    28   13   27 1
    29   13   28 1
    30   13   29 1
    31   14   30 1
@<TRIPOS>Similarity
1.5008
@<TRIPOS>ShapeSim
0.8357
@<TRIPOS>PharmSim
0.6651
# END
# Name:		DB04713
# Created and modified by SHAFTS on Mon Feb  6 15:41:12 2012

# 

@<TRIPOS>MOLECULE
DB04713
   23    23     0
SMALL
USER_CHARGE


@<TRIPOS>ATOM
      1 C1          4.3606   -2.1801    1.2858 C.ar      1 <1>         0.0000
      2 C2          5.1686    0.0334    1.8191 C.ar      1 <1>         0.0000
      3 C3          5.6674   -2.6664    1.3246 C.ar      1 <1>         0.0000
      4 C4          6.4754   -0.4529    1.8580 C.ar      1 <1>         0.0000
      5 C5          4.1112   -0.8302    1.5330 C.ar      1 <1>         0.0000
      6 C6          6.7247   -1.8029    1.6108 C.ar      1 <1>         0.0000
      7 C7          2.7717    1.6129   -0.1795 C.2       1 <1>         0.0000
      8 C8          2.7031   -0.3052    1.4887 C.3       1 <1>         0.0000
      9 C9          2.2888    0.1809    0.0939 C.3       1 <1>         0.0000
     10 N1          0.7989    0.0625    0.0107 N.4       1 <1>         0.0000
     11 O1          3.8699    1.9141    0.3686 O.co2     1 <1>        -0.5000
     12 O2          2.0159    2.3160   -0.9076 O.co2     1 <1>        -0.5000
     13 I1          8.6711   -2.5276    1.6659 I         1 <1>         0.0000
     14 H1          3.5428   -2.8599    1.0620 H         1 <1>         0.0000
     15 H2          4.9841    1.0869    2.0116 H         1 <1>         0.0000
     16 H3          5.8392   -3.7216    1.1265 H         1 <1>         0.0000
     17 H4          7.2846    0.2375    2.0818 H         1 <1>         0.0000
     18 H5          2.6211    0.5214    2.2087 H         1 <1>         0.0000
     19 H6          2.0075   -1.0755    1.8484 H         1 <1>         0.0000
     20 H7          2.6741   -0.4946   -0.6792 H         1 <1>         0.0000
     21 H8          0.5122   -0.1238   -0.9512 H         1 <1>         0.0000
     22 H9          0.3580    0.9296    0.3210 H         1 <1>         0.0000
     23 H10         0.4713   -0.7014    0.6034 H         1 <1>         0.0000
@<TRIPOS>BOND
     1    1    3 ar
     2    1    5 ar
     3    2    4 ar
     4    2    5 ar
     5    3    6 ar
     6    4    6 ar
     7    5    8 1
     8    6   13 1
     9    7    9 1
    10    7   11 1
    11    7   12 2
    12    8    9 1
    13    9   10 1
    14    1   14 1
    15    2   15 1
    16    3   16 1
    17    4   17 1
    18    8   18 1
    19    8   19 1
    20    9   20 1
    21   10   21 1
    22   10   22 1
    23   10   23 1
@<TRIPOS>Similarity
1.4894
@<TRIPOS>ShapeSim
0.9026
@<TRIPOS>PharmSim
0.5867
# END
# Name:		DB01065
# Created and modified by SHAFTS on Mon Feb  6 15:41:12 2012

# 

@<TRIPOS>MOLECULE
DB01065
   33    34     0
SMALL
USER_CHARGE


@<TRIPOS>ATOM
      1 C1          7.8136   -2.2379    1.4580 C.ar      1 <1>        -0.0376
      2 C2          7.6357   -3.6170    1.6007 C.ar      1 <1>        -0.0299
      3 C3          5.2212   -3.3601    1.6392 C.ar      1 <1>        -0.0223
      4 C4          5.2140    0.2771    1.2761 C.2       1 <1>        -0.0032
      5 C5          5.3757   -1.9668    1.4958 C.ar      1 <1>         0.0028
      6 C6          4.4701   -0.8725    1.4104 C.2       1 <1>        -0.0233
      7 C7          6.6657   -1.4390    1.4087 C.ar      1 <1>         0.0377
      8 C8          6.3605   -4.1716    1.6900 C.ar      1 <1>         0.0753
      9 C9          2.6558    1.1740   -1.6032 C.2       1 <1>         0.2086
     10 C10         3.0324    0.8645   -3.0141 C.3       1 <1>         0.0127
     11 C11         4.8884   -6.0258    1.9137 C.3       1 <1>         0.0422
     12 C12         2.9958   -0.9456    1.4556 C.3       1 <1>        -0.0103
     13 C13         2.2876    0.1437    0.6296 C.3       1 <1>         0.0151
     14 N1          6.5371   -0.0747    1.2758 N.pl3     1 <1>        -0.3203
     15 N2          2.6241    0.0696   -0.7669 N.am      1 <1>        -0.3153
     16 O1          2.4103    2.3312   -1.2833 O.2       1 <1>        -0.2780
     17 O2          6.2187   -5.5201    1.8278 O.3       1 <1>        -0.3493
     18 H1          8.8069   -1.8072    1.3892 H         1 <1>         0.0643
     19 H2          8.5112   -4.2608    1.6431 H         1 <1>         0.0651
     20 H3          4.2308   -3.8018    1.7091 H         1 <1>         0.0657
     21 H4          4.9218    1.3137    1.1808 H         1 <1>         0.0792
     22 H5          2.1572    0.6314   -3.6415 H         1 <1>         0.0328
     23 H6          3.5300    1.7121   -3.5120 H         1 <1>         0.0328
     24 H7          3.7168    0.0107   -3.1427 H         1 <1>         0.0328
     25 H8          4.9172   -7.1130    2.0209 H         1 <1>         0.0535
     26 H9          4.3348   -5.7526    1.0119 H         1 <1>         0.0535
     27 H10         4.3976   -5.5889    2.7866 H         1 <1>         0.0535
     28 H11         2.6428   -0.8607    2.5024 H         1 <1>         0.0333
     29 H12         2.6307   -1.9374    1.1198 H         1 <1>         0.0333
     30 H13         1.1998    0.0432    0.6980 H         1 <1>         0.0470
     31 H14         2.5610    1.1435    0.9827 H         1 <1>         0.0470
     32 H15         7.3085    0.5726    1.1911 H         1 <1>         0.1522
     33 H16         2.8507   -0.8418   -1.1615 H         1 <1>         0.1493
@<TRIPOS>BOND
     1    1    2 ar
     2    1    7 ar
     3    2    8 ar
     4    3    5 ar
     5    3    8 ar
     6    4    6 2
     7    4   14 1
     8    5    6 1
     9    5    7 ar
    10    6   12 1
    11    7   14 1
    12    8   17 1
    13    9   10 1
    14    9   15 am
    15    9   16 2
    16   11   17 1
    17   12   13 1
    18   13   15 1
    19    1   18 1
    20    2   19 1
    21    3   20 1
    22    4   21 1
    23   10   22 1
    24   10   23 1
    25   10   24 1
    26   11   25 1
    27   11   26 1
    28   11   27 1
    29   12   28 1
    30   12   29 1
    31   13   30 1
    32   13   31 1
    33   14   32 1
    34   15   33 1
@<TRIPOS>Similarity
1.4853
@<TRIPOS>ShapeSim
0.8657
@<TRIPOS>PharmSim
0.6196
# END
# Name:		DB02024
# Created and modified by SHAFTS on Mon Feb  6 15:41:12 2012

# 

@<TRIPOS>MOLECULE
DB02024
   20    20     0
SMALL
USER_CHARGE


@<TRIPOS>ATOM
      1 C1          6.7668   -3.8865    1.2782 C.ar      1 <1>         0.0000
      2 C2          5.4655   -3.7719    1.7303 C.ar      1 <1>         0.0000
      3 C3          7.4381   -2.7708    0.8142 C.ar      1 <1>         0.0000
      4 C4          4.8358   -2.5414    1.7190 C.ar      1 <1>         0.0000
      5 C5          6.8069   -1.5411    0.7988 C.ar      1 <1>         0.0000
      6 C6          5.5074   -1.4254    1.2559 C.ar      1 <1>         0.0000
      7 C7          3.4107    1.4477   -0.1035 C.2       1 <1>         0.0000
      8 C8          4.8209   -0.0840    1.2434 C.3       1 <1>         0.0000
      9 C9          4.0971    0.1062   -0.0911 C.3       1 <1>         0.0000
     10 O1          2.7775    1.7994   -1.0843 O.co2     1 <1>        -0.5000
     11 O2          3.4926    2.1835    0.8652 O.co2     1 <1>        -0.5000
     12 H1          7.2590   -4.8478    1.2878 H         1 <1>         0.0000
     13 H2          4.9410   -4.6436    2.0928 H         1 <1>         0.0000
     14 H3          8.4549   -2.8603    0.4613 H         1 <1>         0.0000
     15 H4          3.8191   -2.4518    2.0722 H         1 <1>         0.0000
     16 H5          7.3314   -0.6694    0.4363 H         1 <1>         0.0000
     17 H6          5.5623    0.7049    1.3703 H         1 <1>         0.0000
     18 H7          4.0984   -0.0380    2.0583 H         1 <1>         0.0000
     19 H8          3.3558   -0.6826   -0.2181 H         1 <1>         0.0000
     20 H9          4.8197    0.0603   -0.9060 H         1 <1>         0.0000
@<TRIPOS>BOND
     1    1    2 ar
     2    1    3 ar
     3    2    4 ar
     4    3    5 ar
     5    4    6 ar
     6    5    6 ar
     7    6    8 1
     8    7    9 1
     9    7   10 1
    10    7   11 2
    11    8    9 1
    12    1   12 1
    13    2   13 1
    14    3   14 1
    15    4   15 1
    16    5   16 1
    17    8   17 1
    18    8   18 1
    19    9   19 1
    20    9   20 1
@<TRIPOS>Similarity
1.4787
@<TRIPOS>ShapeSim
0.8398
@<TRIPOS>PharmSim
0.6389
# END
# Name:		DB00909
# Created and modified by SHAFTS on Mon Feb  6 15:41:12 2012

# 

@<TRIPOS>MOLECULE
DB00909
   22    23     0
SMALL
USER_CHARGE


@<TRIPOS>ATOM
      1 C1          6.1441   -3.8530    1.5452 C.ar      1 <1>        -0.0614
      2 C2          7.4380   -3.3249    1.4877 C.ar      1 <1>        -0.0595
      3 C3          5.0181   -3.0181    1.5112 C.ar      1 <1>        -0.0503
      4 C4          7.6570   -1.9466    1.3945 C.ar      1 <1>        -0.0283
      5 C5          5.2229   -1.6336    1.4180 C.ar      1 <1>         0.0330
      6 C6          6.5176   -1.1479    1.3633 C.ar      1 <1>         0.1168
      7 C7          4.4307   -0.4708    1.3579 C.2       1 <1>         0.0968
      8 C8          2.9614   -0.3736    1.3785 C.3       1 <1>         0.0786
      9 N1          5.1657    0.6421    1.2735 N.2       1 <1>        -0.1311
     10 N2          0.7218    0.0806    0.0259 N.pl3     1 <1>        -0.3074
     11 O1          2.8707    1.3613   -0.5733 O.2       1 <1>        -0.4812
     12 O2          2.7002   -1.1004   -1.1178 O.2       1 <1>        -0.4812
     13 O3          6.4864    0.2102    1.2772 O.3       1 <1>        -0.2130
     14 S1          2.4022    0.0257   -0.2523 S.o2      1 <1>        -0.1935
     15 H1          6.0088   -4.9294    1.6175 H         1 <1>         0.0623
     16 H2          8.2906   -3.9989    1.5160 H         1 <1>         0.0623
     17 H3          4.0199   -3.4416    1.5569 H         1 <1>         0.0630
     18 H4          8.6551   -1.5280    1.3504 H         1 <1>         0.0651
     19 H5          2.5873    0.4149    2.0532 H         1 <1>         0.0547
     20 H6          2.4674   -1.3159    1.6703 H         1 <1>         0.0547
     21 H7          0.2630    0.9997    0.0077 H         1 <1>         0.1598
     22 H8          0.1470   -0.6770   -0.3630 H         1 <1>         0.1598
@<TRIPOS>BOND
     1    1    2 ar
     2    1    3 ar
     3    2    4 ar
     4    3    5 ar
     5    4    6 ar
     6    5    6 ar
     7    5    7 1
     8    6   13 1
     9    7    8 1
    10    7    9 2
    11    8   14 1
    12    9   13 1
    13   10   14 1
    14   11   14 2
    15   12   14 2
    16    1   15 1
    17    2   16 1
    18    3   17 1
    19    4   18 1
    20    8   19 1
    21    8   20 1
    22   10   21 1
    23   10   22 1
@<TRIPOS>Similarity
1.4597
@<TRIPOS>ShapeSim
0.9449
@<TRIPOS>PharmSim
0.5148
# END
# Name:		DB00120
# Created and modified by SHAFTS on Mon Feb  6 15:41:12 2012

# 

@<TRIPOS>MOLECULE
DB00120
   23    23     0
SMALL
USER_CHARGE


@<TRIPOS>ATOM
      1 C1          6.6547   -3.9613    1.3791 C.ar      1 <1>         0.0000
      2 C2          7.5125   -2.8631    1.4394 C.ar      1 <1>         0.0000
      3 C3          5.2846   -3.7673    1.2037 C.ar      1 <1>         0.0000
      4 C4          7.0002   -1.5708    1.3245 C.ar      1 <1>         0.0000
      5 C5          4.7723   -2.4750    1.0889 C.ar      1 <1>         0.0000
      6 C6          5.6300   -1.3767    1.1492 C.ar      1 <1>         0.0000
      7 C7          3.3094    1.5250   -0.0061 C.2       1 <1>         0.0000
      8 C8          5.0770    0.0159    1.0256 C.3       1 <1>         0.0000
      9 C9          3.8145    0.0838    0.1567 C.3       1 <1>         0.0000
     10 N1          4.1393   -0.5468   -1.1614 N.4       1 <1>         0.0000
     11 O1          2.7725    1.7738   -1.1228 O.co2     1 <1>        -0.5000
     12 O2          3.4963    2.2859    0.9846 O.co2     1 <1>        -0.5000
     13 H1          7.0540   -4.9675    1.4672 H         1 <1>         0.0000
     14 H2          8.5795   -3.0140    1.5748 H         1 <1>         0.0000
     15 H3          4.6165   -4.6221    1.1556 H         1 <1>         0.0000
     16 H4          7.6761   -0.7210    1.3729 H         1 <1>         0.0000
     17 H5          3.7033   -2.3335    0.9527 H         1 <1>         0.0000
     18 H6          5.8577    0.6593    0.5958 H         1 <1>         0.0000
     19 H7          4.8774    0.4268    2.0246 H         1 <1>         0.0000
     20 H8          3.0207   -0.5418    0.5819 H         1 <1>         0.0000
     21 H9          4.8915   -1.2280   -1.0518 H         1 <1>         0.0000
     22 H10         4.4379    0.1655   -1.8294 H         1 <1>         0.0000
     23 H11         3.3184   -1.0236   -1.5369 H         1 <1>         0.0000
@<TRIPOS>BOND
     1    1    2 ar
     2    1    3 ar
     3    2    4 ar
     4    3    5 ar
     5    4    6 ar
     6    5    6 ar
     7    6    8 1
     8    7    9 1
     9    7   11 1
    10    7   12 2
    11    8    9 1
    12    9   10 1
    13    1   13 1
    14    2   14 1
    15    3   15 1
    16    4   16 1
    17    5   17 1
    18    8   18 1
    19    8   19 1
    20    9   20 1
    21   10   21 1
    22   10   22 1
    23   10   23 1
@<TRIPOS>Similarity
1.4567
@<TRIPOS>ShapeSim
0.8491
@<TRIPOS>PharmSim
0.6076
# END
# Name:		DB02556
# Created and modified by SHAFTS on Mon Feb  6 15:41:12 2012

# 

@<TRIPOS>MOLECULE
DB02556
   23    23     0
SMALL
USER_CHARGE


@<TRIPOS>ATOM
      1 C1          6.6547   -3.9613    1.3791 C.ar      1 <1>         0.0000
      2 C2          7.5125   -2.8631    1.4394 C.ar      1 <1>         0.0000
      3 C3          5.2846   -3.7673    1.2037 C.ar      1 <1>         0.0000
      4 C4          7.0002   -1.5708    1.3245 C.ar      1 <1>         0.0000
      5 C5          4.7723   -2.4750    1.0889 C.ar      1 <1>         0.0000
      6 C6          5.6300   -1.3767    1.1492 C.ar      1 <1>         0.0000
      7 C7          3.3094    1.5250   -0.0061 C.2       1 <1>         0.0000
      8 C8          5.0770    0.0159    1.0256 C.3       1 <1>         0.0000
      9 C9          3.8145    0.0838    0.1567 C.3       1 <1>         0.0000
     10 N1          4.1393   -0.5468   -1.1614 N.4       1 <1>         0.0000
     11 O1          2.7725    1.7738   -1.1228 O.co2     1 <1>        -0.5000
     12 O2          3.4963    2.2859    0.9846 O.co2     1 <1>        -0.5000
     13 H1          7.0540   -4.9675    1.4672 H         1 <1>         0.0000
     14 H2          8.5795   -3.0140    1.5748 H         1 <1>         0.0000
     15 H3          4.6165   -4.6221    1.1556 H         1 <1>         0.0000
     16 H4          7.6761   -0.7210    1.3729 H         1 <1>         0.0000
     17 H5          3.7033   -2.3335    0.9527 H         1 <1>         0.0000
     18 H6          5.8577    0.6593    0.5958 H         1 <1>         0.0000
     19 H7          4.8774    0.4268    2.0246 H         1 <1>         0.0000
     20 H8          3.0207   -0.5418    0.5819 H         1 <1>         0.0000
     21 H9          4.8915   -1.2280   -1.0518 H         1 <1>         0.0000
     22 H10         4.4379    0.1655   -1.8294 H         1 <1>         0.0000
     23 H11         3.3184   -1.0236   -1.5369 H         1 <1>         0.0000
@<TRIPOS>BOND
     1    1    2 ar
     2    1    3 ar
     3    2    4 ar
     4    3    5 ar
     5    4    6 ar
     6    5    6 ar
     7    6    8 1
     8    7    9 1
     9    7   11 1
    10    7   12 2
    11    8    9 1
    12    9   10 1
    13    1   13 1
    14    2   14 1
    15    3   15 1
    16    4   16 1
    17    5   17 1
    18    8   18 1
    19    8   19 1
    20    9   20 1
    21   10   21 1
    22   10   22 1
    23   10   23 1
@<TRIPOS>Similarity
1.4567
@<TRIPOS>ShapeSim
0.8491
@<TRIPOS>PharmSim
0.6076
# END
# Name:		DB00998
# Created and modified by SHAFTS on Mon Feb  6 15:41:12 2012

# 

@<TRIPOS>MOLECULE
DB00998
   36    38     0
SMALL
USER_CHARGE


@<TRIPOS>ATOM
      1 C1          7.7533   -3.4485    1.7009 C.ar      1 <1>        -0.0478
      2 C2          7.7862   -2.0859    1.6768 C.ar      1 <1>        -0.0394
      3 C3          5.3812   -3.4333    1.2234 C.ar      1 <1>        -0.0402
      4 C4          5.4098   -2.0408    1.2027 C.ar      1 <1>         0.0012
      5 C5          6.5548   -4.1385    1.4702 C.ar      1 <1>         0.0375
      6 C6          4.4059   -1.0039    0.9811 C.2       1 <1>        -0.0233
      7 C7          6.6228   -1.3591    1.4320 C.ar      1 <1>         0.0377
      8 C8          5.0286    0.1851    1.0843 C.2       1 <1>         0.0107
      9 C9          6.5370   -5.6147    1.4953 C.2       1 <1>         0.2404
     10 C10         2.9389   -1.1823    0.6869 C.3       1 <1>        -0.0381
     11 C11         4.3277    1.5143    0.9202 C.3       1 <1>        -0.0159
     12 C12         2.8174    1.2881    1.0504 C.3       1 <1>        -0.0602
     13 C13         2.3911    0.1387    0.1328 C.3       1 <1>        -0.0771
     14 C14         0.4070    1.2938   -0.5626 C.3       1 <1>        -0.1058
     15 N1          6.3537   -0.0129    1.3540 N.pl3     1 <1>        -0.3175
     16 N2          7.6736   -6.2984    1.7345 N.am      1 <1>        -0.3251
     17 N3          0.9246    0.0757    0.0747 N.4       1 <1>         0.3810
     18 O1          5.4980   -6.2136    1.2953 O.2       1 <1>        -0.2721
     19 H1          8.6609   -4.0019    1.8919 H         1 <1>         0.0631
     20 H2          8.7173   -1.5675    1.8517 H         1 <1>         0.0643
     21 H3          4.4554   -3.9615    1.0490 H         1 <1>         0.0638
     22 H4          2.8066   -1.9725   -0.0520 H         1 <1>         0.0300
     23 H5          2.4105   -1.4419    1.6043 H         1 <1>         0.0300
     24 H6          4.6629    2.2032    1.6954 H         1 <1>         0.0328
     25 H7          4.5524    1.9278   -0.0630 H         1 <1>         0.0328
     26 H8          2.5755    1.0371    2.0832 H         1 <1>         0.0254
     27 H9          2.2881    2.1969    0.7641 H         1 <1>         0.0254
     28 H10         2.7886    0.3058   -0.8684 H         1 <1>         0.0093
     29 H11        -0.6812    1.2470   -0.6056 H         1 <1>         0.0017
     30 H12         0.7105    2.1648    0.0182 H         1 <1>         0.0017
     31 H13         0.8075    1.3735   -1.5732 H         1 <1>         0.0017
     32 H14         7.0085    0.6928    1.4728 H         1 <1>         0.1525
     33 H15         7.6628   -7.2682    1.7469 H         1 <1>         0.1458
     34 H16         8.5026   -5.8205    1.8940 H         1 <1>         0.1458
     35 H17         0.6437   -0.7306   -0.4629 H         1 <1>        -0.0862
     36 H18         0.5539    0.0019    1.0102 H         1 <1>        -0.0862
@<TRIPOS>BOND
     1    1    2 ar
     2    1    5 ar
     3    2    7 ar
     4    3    4 ar
     5    3    5 ar
     6    4    6 1
     7    4    7 ar
     8    5    9 1
     9    6    8 2
    10    6   10 1
    11    7   15 1
    12    8   11 1
    13    8   15 1
    14    9   16 am
    15    9   18 2
    16   10   13 1
    17   11   12 1
    18   12   13 1
    19   13   17 1
    20   14   17 1
    21    1   19 1
    22    2   20 1
    23    3   21 1
    24   10   22 1
    25   10   23 1
    26   11   24 1
    27   11   25 1
    28   12   26 1
    29   12   27 1
    30   13   28 1
    31   14   29 1
    32   14   30 1
    33   14   31 1
    34   15   32 1
    35   16   33 1
    36   16   34 1
    37   17   35 1
    38   17   36 1
@<TRIPOS>Similarity
1.4512
@<TRIPOS>ShapeSim
0.8696
@<TRIPOS>PharmSim
0.5816
# END
# Name:		DB07673
# Created and modified by SHAFTS on Mon Feb  6 15:41:12 2012

# 

@<TRIPOS>MOLECULE
DB07673
   23    23     0
SMALL
USER_CHARGE


@<TRIPOS>ATOM
      1 C1          6.6528   -3.9796    1.3843 C.ar      1 <1>         0.0000
      2 C2          7.5190   -2.8888    1.4594 C.ar      1 <1>         0.0000
      3 C3          5.2862   -3.7733    1.1957 C.ar      1 <1>         0.0000
      4 C4          7.0184   -1.5918    1.3458 C.ar      1 <1>         0.0000
      5 C5          4.7857   -2.4764    1.0822 C.ar      1 <1>         0.0000
      6 C6          5.6518   -1.3856    1.1573 C.ar      1 <1>         0.0000
      7 C7          3.3195    1.5276   -0.0208 C.2       1 <1>         0.0000
      8 C8          4.1583   -0.4073   -1.2590 C.3       1 <1>         0.0000
      9 C9          5.1092    0.0185    1.0345 C.3       1 <1>         0.0000
     10 C10         3.8573    0.0936    0.1519 C.3       1 <1>         0.0000
     11 O1          2.7651    1.7853   -1.1260 O.co2     1 <1>        -0.5000
     12 O2          3.4984    2.2785    0.9811 O.co2     1 <1>        -0.5000
     13 H1          7.0429   -4.9895    1.4713 H         1 <1>         0.0000
     14 H2          8.5832   -3.0493    1.6051 H         1 <1>         0.0000
     15 H3          4.6118   -4.6224    1.1361 H         1 <1>         0.0000
     16 H4          7.7007   -0.7479    1.4057 H         1 <1>         0.0000
     17 H5          3.7195   -2.3254    0.9355 H         1 <1>         0.0000
     18 H6          4.9473    0.1895   -1.7301 H         1 <1>         0.0000
     19 H7          3.2660   -0.3389   -1.8904 H         1 <1>         0.0000
     20 H8          4.4885   -1.4522   -1.2565 H         1 <1>         0.0000
     21 H9          4.9099    0.4256    2.0341 H         1 <1>         0.0000
     22 H10         5.9003    0.6531    0.6130 H         1 <1>         0.0000
     23 H11         3.0640   -0.5342    0.5784 H         1 <1>         0.0000
@<TRIPOS>BOND
     1    1    2 ar
     2    1    3 ar
     3    2    4 ar
     4    3    5 ar
     5    4    6 ar
     6    5    6 ar
     7    6    9 1
     8    7   10 1
     9    7   11 1
    10    7   12 2
    11    8   10 1
    12    9   10 1
    13    1   13 1
    14    2   14 1
    15    3   15 1
    16    4   16 1
    17    5   17 1
    18    8   18 1
    19    8   19 1
    20    8   20 1
    21    9   21 1
    22    9   22 1
    23   10   23 1
@<TRIPOS>Similarity
1.4508
@<TRIPOS>ShapeSim
0.8433
@<TRIPOS>PharmSim
0.6075
# END
# Name:		DB07992
# Created and modified by SHAFTS on Mon Feb  6 15:41:12 2012

# 

@<TRIPOS>MOLECULE
DB07992
   20    21     0
SMALL
USER_CHARGE


@<TRIPOS>ATOM
      1 C1          5.8434   -3.8773    1.3960 C.ar      1 <1>        -0.0614
      2 C2          7.1907   -3.5220    1.3961 C.ar      1 <1>        -0.0603
      3 C3          4.8441   -2.8973    1.3961 C.ar      1 <1>        -0.0503
      4 C4          7.5823   -2.1802    1.3962 C.ar      1 <1>        -0.0401
      5 C5          5.4058    0.7145    1.3968 C.2       1 <1>         0.0266
      6 C6          5.2147   -1.5379    1.3962 C.ar      1 <1>         0.0297
      7 C7          6.5725   -1.2113    1.3963 C.ar      1 <1>         0.0400
      8 C8          4.4906   -0.3128    1.3964 C.2       1 <1>         0.1252
      9 N1          6.6588    0.1627    1.3965 N.pl3     1 <1>        -0.3181
     10 O1          3.0060    0.7948   -0.8798 O.3       1 <1>        -0.3958
     11 O2          0.9923    0.6340    0.5048 O.2       1 <1>        -0.4673
     12 O3          2.0383   -1.4045   -0.4066 O.2       1 <1>        -0.4673
     13 O4          3.1605   -0.1428    1.3944 O.3       1 <1>        -0.2352
     14 S1          2.2134   -0.0225    0.0388 S.o2      1 <1>        -0.1117
     15 H1          5.5632   -4.9273    1.3961 H         1 <1>         0.0623
     16 H2          7.9503   -4.2999    1.3957 H         1 <1>         0.0623
     17 H3          3.7978   -3.1890    1.3960 H         1 <1>         0.0630
     18 H4          8.6316   -1.9046    1.3958 H         1 <1>         0.0642
     19 H5          5.2790    1.7882    1.3957 H         1 <1>         0.0818
     20 H6          7.5226    0.6873    1.3929 H         1 <1>         0.1523
@<TRIPOS>BOND
     1    1    2 ar
     2    1    3 ar
     3    2    4 ar
     4    3    6 ar
     5    4    7 ar
     6    5    8 2
     7    5    9 1
     8    6    7 ar
     9    6    8 1
    10    7    9 1
    11    8   13 1
    12   10   14 1
    13   11   14 2
    14   12   14 2
    15   13   14 1
    16    1   15 1
    17    2   16 1
    18    3   17 1
    19    4   18 1
    20    5   19 1
    21    9   20 1
@<TRIPOS>Similarity
1.4455
@<TRIPOS>ShapeSim
0.9300
@<TRIPOS>PharmSim
0.5155
# END
# Name:		DB03400
# Created and modified by SHAFTS on Mon Feb  6 15:41:12 2012

# 

@<TRIPOS>MOLECULE
DB03400
   23    23     0
SMALL
USER_CHARGE


@<TRIPOS>ATOM
      1 C1          5.4647   -3.7725    1.7277 C.ar      1 <1>         0.0000
      2 C2          7.4391   -2.7700    0.8168 C.ar      1 <1>         0.0000
      3 C3          4.8348   -2.5421    1.7164 C.ar      1 <1>         0.0000
      4 C4          6.8077   -1.5405    0.8015 C.ar      1 <1>         0.0000
      5 C5          6.7670   -3.8865    1.2781 C.ar      1 <1>         0.0000
      6 C6          5.5072   -1.4256    1.2560 C.ar      1 <1>         0.0000
      7 C7          3.4128    1.4488   -0.1045 C.2       1 <1>         0.0000
      8 C8          7.4541   -5.2276    1.2913 C.3       1 <1>         0.0000
      9 C9          4.8205   -0.0842    1.2436 C.3       1 <1>         0.0000
     10 C10         4.0996    0.1074   -0.0922 C.3       1 <1>         0.0000
     11 O1          2.7774    1.7994   -1.0843 O.co2     1 <1>        -0.5000
     12 O2          3.4926    2.1834    0.8653 O.co2     1 <1>        -0.5000
     13 H1          4.9396   -4.6447    2.0880 H         1 <1>         0.0000
     14 H2          8.4566   -2.8590    0.4659 H         1 <1>         0.0000
     15 H3          3.8174   -2.4532    2.0677 H         1 <1>         0.0000
     16 H4          7.3327   -0.6682    0.4411 H         1 <1>         0.0000
     17 H5          7.2754   -5.7368    0.3443 H         1 <1>         0.0000
     18 H6          8.5257   -5.0856    1.4310 H         1 <1>         0.0000
     19 H7          7.0581   -5.8307    2.1084 H         1 <1>         0.0000
     20 H8          5.5615    0.7046    1.3730 H         1 <1>         0.0000
     21 H9          4.0962   -0.0393    2.0570 H         1 <1>         0.0000
     22 H10         3.3585   -0.6814   -0.2215 H         1 <1>         0.0000
     23 H11         4.8237    0.0625   -0.9057 H         1 <1>         0.0000
@<TRIPOS>BOND
     1    1    3 ar
     2    1    5 ar
     3    2    4 ar
     4    2    5 ar
     5    3    6 ar
     6    4    6 ar
     7    5    8 1
     8    6    9 1
     9    7   10 1
    10    7   11 1
    11    7   12 2
    12    9   10 1
    13    1   13 1
    14    2   14 1
    15    3   15 1
    16    4   16 1
    17    8   17 1
    18    8   18 1
    19    8   19 1
    20    9   20 1
    21    9   21 1
    22   10   22 1
    23   10   23 1
@<TRIPOS>Similarity
1.4362
@<TRIPOS>ShapeSim
0.8309
@<TRIPOS>PharmSim
0.6053
# END
# Name:		DB04208
# Created and modified by SHAFTS on Mon Feb  6 15:41:12 2012

# 

@<TRIPOS>MOLECULE
DB04208
   28    28     0
SMALL
USER_CHARGE


@<TRIPOS>ATOM
      1 C1          4.8942   -0.1668    1.9362 C.ar      1 <1>         0.0000
      2 C2          6.2595   -0.4464    1.9900 C.ar      1 <1>         0.0000
      3 C3          4.5312   -2.1844    0.6577 C.ar      1 <1>         0.0000
      4 C4          4.0299   -1.0357    1.2700 C.ar      1 <1>         0.0000
      5 C5          6.7609   -1.5951    1.3777 C.ar      1 <1>         0.0000
      6 C6          5.8967   -2.4641    0.7115 C.ar      1 <1>         0.0000
      7 C7          2.8867    1.4596   -0.1228 C.2       1 <1>         0.0000
      8 C8          8.9103   -0.9179    2.1378 C.3       1 <1>         0.0000
      9 C9          6.4269   -4.7748    0.8991 C.3       1 <1>         0.0000
     10 C10         2.5697   -0.7380    1.2145 C.3       1 <1>         0.0000
     11 C11         2.1849    0.1026   -0.0056 C.3       1 <1>         0.0000
     12 O1          2.5864    2.1061   -1.1681 O.co2     1 <1>        -0.5000
     13 O2          3.6680    1.7763    0.8153 O.co2     1 <1>        -0.5000
     14 O3          8.0966   -1.8569    1.4375 O.3       1 <1>         0.0000
     15 O4          6.3747   -3.5886    0.1090 O.3       1 <1>         0.0000
     16 H1          4.5122    0.7296    2.4175 H         1 <1>         0.0000
     17 H2          6.9271    0.2349    2.5103 H         1 <1>         0.0000
     18 H3          3.8597   -2.8637    0.1382 H         1 <1>         0.0000
     19 H4          9.9523   -1.2455    2.1098 H         1 <1>         0.0000
     20 H5          8.5692   -0.8400    3.1732 H         1 <1>         0.0000
     21 H6          8.8243    0.0577    1.6535 H         1 <1>         0.0000
     22 H7          6.8268   -5.5958    0.2990 H         1 <1>         0.0000
     23 H8          5.4230   -5.0229    1.2524 H         1 <1>         0.0000
     24 H9          7.0807   -4.6018    1.7573 H         1 <1>         0.0000
     25 H10         1.9936   -1.6763    1.2063 H         1 <1>         0.0000
     26 H11         2.2563   -0.2144    2.1309 H         1 <1>         0.0000
     27 H12         1.1033    0.2904    0.0050 H         1 <1>         0.0000
     28 H13         2.3999   -0.4613   -0.9225 H         1 <1>         0.0000
@<TRIPOS>BOND
     1    1    2 ar
     2    1    4 ar
     3    2    5 ar
     4    3    4 ar
     5    3    6 ar
     6    4   10 1
     7    5    6 ar
     8    5   14 1
     9    6   15 1
    10    7   11 1
    11    7   12 1
    12    7   13 2
    13    8   14 1
    14    9   15 1
    15   10   11 1
    16    1   16 1
    17    2   17 1
    18    3   18 1
    19    8   19 1
    20    8   20 1
    21    8   21 1
    22    9   22 1
    23    9   23 1
    24    9   24 1
    25   10   25 1
    26   10   26 1
    27   11   27 1
    28   11   28 1
@<TRIPOS>Similarity
1.4358
@<TRIPOS>ShapeSim
0.8719
@<TRIPOS>PharmSim
0.5639
# END
# Name:		DB01441
# Created and modified by SHAFTS on Mon Feb  6 15:41:12 2012

# 

@<TRIPOS>MOLECULE
DB01441
   47    48     0
SMALL
USER_CHARGE


@<TRIPOS>ATOM
      1 C1          7.7277   -2.2081    1.3962 C.ar      1 <1>        -0.0376
      2 C2          7.4218   -3.5720    1.3961 C.ar      1 <1>        -0.0299
      3 C3          5.0404   -3.0971    1.3961 C.ar      1 <1>        -0.0223
      4 C4          5.3725    0.5430    1.3968 C.2       1 <1>        -0.0034
      5 C5          5.3243   -1.7168    1.3962 C.ar      1 <1>         0.0027
      6 C6          4.5241   -0.5401    1.3964 C.2       1 <1>        -0.0267
      7 C7          6.6587   -1.3051    1.3963 C.ar      1 <1>         0.0377
      8 C8          6.0996   -4.0119    1.3961 C.ar      1 <1>         0.0753
      9 C9          1.0317    1.5003   -1.8236 C.3       1 <1>        -0.0777
     10 C10         0.3532    2.5937    0.3485 C.3       1 <1>        -0.0777
     11 C11         0.3155   -1.1750   -1.6570 C.3       1 <1>        -0.0777
     12 C12        -0.9640   -1.3024    0.5157 C.3       1 <1>        -0.0777
     13 C13         4.4599   -5.7345    1.3951 C.3       1 <1>         0.0422
     14 C14         3.0486   -0.4801    1.3949 C.3       1 <1>        -0.0407
     15 C15         2.4380    0.2582    0.1951 C.3       1 <1>        -0.0861
     16 C16         0.3023    1.3335   -0.5003 C.3       1 <1>        -0.0840
     17 C17         0.3966   -1.1285   -0.1396 C.3       1 <1>        -0.0840
     18 N1          6.6578    0.0716    1.3965 N.pl3     1 <1>        -0.3203
     19 N2          0.9567    0.2119    0.2686 N.4       1 <1>         0.3849
     20 O1          5.8325   -5.3484    1.3951 O.3       1 <1>        -0.3493
     21 H1          8.7575   -1.8669    1.3968 H         1 <1>         0.0643
     22 H2          8.2340   -4.2954    1.3973 H         1 <1>         0.0651
     23 H3          4.0124   -3.4495    1.3955 H         1 <1>         0.0657
     24 H4          5.1782    1.6067    1.3974 H         1 <1>         0.0792
     25 H5          2.0694    1.8070   -1.6553 H         1 <1>         0.0214
     26 H6          1.0450    0.5664   -2.3965 H         1 <1>         0.0214
     27 H7          0.5527    2.2676   -2.4416 H         1 <1>         0.0214
     28 H8          1.3903    2.9014    0.5190 H         1 <1>         0.0214
     29 H9         -0.1176    2.4403    1.3257 H         1 <1>         0.0214
     30 H10        -0.1633    3.4222   -0.1481 H         1 <1>         0.0214
     31 H11        -0.3874   -0.4218   -2.0281 H         1 <1>         0.0214
     32 H12         1.2905   -0.9825   -2.1184 H         1 <1>         0.0214
     33 H13        -0.0324   -2.1551   -2.0014 H         1 <1>         0.0214
     34 H14        -1.6681   -0.5492    0.1467 H         1 <1>         0.0214
     35 H15        -0.9022   -1.2009    1.6048 H         1 <1>         0.0214
     36 H16        -1.3835   -2.2893    0.2926 H         1 <1>         0.0214
     37 H17         4.3872   -6.8248    1.3943 H         1 <1>         0.0535
     38 H18         3.9654   -5.3250    0.5106 H         1 <1>         0.0535
     39 H19         3.9797   -5.3402    2.2938 H         1 <1>         0.0535
     40 H20         2.6329   -1.5052    1.3949 H         1 <1>         0.0297
     41 H21         2.6601   -0.0246    2.3256 H         1 <1>         0.0297
     42 H22         2.7136   -0.2149   -0.7520 H         1 <1>         0.0062
     43 H23         2.7226    1.3144    0.1688 H         1 <1>         0.0062
     44 H24        -0.7349    1.0270   -0.6700 H         1 <1>         0.0089
     45 H25         1.0997   -1.8819    0.2301 H         1 <1>         0.0089
     46 H26         7.4868    0.6497    1.3970 H         1 <1>         0.1522
     47 H27         0.6847    0.3463    1.2575 H         1 <1>        -0.0813
@<TRIPOS>BOND
     1    1    2 ar
     2    1    7 ar
     3    2    8 ar
     4    3    5 ar
     5    3    8 ar
     6    4    6 2
     7    4   18 1
     8    5    6 1
     9    5    7 ar
    10    6   14 1
    11    7   18 1
    12    8   20 1
    13    9   16 1
    14   10   16 1
    15   11   17 1
    16   12   17 1
    17   13   20 1
    18   14   15 1
    19   15   19 1
    20   16   19 1
    21   17   19 1
    22    1   21 1
    23    2   22 1
    24    3   23 1
    25    4   24 1
    26    9   25 1
    27    9   26 1
    28    9   27 1
    29   10   28 1
    30   10   29 1
    31   10   30 1
    32   11   31 1
    33   11   32 1
    34   11   33 1
    35   12   34 1
    36   12   35 1
    37   12   36 1
    38   13   37 1
    39   13   38 1
    40   13   39 1
    41   14   40 1
    42   14   41 1
    43   15   42 1
    44   15   43 1
    45   16   44 1
    46   17   45 1
    47   18   46 1
    48   19   47 1
@<TRIPOS>Similarity
1.4314
@<TRIPOS>ShapeSim
0.7946
@<TRIPOS>PharmSim
0.6368
# END
# Name:		DB04519
# Created and modified by SHAFTS on Mon Feb  6 15:41:12 2012

# 

@<TRIPOS>MOLECULE
DB04519
   25    24     0
SMALL
USER_CHARGE


@<TRIPOS>ATOM
      1 C1          2.7888    1.7279   -0.0353 C.2       1 <1>         0.0000
      2 C2          6.0169   -3.7824    1.0473 C.3       1 <1>         0.0000
      3 C3          2.1174    0.4149    0.3803 C.3       1 <1>         0.0000
      4 C4          6.6210   -2.4091    0.8014 C.3       1 <1>         0.0000
      5 C5          2.3142    0.0169    1.8397 C.3       1 <1>         0.0000
      6 C6          5.9514   -1.3401    1.6646 C.3       1 <1>         0.0000
      7 C7          3.7976   -0.1265    2.1842 C.3       1 <1>         0.0000
      8 C8          4.4608   -1.2193    1.3439 C.3       1 <1>         0.0000
      9 O1          2.5719    2.0595   -1.2369 O.co2     1 <1>        -0.5000
     10 O2          3.4680    2.3207    0.8468 O.co2     1 <1>        -0.5000
     11 H1          4.9432   -3.7677    0.8356 H         1 <1>         0.0000
     12 H2          6.4801   -4.5359    0.4024 H         1 <1>         0.0000
     13 H3          6.1536   -4.0904    2.0888 H         1 <1>         0.0000
     14 H4          2.5087   -0.3773   -0.2703 H         1 <1>         0.0000
     15 H5          1.0449    0.5101    0.1692 H         1 <1>         0.0000
     16 H6          7.6948   -2.4446    1.0187 H         1 <1>         0.0000
     17 H7          6.5127   -2.1533   -0.2590 H         1 <1>         0.0000
     18 H8          1.7984   -0.9311    2.0369 H         1 <1>         0.0000
     19 H9          1.8568    0.7705    2.4927 H         1 <1>         0.0000
     20 H10         6.0802   -1.5902    2.7248 H         1 <1>         0.0000
     21 H11         6.4425   -0.3733    1.4988 H         1 <1>         0.0000
     22 H12         4.3086    0.8290    2.0131 H         1 <1>         0.0000
     23 H13         3.9062   -0.3653    3.2492 H         1 <1>         0.0000
     24 H14         3.9655   -2.1794    1.5330 H         1 <1>         0.0000
     25 H15         4.3311   -0.9928    0.2785 H         1 <1>         0.0000
@<TRIPOS>BOND
     1    1    3 1
     2    1    9 1
     3    1   10 2
     4    2    4 1
     5    3    5 1
     6    4    6 1
     7    5    7 1
     8    6    8 1
     9    7    8 1
    10    2   11 1
    11    2   12 1
    12    2   13 1
    13    3   14 1
    14    3   15 1
    15    4   16 1
    16    4   17 1
    17    5   18 1
    18    5   19 1
    19    6   20 1
    20    6   21 1
    21    7   22 1
    22    7   23 1
    23    8   24 1
    24    8   25 1
@<TRIPOS>Similarity
1.4296
@<TRIPOS>ShapeSim
0.8015
@<TRIPOS>PharmSim
0.6281
# END
# Name:		DB01662
# Created and modified by SHAFTS on Mon Feb  6 15:41:12 2012

# 

@<TRIPOS>MOLECULE
DB01662
   24    24     0
SMALL
USER_CHARGE


@<TRIPOS>ATOM
      1 C1          5.6696   -3.8021    1.0302 C.ar      1 <1>         0.0000
      2 C2          7.0188   -3.5276    1.2536 C.ar      1 <1>         0.0000
      3 C3          4.7400   -2.7623    1.0114 C.ar      1 <1>         0.0000
      4 C4          7.4384   -2.2132    1.4582 C.ar      1 <1>         0.0000
      5 C5          5.1596   -1.4478    1.2160 C.ar      1 <1>         0.0000
      6 C6          6.5089   -1.1733    1.4394 C.ar      1 <1>         0.0000
      7 C7          3.2636    1.6398   -0.1972 C.2       1 <1>         0.0000
      8 C8          3.0282   -0.6427   -1.0445 C.3       1 <1>         0.0000
      9 C9          4.1391   -0.3349    1.1926 C.3       1 <1>         0.0000
     10 C10         3.9388    0.2545   -0.2091 C.3       1 <1>         0.0000
     11 O1          3.5254    2.3786    0.7932 O.co2     1 <1>        -0.5000
     12 O2          2.5239    1.8708   -1.1967 O.co2     1 <1>        -0.5000
     13 O3          6.9353    0.1048    1.6418 O.3       1 <1>         0.0000
     14 H1          5.3421   -4.8257    0.8713 H         1 <1>         0.0000
     15 H2          7.7419   -4.3376    1.2690 H         1 <1>         0.0000
     16 H3          3.6908   -2.9868    0.8380 H         1 <1>         0.0000
     17 H4          8.4908   -2.0055    1.6318 H         1 <1>         0.0000
     18 H5          2.0451   -0.7554   -0.5740 H         1 <1>         0.0000
     19 H6          3.4640   -1.6418   -1.1507 H         1 <1>         0.0000
     20 H7          2.8706   -0.2367   -2.0501 H         1 <1>         0.0000
     21 H8          3.1888   -0.6969    1.6056 H         1 <1>         0.0000
     22 H9          4.4768    0.4507    1.8818 H         1 <1>         0.0000
     23 H10         4.9068    0.3356   -0.7205 H         1 <1>         0.0000
     24 H11         7.8951    0.1195    1.7815 H         1 <1>         0.0000
@<TRIPOS>BOND
     1    1    2 ar
     2    1    3 ar
     3    2    4 ar
     4    3    5 ar
     5    4    6 ar
     6    5    6 ar
     7    5    9 1
     8    6   13 1
     9    7   10 1
    10    7   11 1
    11    7   12 2
    12    8   10 1
    13    9   10 1
    14    1   14 1
    15    2   15 1
    16    3   16 1
    17    4   17 1
    18    8   18 1
    19    8   19 1
    20    8   20 1
    21    9   21 1
    22    9   22 1
    23   10   23 1
    24   13   24 1
@<TRIPOS>Similarity
1.4274
@<TRIPOS>ShapeSim
0.8721
@<TRIPOS>PharmSim
0.5553
# END
# Name:		DB03210
# Created and modified by SHAFTS on Mon Feb  6 15:41:12 2012

# 

@<TRIPOS>MOLECULE
DB03210
   22    22     0
SMALL
USER_CHARGE


@<TRIPOS>ATOM
      1 C1          5.0350   -2.6377    1.7900 C.ar      1 <1>         0.0000
      2 C2          6.9911   -1.5849    0.8897 C.ar      1 <1>         0.0000
      3 C3          5.7023   -3.8459    1.8369 C.ar      1 <1>         0.0000
      4 C4          7.6663   -2.7888    0.9391 C.ar      1 <1>         0.0000
      5 C5          5.6791   -1.5081    1.3198 C.ar      1 <1>         0.0000
      6 C6          7.0222   -3.9255    1.4110 C.ar      1 <1>         0.0000
      7 C7          3.5133    1.2675   -0.1311 C.2       1 <1>         0.0000
      8 C8          4.9476   -0.1915    1.2701 C.3       1 <1>         0.0000
      9 C9          4.2448   -0.0492   -0.0815 C.3       1 <1>         0.0000
     10 N1          7.7003   -5.1457    1.4574 N.pl3     1 <1>         0.0000
     11 O1          2.8842    1.5781   -1.1282 O.co2     1 <1>        -0.5000
     12 O2          3.5508    2.0221    0.8258 O.co2     1 <1>        -0.5000
     13 H1          4.0090   -2.5751    2.1214 H         1 <1>         0.0000
     14 H2          7.4913   -0.7008    0.5230 H         1 <1>         0.0000
     15 H3          5.1988   -4.7278    2.2047 H         1 <1>         0.0000
     16 H4          8.6924   -2.8471    0.6076 H         1 <1>         0.0000
     17 H5          5.6591    0.6245    1.3973 H         1 <1>         0.0000
     18 H6          4.2078   -0.1564    2.0698 H         1 <1>         0.0000
     19 H7          3.5333   -0.8651   -0.2086 H         1 <1>         0.0000
     20 H8          4.9846   -0.0842   -0.8812 H         1 <1>         0.0000
     21 H9          7.2496   -5.9388    1.7874 H         1 <1>         0.0000
     22 H10         8.6219   -5.2001    1.1597 H         1 <1>         0.0000
@<TRIPOS>BOND
     1    1    3 ar
     2    1    5 ar
     3    2    4 ar
     4    2    5 ar
     5    3    6 ar
     6    4    6 ar
     7    5    8 1
     8    6   10 1
     9    7    9 1
    10    7   11 1
    11    7   12 2
    12    8    9 1
    13    1   13 1
    14    2   14 1
    15    3   15 1
    16    4   16 1
    17    8   17 1
    18    8   18 1
    19    9   19 1
    20    9   20 1
    21   10   21 1
    22   10   22 1
@<TRIPOS>Similarity
1.4242
@<TRIPOS>ShapeSim
0.8286
@<TRIPOS>PharmSim
0.5956
# END
# Name:		DB06981
# Created and modified by SHAFTS on Mon Feb  6 15:41:12 2012

# 

@<TRIPOS>MOLECULE
DB06981
   30    31     0
SMALL
USER_CHARGE


@<TRIPOS>ATOM
      1 C1          5.9601   -4.1062    1.2288 C.ar      1 <1>         0.0000
      2 C2          7.3095   -3.7966    1.3862 C.ar      1 <1>         0.0000
      3 C3          4.9896   -3.0976    1.2233 C.ar      1 <1>         0.0000
      4 C4          7.7320   -2.4733    1.5426 C.ar      1 <1>         0.0000
      5 C5          5.6369    0.4802    1.5989 C.2       1 <1>         0.0000
      6 C6          5.3917   -1.7562    1.3793 C.ar      1 <1>         0.0000
      7 C7          4.7011   -0.5127    1.4214 C.2       1 <1>         0.0000
      8 C8          6.7508   -1.4756    1.5351 C.ar      1 <1>         0.0000
      9 C9          2.9211    1.1911    1.5444 C.2       1 <1>         0.0000
     10 C10         0.3664   -1.2862    0.9991 C.3       1 <1>         0.0000
     11 C11         1.1081   -0.5408   -0.0996 C.3       1 <1>         0.0000
     12 C12         2.6159   -0.8063   -0.0354 C.3       1 <1>         0.0000
     13 C13         3.2428   -0.3117    1.2994 C.3       1 <1>         0.0000
     14 N1          6.8702   -0.1103    1.6661 N.pl3     1 <1>         0.0000
     15 O1          3.4230    2.0192    0.7335 O.co2     1 <1>        -0.5000
     16 O2          2.1639    1.4049    2.5362 O.co2     1 <1>        -0.5000
     17 H1          5.6561   -5.1425    1.1084 H         1 <1>         0.0000
     18 H2          8.0464   -4.5957    1.3876 H         1 <1>         0.0000
     19 H3          3.9417   -3.3552    1.0986 H         1 <1>         0.0000
     20 H4          8.7826   -2.2334    1.6662 H         1 <1>         0.0000
     21 H5          5.5369    1.5537    1.6819 H         1 <1>         0.0000
     22 H6          0.5466   -2.3625    0.9148 H         1 <1>         0.0000
     23 H7          0.7030   -0.9618    1.9890 H         1 <1>         0.0000
     24 H8         -0.7128   -1.1162    0.9298 H         1 <1>         0.0000
     25 H9          0.9147    0.5333    0.0027 H         1 <1>         0.0000
     26 H10         0.7065   -0.8532   -1.0699 H         1 <1>         0.0000
     27 H11         2.7871   -1.8842   -0.1570 H         1 <1>         0.0000
     28 H12         3.1055   -0.3212   -0.8892 H         1 <1>         0.0000
     29 H13         2.6931   -0.8478    2.1058 H         1 <1>         0.0000
     30 H14         7.7426    0.3838    1.7935 H         1 <1>         0.0000
@<TRIPOS>BOND
     1    1    2 ar
     2    1    3 ar
     3    2    4 ar
     4    3    6 ar
     5    4    8 ar
     6    5    7 2
     7    5   14 1
     8    6    7 1
     9    6    8 ar
    10    7   13 1
    11    8   14 1
    12    9   13 1
    13    9   15 1
    14    9   16 2
    15   10   11 1
    16   11   12 1
    17   12   13 1
    18    1   17 1
    19    2   18 1
    20    3   19 1
    21    4   20 1
    22    5   21 1
    23   10   22 1
    24   10   23 1
    25   10   24 1
    26   11   25 1
    27   11   26 1
    28   12   27 1
    29   12   28 1
    30   13   29 1
    31   14   30 1
@<TRIPOS>Similarity
1.4227
@<TRIPOS>ShapeSim
0.8933
@<TRIPOS>PharmSim
0.5294
# END
# Name:		DB03441
# Created and modified by SHAFTS on Mon Feb  6 15:41:12 2012

# 

@<TRIPOS>MOLECULE
DB03441
   23    23     0
SMALL
USER_CHARGE


@<TRIPOS>ATOM
      1 C1          6.6813   -3.9616    1.4311 C.ar      1 <1>         0.0000
      2 C2          7.5153   -2.8474    1.5238 C.ar      1 <1>         0.0000
      3 C3          5.3190   -3.7944    1.1820 C.ar      1 <1>         0.0000
      4 C4          6.9870   -1.5659    1.3677 C.ar      1 <1>         0.0000
      5 C5          4.7907   -2.5129    1.0258 C.ar      1 <1>         0.0000
      6 C6          5.6247   -1.3986    1.1185 C.ar      1 <1>         0.0000
      7 C7          3.3261    1.4968   -0.0459 C.2       1 <1>         0.0000
      8 C8          5.0518   -0.0109    0.9495 C.3       1 <1>         0.0000
      9 C9          4.2219   -0.4673   -1.3844 C.3       1 <1>         0.0000
     10 C10         3.8294    0.0359    0.0121 C.3       1 <1>         0.0000
     11 O1          2.7516    1.8095   -1.1287 O.co2     1 <1>        -0.5000
     12 O2          3.5378    2.2009    0.9810 O.co2     1 <1>        -0.5000
     13 I1          2.5039   -1.1404   -2.4934 I         1 <1>         0.0000
     14 H1          7.0930   -4.9594    1.5514 H         1 <1>         0.0000
     15 H2          8.5761   -2.9774    1.7167 H         1 <1>         0.0000
     16 H3          4.6696   -4.6617    1.1086 H         1 <1>         0.0000
     17 H4          7.6443   -0.7036    1.4417 H         1 <1>         0.0000
     18 H5          3.7281   -2.3922    0.8321 H         1 <1>         0.0000
     19 H6          4.8025    0.4081    1.9334 H         1 <1>         0.0000
     20 H7          5.8497    0.6313    0.5526 H         1 <1>         0.0000
     21 H8          4.7410    0.3065   -1.9609 H         1 <1>         0.0000
     22 H9          4.9108   -1.3153   -1.2948 H         1 <1>         0.0000
     23 H10         3.0343   -0.6032    0.4187 H         1 <1>         0.0000
@<TRIPOS>BOND
     1    1    2 ar
     2    1    3 ar
     3    2    4 ar
     4    3    5 ar
     5    4    6 ar
     6    5    6 ar
     7    6    8 1
     8    7   10 1
     9    7   11 1
    10    7   12 2
    11    8   10 1
    12    9   10 1
    13    9   13 1
    14    1   14 1
    15    2   15 1
    16    3   16 1
    17    4   17 1
    18    5   18 1
    19    8   19 1
    20    8   20 1
    21    9   21 1
    22    9   22 1
    23   10   23 1
@<TRIPOS>Similarity
1.4216
@<TRIPOS>ShapeSim
0.8069
@<TRIPOS>PharmSim
0.6147
# END
# Name:		DB08298
# Created and modified by SHAFTS on Mon Feb  6 15:41:12 2012

# 

@<TRIPOS>MOLECULE
DB08298
   30    31     0
SMALL
USER_CHARGE


@<TRIPOS>ATOM
      1 C1          6.7178   -0.1562    1.4951 C.ar      1 <1>         0.0000
      2 C2          5.4140   -3.6351    1.3391 C.ar      1 <1>         0.0000
      3 C3          5.5919    0.5382    1.1737 C.ar      1 <1>         0.0000
      4 C4          6.5367   -4.3318    1.6602 C.ar      1 <1>         0.0000
      5 C5          4.3170   -1.4800    0.9511 C.ar      1 <1>         0.0000
      6 C6          7.8175   -2.3092    1.8832 C.ar      1 <1>         0.0000
      7 C7          5.4580   -2.2311    1.2791 C.ar      1 <1>         0.0000
      8 C8          6.6758   -1.5596    1.5550 C.ar      1 <1>         0.0000
      9 C9          4.3951   -0.1218    0.9026 C.ar      1 <1>         0.0000
     10 C10         7.7393   -3.6718    1.9324 C.ar      1 <1>         0.0000
     11 C11         3.4365    1.4883   -0.6927 C.2       1 <1>         0.0000
     12 C12         2.8258    1.6216    1.7070 C.3       1 <1>         0.0000
     13 C13         8.4582   -5.7713    2.2259 C.3       1 <1>         0.0000
     14 C14         3.1686    0.6800    0.5507 C.3       1 <1>         0.0000
     15 O1          2.5670    2.2109   -1.1491 O.co2     1 <1>        -0.5000
     16 O2          4.5227    1.4196   -1.2422 O.co2     1 <1>        -0.5000
     17 O3          8.8431   -4.3954    2.2555 O.3       1 <1>         0.0000
     18 H1          7.6384    0.3688    1.7032 H         1 <1>         0.0000
     19 H2          4.4924   -4.1580    1.1306 H         1 <1>         0.0000
     20 H3          5.6267    1.6167    1.1287 H         1 <1>         0.0000
     21 H4          6.4993   -5.4102    1.7054 H         1 <1>         0.0000
     22 H5          3.3825   -1.9779    0.7381 H         1 <1>         0.0000
     23 H6          8.7517   -1.8108    2.0961 H         1 <1>         0.0000
     24 H7          3.6625    2.2969    1.8859 H         1 <1>         0.0000
     25 H8          1.9387    2.2015    1.4525 H         1 <1>         0.0000
     26 H9          2.6321    1.0369    2.6063 H         1 <1>         0.0000
     27 H10         7.6595   -5.9408    2.9480 H         1 <1>         0.0000
     28 H11         8.1057   -6.0285    1.2271 H         1 <1>         0.0000
     29 H12         9.3159   -6.3940    2.4801 H         1 <1>         0.0000
     30 H13         2.3320    0.0047    0.3718 H         1 <1>         0.0000
@<TRIPOS>BOND
     1    1    3 ar
     2    1    8 ar
     3    2    4 ar
     4    2    7 ar
     5    3    9 ar
     6    4   10 ar
     7    5    7 ar
     8    5    9 ar
     9    6    8 ar
    10    6   10 ar
    11    7    8 ar
    12    9   14 1
    13   10   17 1
    14   11   14 1
    15   11   15 1
    16   11   16 2
    17   12   14 1
    18   13   17 1
    19    1   18 1
    20    2   19 1
    21    3   20 1
    22    4   21 1
    23    5   22 1
    24    6   23 1
    25   12   24 1
    26   12   25 1
    27   12   26 1
    28   13   27 1
    29   13   28 1
    30   13   29 1
    31   14   30 1
@<TRIPOS>Similarity
1.4161
@<TRIPOS>ShapeSim
0.8475
@<TRIPOS>PharmSim
0.5686
# END
# Name:		DB00744
# Created and modified by SHAFTS on Mon Feb  6 15:41:12 2012

# 

@<TRIPOS>MOLECULE
DB00744
   28    29     0
SMALL
USER_CHARGE


@<TRIPOS>ATOM
      1 C1          7.6930   -3.0527    1.9393 C.ar      1 <1>        -0.0616
      2 C2          6.9235   -4.0813    1.4129 C.ar      1 <1>        -0.0611
      3 C3          7.2183   -1.7812    2.0237 C.ar      1 <1>        -0.0538
      4 C4          5.6455   -3.8133    0.9633 C.ar      1 <1>        -0.0476
      5 C5          5.2357   -0.1773    1.5819 C.2       1 <1>        -0.0419
      6 C6          5.9146   -1.4649    1.5746 C.ar      1 <1>        -0.0108
      7 C7          5.1529   -2.5287    1.0437 C.ar      1 <1>         0.0192
      8 C8          3.9858   -0.0913    1.1043 C.2       1 <1>         0.0133
      9 C9          1.5416    0.0836   -0.5369 C.2       1 <1>         0.3217
     10 C10         2.1091    1.1221    2.1788 C.3       1 <1>        -0.0392
     11 C11         3.1030    1.1268    1.0158 C.3       1 <1>         0.0823
     12 N1          0.9793   -0.0095   -1.7582 N.am      1 <1>        -0.3111
     13 N2          2.3703    1.1077   -0.2527 N.am      1 <1>        -0.1607
     14 O1          1.3011   -0.7565    0.3086 O.2       1 <1>        -0.2519
     15 O2          2.5329    2.1652   -1.1803 O.3       1 <1>        -0.2920
     16 S1          3.6168   -1.7605    0.5992 S.3       1 <1>        -0.0918
     17 H1          8.6916   -3.2673    2.2899 H         1 <1>         0.0623
     18 H2          7.3212   -5.0837    1.3557 H         1 <1>         0.0623
     19 H3          7.8433   -1.0043    2.4387 H         1 <1>         0.0629
     20 H4          5.0365   -4.6046    0.5519 H         1 <1>         0.0635
     21 H5          5.7338    0.6998    1.9677 H         1 <1>         0.0638
     22 H6          2.6542    1.1363    3.1227 H         1 <1>         0.0254
     23 H7          1.4706    2.0031    2.1148 H         1 <1>         0.0254
     24 H8          1.4944    0.2233    2.1278 H         1 <1>         0.0254
     25 H9          3.7177    2.0255    1.0668 H         1 <1>         0.0587
     26 H10         1.2606    0.5883   -2.4684 H         1 <1>         0.1472
     27 H11         0.2933   -0.6742   -1.9270 H         1 <1>         0.1472
     28 H12         2.0211    1.9289   -1.9661 H         1 <1>         0.2431
@<TRIPOS>BOND
     1    1    2 ar
     2    1    3 ar
     3    2    4 ar
     4    3    6 ar
     5    4    7 ar
     6    5    6 1
     7    5    8 2
     8    6    7 ar
     9    7   16 1
    10    8   11 1
    11    8   16 1
    12    9   12 am
    13    9   13 am
    14    9   14 2
    15   10   11 1
    16   11   13 1
    17   13   15 1
    18    1   17 1
    19    2   18 1
    20    3   19 1
    21    4   20 1
    22    5   21 1
    23   10   22 1
    24   10   23 1
    25   10   24 1
    26   11   25 1
    27   12   26 1
    28   12   27 1
    29   15   28 1
@<TRIPOS>Similarity
1.4136
@<TRIPOS>ShapeSim
0.8863
@<TRIPOS>PharmSim
0.5274
# END
# Name:		DB02953
# Created and modified by SHAFTS on Mon Feb  6 15:41:12 2012

# 

@<TRIPOS>MOLECULE
DB02953
   24    24     0
SMALL
USER_CHARGE


@<TRIPOS>ATOM
      1 C1          6.7724   -3.9355    1.4438 C.ar      1 <1>         0.0000
      2 C2          7.3514   -2.8117    2.0333 C.ar      1 <1>         0.0000
      3 C3          5.6666   -3.7919    0.6058 C.ar      1 <1>         0.0000
      4 C4          6.8246   -1.5443    1.7847 C.ar      1 <1>         0.0000
      5 C5          5.1398   -2.5245    0.3572 C.ar      1 <1>         0.0000
      6 C6          5.7188   -1.4006    0.9466 C.ar      1 <1>         0.0000
      7 C7          3.2992    1.4323    0.0578 C.2       1 <1>         0.0000
      8 C8          5.1480   -0.0290    0.6773 C.3       1 <1>         0.0000
      9 C9          2.8435   -0.5741    1.6006 C.3       1 <1>         0.0000
     10 C10         3.6306   -0.0372    0.4005 C.3       1 <1>         0.0000
     11 O1          3.4855    2.2756    0.9795 O.co2     1 <1>        -0.5000
     12 O2          2.8706    1.6111   -1.1191 O.co2     1 <1>        -0.5000
     13 S1          1.0460   -0.4865    1.3216 S.3       1 <1>         0.0000
     14 H1          7.1836   -4.9221    1.6365 H         1 <1>         0.0000
     15 H2          8.2130   -2.9233    2.6850 H         1 <1>         0.0000
     16 H3          5.2163   -4.6665    0.1459 H         1 <1>         0.0000
     17 H4          7.2822   -0.6743    2.2484 H         1 <1>         0.0000
     18 H5          4.2781   -2.4222   -0.2970 H         1 <1>         0.0000
     19 H6          5.3772    0.6021    1.5474 H         1 <1>         0.0000
     20 H7          5.6819    0.4352   -0.1631 H         1 <1>         0.0000
     21 H8          3.0550    0.0145    2.4984 H         1 <1>         0.0000
     22 H9          3.1034   -1.6149    1.8199 H         1 <1>         0.0000
     23 H10         3.4196   -0.6580   -0.4809 H         1 <1>         0.0000
     24 H11         0.6989   -1.0080    2.5052 H         1 <1>         0.0000
@<TRIPOS>BOND
     1    1    2 ar
     2    1    3 ar
     3    2    4 ar
     4    3    5 ar
     5    4    6 ar
     6    5    6 ar
     7    6    8 1
     8    7   10 1
     9    7   11 1
    10    7   12 2
    11    8   10 1
    12    9   10 1
    13    9   13 1
    14    1   14 1
    15    2   15 1
    16    3   16 1
    17    4   17 1
    18    5   18 1
    19    8   19 1
    20    8   20 1
    21    9   21 1
    22    9   22 1
    23   10   23 1
    24   13   24 1
@<TRIPOS>Similarity
1.4099
@<TRIPOS>ShapeSim
0.8626
@<TRIPOS>PharmSim
0.5473
# END
# Name:		DB07950
# Created and modified by SHAFTS on Mon Feb  6 15:41:12 2012

# 

@<TRIPOS>MOLECULE
DB07950
   21    22     0
SMALL
USER_CHARGE


@<TRIPOS>ATOM
      1 C1          6.0996   -4.0119    1.3960 C.ar      1 <1>         0.0000
      2 C2          7.4218   -3.5721    1.3961 C.ar      1 <1>         0.0000
      3 C3          5.0403   -3.0970    1.3961 C.ar      1 <1>         0.0000
      4 C4          7.7277   -2.2081    1.3962 C.ar      1 <1>         0.0000
      5 C5          5.3725    0.5431    1.3968 C.2       1 <1>         0.0000
      6 C6          5.3243   -1.7169    1.3962 C.ar      1 <1>         0.0000
      7 C7          4.5241   -0.5401    1.3963 C.2       1 <1>         0.0000
      8 C8          6.6587   -1.3051    1.3963 C.ar      1 <1>         0.0000
      9 C9          2.5194   -0.4567   -0.0412 C.2       1 <1>         0.0000
     10 C10         3.0483   -0.4798    1.3976 C.3       1 <1>         0.0000
     11 N1          6.6579    0.0716    1.3965 N.pl3     1 <1>         0.0000
     12 O1          2.7788   -1.4864   -0.7260 O.co2     1 <1>        -0.5000
     13 O2          1.8875    0.5886   -0.3650 O.co2     1 <1>        -0.5000
     14 H1          5.8868   -5.0775    1.3954 H         1 <1>         0.0000
     15 H2          8.2290   -4.3000    1.3962 H         1 <1>         0.0000
     16 H3          4.0150   -3.4558    1.3951 H         1 <1>         0.0000
     17 H4          8.7573   -1.8667    1.3973 H         1 <1>         0.0000
     18 H5          5.1779    1.6068    1.3957 H         1 <1>         0.0000
     19 H6          2.6032   -1.3395    1.9331 H         1 <1>         0.0000
     20 H7          2.6754    0.4126    1.9347 H         1 <1>         0.0000
     21 H8          7.4867    0.6499    1.3965 H         1 <1>         0.0000
@<TRIPOS>BOND
     1    1    2 ar
     2    1    3 ar
     3    2    4 ar
     4    3    6 ar
     5    4    8 ar
     6    5    7 2
     7    5   11 1
     8    6    7 1
     9    6    8 ar
    10    7   10 1
    11    8   11 1
    12    9   10 1
    13    9   12 1
    14    9   13 2
    15    1   14 1
    16    2   15 1
    17    3   16 1
    18    4   17 1
    19    5   18 1
    20   10   19 1
    21   10   20 1
    22   11   21 1
@<TRIPOS>Similarity
1.4048
@<TRIPOS>ShapeSim
0.9075
@<TRIPOS>PharmSim
0.4972
# END
# Name:		DB00181
# Created and modified by SHAFTS on Mon Feb  6 15:41:12 2012

# 

@<TRIPOS>MOLECULE
DB00181
   26    26     0
SMALL
USER_CHARGE


@<TRIPOS>ATOM
      1 C1          6.8783   -1.3334    1.4879 C.ar      1 <1>         0.0000
      2 C2          4.8468   -2.5390    1.0950 C.ar      1 <1>         0.0000
      3 C3          7.5842   -2.5217    1.4876 C.ar      1 <1>         0.0000
      4 C4          5.5526   -3.7273    1.0879 C.ar      1 <1>         0.0000
      5 C5          5.5099   -1.3420    1.2916 C.ar      1 <1>         0.0000
      6 C6          6.9213   -3.7199    1.2904 C.ar      1 <1>         0.0000
      7 C7          3.3772    1.4852   -0.1022 C.2       1 <1>         0.0000
      8 C8          4.0447    0.1348   -0.0580 C.3       1 <1>         0.0000
      9 C9          3.6925   -0.0759    2.4066 C.3       1 <1>         0.0000
     10 C10         4.7408   -0.0461    1.2924 C.3       1 <1>         0.0000
     11 N1          4.3659   -0.1291    3.7111 N.4       1 <1>         0.0000
     12 O1          2.7631    1.8293   -1.0977 O.co2     1 <1>        -0.5000
     13 O2          3.4515    2.2336    0.8573 O.co2     1 <1>        -0.5000
     14 Cl1         7.8072   -5.2128    1.2901 Cl        1 <1>         0.0000
     15 H1          7.3958   -0.3980    1.6418 H         1 <1>         0.0000
     16 H2          3.7776   -2.5450    0.9424 H         1 <1>         0.0000
     17 H3          8.6532   -2.5149    1.6417 H         1 <1>         0.0000
     18 H4          5.0345   -4.6622    0.9340 H         1 <1>         0.0000
     19 H5          4.7815    0.0672   -0.8585 H         1 <1>         0.0000
     20 H6          3.2948   -0.6456   -0.1876 H         1 <1>         0.0000
     21 H7          3.0779    0.8225    2.3513 H         1 <1>         0.0000
     22 H8          3.0609   -0.9562    2.2876 H         1 <1>         0.0000
     23 H9          5.4271    0.7837    1.4615 H         1 <1>         0.0000
     24 H10         4.9348   -0.9607    3.7622 H         1 <1>         0.0000
     25 H11         4.9506    0.6858    3.8212 H         1 <1>         0.0000
     26 H12         3.6746   -0.1487    4.4458 H         1 <1>         0.0000
@<TRIPOS>BOND
     1    1    3 ar
     2    1    5 ar
     3    2    4 ar
     4    2    5 ar
     5    3    6 ar
     6    4    6 ar
     7    5   10 1
     8    6   14 1
     9    7    8 1
    10    7   12 1
    11    7   13 2
    12    8   10 1
    13    9   10 1
    14    9   11 1
    15    1   15 1
    16    2   16 1
    17    3   17 1
    18    4   18 1
    19    8   19 1
    20    8   20 1
    21    9   21 1
    22    9   22 1
    23   10   23 1
    24   11   24 1
    25   11   25 1
    26   11   26 1
@<TRIPOS>Similarity
1.4046
@<TRIPOS>ShapeSim
0.8530
@<TRIPOS>PharmSim
0.5516
# END
# Name:		DB07301
# Created and modified by SHAFTS on Mon Feb  6 15:41:12 2012

# 

@<TRIPOS>MOLECULE
DB07301
   22    24     0
SMALL
USER_CHARGE


@<TRIPOS>ATOM
      1 C1          2.4530    0.7751    1.3875 C.ar      1 <1>        -0.0615
      2 C2          6.1435   -4.0424    1.3934 C.ar      1 <1>        -0.0615
      3 C3          3.2673    1.8968    1.3920 C.ar      1 <1>        -0.0603
      4 C4          7.4385   -3.5482    1.3994 C.ar      1 <1>        -0.0603
      5 C5          3.0089   -0.4863    1.3877 C.ar      1 <1>        -0.0524
      6 C6          5.0704   -3.1772    1.3910 C.ar      1 <1>        -0.0524
      7 C7          4.6396    1.7670    1.3966 C.ar      1 <1>        -0.0402
      8 C8          7.6705   -2.1893    1.4029 C.ar      1 <1>        -0.0402
      9 C9          4.3939   -0.6317    1.3928 C.ar      1 <1>         0.0049
     10 C10         5.2905   -1.8022    1.3944 C.ar      1 <1>         0.0049
     11 C11         5.2198    0.5025    1.3974 C.ar      1 <1>         0.0383
     12 C12         6.6006   -1.3000    1.4005 C.ar      1 <1>         0.0383
     13 N1          6.5379    0.0820    1.3965 N.pl3     1 <1>        -0.3139
     14 H1          1.3790    0.8898    1.3842 H         1 <1>         0.0623
     15 H2          5.9747   -5.1092    1.3910 H         1 <1>         0.0623
     16 H3          2.8227    2.8810    1.3921 H         1 <1>         0.0623
     17 H4          8.2731   -4.2337    1.4016 H         1 <1>         0.0623
     18 H5          2.3726   -1.3589    1.3845 H         1 <1>         0.0630
     19 H6          4.0622   -3.5644    1.3866 H         1 <1>         0.0630
     20 H7          5.2650    2.6477    1.4001 H         1 <1>         0.0642
     21 H8          8.6836   -1.8149    1.4079 H         1 <1>         0.0642
     22 H9          7.3079    0.6719    1.3950 H         1 <1>         0.1528
@<TRIPOS>BOND
     1    1    3 ar
     2    1    5 ar
     3    2    4 ar
     4    2    6 ar
     5    3    7 ar
     6    4    8 ar
     7    5    9 ar
     8    6   10 ar
     9    7   11 ar
    10    8   12 ar
    11    9   10 1
    12    9   11 ar
    13   10   12 ar
    14   11   13 1
    15   12   13 1
    16    1   14 1
    17    2   15 1
    18    3   16 1
    19    4   17 1
    20    5   18 1
    21    6   19 1
    22    7   20 1
    23    8   21 1
    24   13   22 1
@<TRIPOS>Similarity
1.4039
@<TRIPOS>ShapeSim
0.8814
@<TRIPOS>PharmSim
0.5225
# END
# Name:		DB03799
# Created and modified by SHAFTS on Mon Feb  6 15:41:12 2012

# 

@<TRIPOS>MOLECULE
DB03799
   20    19     0
SMALL
USER_CHARGE


@<TRIPOS>ATOM
      1 C1          3.0067    1.6387   -0.0757 C.2       1 <1>         0.0000
      2 C2          3.9782   -0.4237    1.1739 C.3       1 <1>         0.0000
      3 C3          5.4296   -0.2350    0.7263 C.3       1 <1>         0.0000
      4 C4          2.9424    0.1228    0.1799 C.3       1 <1>         0.0000
      5 C5          6.4600   -2.6322    1.5445 C.3       1 <1>         0.0000
      6 N1          3.0193   -0.7155   -1.0581 N.4       1 <1>         0.0000
      7 O1          2.6051    2.0232   -1.2101 O.co2     1 <1>        -0.5000
      8 O2          3.4315    2.3301    0.8938 O.co2     1 <1>        -0.5000
      9 F1          6.4219   -2.8184    0.2036 F         1 <1>         0.0000
     10 F2          7.5095   -3.3414    2.0241 F         1 <1>         0.0000
     11 F3          5.3345   -3.1843    2.0583 F         1 <1>         0.0000
     12 S1          6.5730   -0.8970    1.9752 S.3       1 <1>         0.0000
     13 H1          3.8296    0.0692    2.1444 H         1 <1>         0.0000
     14 H2          3.7787   -1.4906    1.3396 H         1 <1>         0.0000
     15 H3          5.6652    0.8244    0.5903 H         1 <1>         0.0000
     16 H4          5.6230   -0.7503   -0.2188 H         1 <1>         0.0000
     17 H5          1.9428   -0.0699    0.5890 H         1 <1>         0.0000
     18 H6          2.6572   -1.6520   -0.8738 H         1 <1>         0.0000
     19 H7          3.9881   -0.7952   -1.3707 H         1 <1>         0.0000
     20 H8          2.4679   -0.2927   -1.8061 H         1 <1>         0.0000
@<TRIPOS>BOND
     1    1    4 1
     2    1    7 1
     3    1    8 2
     4    2    3 1
     5    2    4 1
     6    3   12 1
     7    4    6 1
     8    5    9 1
     9    5   10 1
    10    5   11 1
    11    5   12 1
    12    2   13 1
    13    2   14 1
    14    3   15 1
    15    3   16 1
    16    4   17 1
    17    6   18 1
    18    6   19 1
    19    6   20 1
@<TRIPOS>Similarity
1.3989
@<TRIPOS>ShapeSim
0.8349
@<TRIPOS>PharmSim
0.5640
# END
# Name:		DB06980
# Created and modified by SHAFTS on Mon Feb  6 15:41:12 2012

# 

@<TRIPOS>MOLECULE
DB06980
   33    34     0
SMALL
USER_CHARGE


@<TRIPOS>ATOM
      1 C1          5.9523   -4.1024    1.2279 C.ar      1 <1>         0.0000
      2 C2          7.3032   -3.7964    1.3789 C.ar      1 <1>         0.0000
      3 C3          4.9844   -3.0913    1.2279 C.ar      1 <1>         0.0000
      4 C4          7.7299   -2.4743    1.5341 C.ar      1 <1>         0.0000
      5 C5          5.6425    0.4845    1.6025 C.2       1 <1>         0.0000
      6 C6          5.3906   -1.7510    1.3827 C.ar      1 <1>         0.0000
      7 C7          4.7034   -0.5058    1.4290 C.2       1 <1>         0.0000
      8 C8          6.7512   -1.4740    1.5321 C.ar      1 <1>         0.0000
      9 C9          2.9305    1.2022    1.5663 C.2       1 <1>         0.0000
     10 C10        -1.1730   -0.9657    0.8129 C.3       1 <1>         0.0000
     11 C11         0.3130   -1.2691    0.9201 C.3       1 <1>         0.0000
     12 C12         1.1154   -0.5234   -0.1468 C.3       1 <1>         0.0000
     13 C13         2.6160   -0.8101   -0.0140 C.3       1 <1>         0.0000
     14 C14         3.2051   -0.2953    1.3111 C.3       1 <1>         0.0000
     15 N1          6.8747   -0.1091    1.6633 N.pl3     1 <1>         0.0000
     16 O1          3.4251    2.0124    0.7335 O.co2     1 <1>        -0.5000
     17 O2          2.2268    1.4420    2.5911 O.co2     1 <1>        -0.5000
     18 H1          5.6450   -5.1379    1.1083 H         1 <1>         0.0000
     19 H2          8.0380   -4.5973    1.3762 H         1 <1>         0.0000
     20 H3          3.9351   -3.3461    1.1081 H         1 <1>         0.0000
     21 H4          8.7816   -2.2371    1.6527 H         1 <1>         0.0000
     22 H5          5.5459    1.5582    1.6867 H         1 <1>         0.0000
     23 H6         -1.5589   -1.2384   -0.1746 H         1 <1>         0.0000
     24 H7         -1.3689    0.0989    0.9769 H         1 <1>         0.0000
     25 H8         -1.7308   -1.5333    1.5643 H         1 <1>         0.0000
     26 H9          0.6667   -0.9850    1.9181 H         1 <1>         0.0000
     27 H10         0.4676   -2.3492    0.8162 H         1 <1>         0.0000
     28 H11         0.7704   -0.8267   -1.1428 H         1 <1>         0.0000
     29 H12         0.9275    0.5523   -0.0522 H         1 <1>         0.0000
     30 H13         2.7904   -1.8870   -0.1312 H         1 <1>         0.0000
     31 H14         3.1404   -0.3230   -0.8469 H         1 <1>         0.0000
     32 H15         2.6980   -0.8363    2.1230 H         1 <1>         0.0000
     33 H16         7.7490    0.3827    1.7868 H         1 <1>         0.0000
@<TRIPOS>BOND
     1    1    2 ar
     2    1    3 ar
     3    2    4 ar
     4    3    6 ar
     5    4    8 ar
     6    5    7 2
     7    5   15 1
     8    6    7 1
     9    6    8 ar
    10    7   14 1
    11    8   15 1
    12    9   14 1
    13    9   16 1
    14    9   17 2
    15   10   11 1
    16   11   12 1
    17   12   13 1
    18   13   14 1
    19    1   18 1
    20    2   19 1
    21    3   20 1
    22    4   21 1
    23    5   22 1
    24   10   23 1
    25   10   24 1
    26   10   25 1
    27   11   26 1
    28   11   27 1
    29   12   28 1
    30   12   29 1
    31   13   30 1
    32   13   31 1
    33   14   32 1
    34   15   33 1
@<TRIPOS>Similarity
1.3976
@<TRIPOS>ShapeSim
0.8690
@<TRIPOS>PharmSim
0.5285
# END
# Name:		DB04532
# Created and modified by SHAFTS on Mon Feb  6 15:41:12 2012

# 

@<TRIPOS>MOLECULE
DB04532
   16    17     0
SMALL
USER_CHARGE


@<TRIPOS>ATOM
      1 C1          6.1293   -4.0305    1.3963 C.ar      1 <1>        -0.0615
      2 C2          7.4306   -3.5480    1.3960 C.ar      1 <1>        -0.0603
      3 C3          5.0692   -3.1681    1.3964 C.ar      1 <1>        -0.0530
      4 C4          7.6775   -2.1924    1.3962 C.ar      1 <1>        -0.0402
      5 C5          4.4229   -0.6148    1.3963 C.2       1 <1>        -0.0392
      6 C6          5.2195    0.4658    1.3964 C.2       1 <1>        -0.0065
      7 C7          5.2963   -1.7908    1.3961 C.ar      1 <1>        -0.0030
      8 C8          6.6136   -1.2965    1.3963 C.ar      1 <1>         0.0372
      9 N1          6.5317    0.0779    1.3965 N.pl3     1 <1>        -0.3206
     10 H1          5.9531   -5.0960    1.3919 H         1 <1>         0.0623
     11 H2          8.2581   -4.2421    1.3960 H         1 <1>         0.0623
     12 H3          4.0593   -3.5508    1.3953 H         1 <1>         0.0629
     13 H4          8.6938   -1.8268    1.3967 H         1 <1>         0.0642
     14 H5          3.3429   -0.6166    1.3961 H         1 <1>         0.0643
     15 H6          4.8756    1.4894    1.3971 H         1 <1>         0.0789
     16 H7          7.2911    0.6814    1.3969 H         1 <1>         0.1522
@<TRIPOS>BOND
     1    1    2 ar
     2    1    3 ar
     3    2    4 ar
     4    3    7 ar
     5    4    8 ar
     6    5    6 2
     7    5    7 1
     8    6    9 1
     9    7    8 ar
    10    8    9 1
    11    1   10 1
    12    2   11 1
    13    3   12 1
    14    4   13 1
    15    5   14 1
    16    6   15 1
    17    9   16 1
@<TRIPOS>Similarity
1.3941
@<TRIPOS>ShapeSim
0.8095
@<TRIPOS>PharmSim
0.5846
# END
# Name:		DB01811
# Created and modified by SHAFTS on Mon Feb  6 15:41:12 2012

# 

@<TRIPOS>MOLECULE
DB01811
   18    19     0
SMALL
USER_CHARGE


@<TRIPOS>ATOM
      1 C1          5.3373   -1.6207    2.0499 C.2       1 <1>        -0.0391
      2 C2          3.0119   -0.8662    1.0688 C.ar      1 <1>        -0.0202
      3 C3          4.5238    1.1551   -0.1249 C.ar      1 <1>        -0.0074
      4 C4          6.5528   -1.0777    1.8796 C.2       1 <1>        -0.0065
      5 C5          4.3921   -0.8066    1.2809 C.ar      1 <1>        -0.0002
      6 C6          5.1535    0.2110    0.6803 C.ar      1 <1>         0.0400
      7 C7          2.4029    0.0769    0.2686 C.ar      1 <1>         0.1020
      8 C8          3.1608    1.0848   -0.3323 C.ar      1 <1>         0.1032
      9 N1          6.4638    0.0184    1.0639 N.pl3     1 <1>        -0.3205
     10 O1          1.0596    0.0225    0.0589 O.3       1 <1>        -0.3582
     11 O2          2.5495    2.0099   -1.1202 O.3       1 <1>        -0.3581
     12 H1          5.1006   -2.4923    2.6421 H         1 <1>         0.0643
     13 H2          2.4254   -1.6473    1.5298 H         1 <1>         0.0658
     14 H3          5.1015    1.9401   -0.5901 H         1 <1>         0.0671
     15 H4          7.4657   -1.4500    2.3208 H         1 <1>         0.0789
     16 H5          7.2109    0.5760    0.7958 H         1 <1>         0.1522
     17 H6          0.9207   -0.5313   -0.7215 H         1 <1>         0.2183
     18 H7          2.5643    1.6622   -2.0224 H         1 <1>         0.2183
@<TRIPOS>BOND
     1    1    4 2
     2    1    5 1
     3    2    5 ar
     4    2    7 ar
     5    3    6 ar
     6    3    8 ar
     7    4    9 1
     8    5    6 ar
     9    6    9 1
    10    7    8 ar
    11    7   10 1
    12    8   11 1
    13    1   12 1
    14    2   13 1
    15    3   14 1
    16    4   15 1
    17    9   16 1
    18   10   17 1
    19   11   18 1
@<TRIPOS>Similarity
1.3941
@<TRIPOS>ShapeSim
0.7919
@<TRIPOS>PharmSim
0.6022
# END
# Name:		DB01050
# Created and modified by SHAFTS on Mon Feb  6 15:41:12 2012

# 

@<TRIPOS>MOLECULE
DB01050
   32    32     0
SMALL
USER_CHARGE


@<TRIPOS>ATOM
      1 C1          6.3043   -0.8484    0.7311 C.ar      1 <1>         0.0000
      2 C2          5.0371   -2.2975    2.1911 C.ar      1 <1>         0.0000
      3 C3          5.1292   -0.1949    0.3599 C.ar      1 <1>         0.0000
      4 C4          3.8621   -1.6440    1.8198 C.ar      1 <1>         0.0000
      5 C5          6.2583   -1.8998    1.6467 C.ar      1 <1>         0.0000
      6 C6          3.9082   -0.5927    0.9043 C.ar      1 <1>         0.0000
      7 C7          2.9904    1.5453    0.0433 C.2       1 <1>         0.0000
      8 C8          1.5801    0.0708    1.6072 C.3       1 <1>         0.0000
      9 C9          6.7836   -4.8820    1.1789 C.3       1 <1>         0.0000
     10 C10         8.1134   -3.3445   -0.2812 C.3       1 <1>         0.0000
     11 C11         7.5293   -2.6071    2.0492 C.3       1 <1>         0.0000
     12 C12         2.6524    0.1076    0.5081 C.3       1 <1>         0.0000
     13 C13         7.8801   -3.8139    1.1571 C.3       1 <1>         0.0000
     14 O1          3.5292    2.2685    0.9314 O.co2     1 <1>        -0.5000
     15 O2          2.7013    1.8360   -1.1511 O.co2     1 <1>        -0.5000
     16 H1          7.2512   -0.5319    0.3016 H         1 <1>         0.0000
     17 H2          4.9924   -3.1148    2.9062 H         1 <1>         0.0000
     18 H3          5.1751    0.6242   -0.3527 H         1 <1>         0.0000
     19 H4          2.9147   -1.9601    2.2487 H         1 <1>         0.0000
     20 H5          1.9540    0.5420    2.5229 H         1 <1>         0.0000
     21 H6          0.6742    0.6049    1.2996 H         1 <1>         0.0000
     22 H7          1.2857   -0.9541    1.8587 H         1 <1>         0.0000
     23 H8          5.8271   -4.4766    0.8321 H         1 <1>         0.0000
     24 H9          6.6385   -5.2831    2.1868 H         1 <1>         0.0000
     25 H10         7.0489   -5.7228    0.5289 H         1 <1>         0.0000
     26 H11         7.2120   -2.8744   -0.6883 H         1 <1>         0.0000
     27 H12         8.9293   -2.6156   -0.3342 H         1 <1>         0.0000
     28 H13         8.3699   -4.1890   -0.9296 H         1 <1>         0.0000
     29 H14         8.3652   -1.8954    2.0604 H         1 <1>         0.0000
     30 H15         7.4108   -2.9373    3.0902 H         1 <1>         0.0000
     31 H16         2.1986   -0.3835   -0.3745 H         1 <1>         0.0000
     32 H17         8.8107   -4.2745    1.5126 H         1 <1>         0.0000
@<TRIPOS>BOND
     1    1    3 ar
     2    1    5 ar
     3    2    4 ar
     4    2    5 ar
     5    3    6 ar
     6    4    6 ar
     7    5   11 1
     8    6   12 1
     9    7   12 1
    10    7   14 1
    11    7   15 2
    12    8   12 1
    13    9   13 1
    14   10   13 1
    15   11   13 1
    16    1   16 1
    17    2   17 1
    18    3   18 1
    19    4   19 1
    20    8   20 1
    21    8   21 1
    22    8   22 1
    23    9   23 1
    24    9   24 1
    25    9   25 1
    26   10   26 1
    27   10   27 1
    28   10   28 1
    29   11   29 1
    30   11   30 1
    31   12   31 1
    32   13   32 1
@<TRIPOS>Similarity
1.3924
@<TRIPOS>ShapeSim
0.8521
@<TRIPOS>PharmSim
0.5403
# END
# Name:		DB02242
# Created and modified by SHAFTS on Mon Feb  6 15:41:12 2012

# 

@<TRIPOS>MOLECULE
DB02242
   26    26     0
SMALL
USER_CHARGE


@<TRIPOS>ATOM
      1 C1          3.3922    1.5645   -0.1310 C.2       1 <1>         0.0000
      2 C2          6.7187   -4.0647    1.8101 C.3       1 <1>         0.0000
      3 C3          7.6627   -2.8894    1.5764 C.3       1 <1>         0.0000
      4 C4          5.4909   -3.9860    0.9083 C.3       1 <1>         0.0000
      5 C5          6.9435   -1.5508    1.7257 C.3       1 <1>         0.0000
      6 C6          4.7680   -2.6491    1.0562 C.3       1 <1>         0.0000
      7 C7          5.7125   -1.4643    0.8132 C.3       1 <1>         0.0000
      8 C8          4.1569    0.2371   -0.1947 C.3       1 <1>         0.0000
      9 C9          4.9802   -0.1396    1.0193 C.3       1 <1>         0.0000
     10 O1          2.7114    1.8708   -1.1480 O.co2     1 <1>        -0.5000
     11 O2          3.5320    2.1915    0.9585 O.co2     1 <1>        -0.5000
     12 H1          7.2492   -5.0064    1.6290 H         1 <1>         0.0000
     13 H2          6.4004   -4.0734    2.8599 H         1 <1>         0.0000
     14 H3          8.4969   -2.9409    2.2853 H         1 <1>         0.0000
     15 H4          8.0937   -2.9620    0.5702 H         1 <1>         0.0000
     16 H5          5.7965   -4.1221   -0.1364 H         1 <1>         0.0000
     17 H6          4.8039   -4.8051    1.1493 H         1 <1>         0.0000
     18 H7          6.6423   -1.4181    2.7727 H         1 <1>         0.0000
     19 H8          7.6409   -0.7378    1.4910 H         1 <1>         0.0000
     20 H9          3.9306   -2.6114    0.3491 H         1 <1>         0.0000
     21 H10         4.3365   -2.5819    2.0632 H         1 <1>         0.0000
     22 H11         6.0528   -1.5023   -0.2303 H         1 <1>         0.0000
     23 H12         4.8441    0.3216   -1.0458 H         1 <1>         0.0000
     24 H13         3.4460   -0.5637   -0.4344 H         1 <1>         0.0000
     25 H14         4.3719   -0.2293    1.9153 H         1 <1>         0.0000
     26 H15         5.7417    0.6158    1.2016 H         1 <1>         0.0000
@<TRIPOS>BOND
     1    1    8 1
     2    1   10 1
     3    1   11 2
     4    2    3 1
     5    2    4 1
     6    3    5 1
     7    4    6 1
     8    5    7 1
     9    6    7 1
    10    7    9 1
    11    8    9 1
    12    2   12 1
    13    2   13 1
    14    3   14 1
    15    3   15 1
    16    4   16 1
    17    4   17 1
    18    5   18 1
    19    5   19 1
    20    6   20 1
    21    6   21 1
    22    7   22 1
    23    8   23 1
    24    8   24 1
    25    9   25 1
    26    9   26 1
@<TRIPOS>Similarity
1.3923
@<TRIPOS>ShapeSim
0.8231
@<TRIPOS>PharmSim
0.5693
# END
# Name:		DB02725
# Created and modified by SHAFTS on Mon Feb  6 15:41:12 2012

# 

@<TRIPOS>MOLECULE
DB02725
   31    31     0
SMALL
USER_CHARGE


@<TRIPOS>ATOM
      1 C1          5.8001   -2.4681    2.5291 C.2       1 <1>         0.0000
      2 C2          6.4822   -2.0487    0.1423 C.2       1 <1>         0.0000
      3 C3          5.7451   -3.7849    2.2811 C.2       1 <1>         0.0000
      4 C4          6.4265   -3.3657   -0.1042 C.2       1 <1>         0.0000
      5 C5          3.0693    1.3770    0.0024 C.2       1 <1>         0.0000
      6 C6          6.1403   -1.4396    1.4793 C.3       1 <1>         0.0000
      7 C7          6.0140   -4.3839    0.9259 C.3       1 <1>         0.0000
      8 C8          4.9885   -0.4459    1.3247 C.3       1 <1>         0.0000
      9 C9          3.8527   -1.0480    0.4944 C.3       1 <1>         0.0000
     10 C10         2.6789   -0.0909    0.2481 C.3       1 <1>         0.0000
     11 N1          4.8434   -5.1874    0.4502 N.4       1 <1>         0.0000
     12 N2          1.6702   -0.2753    1.3386 N.4       1 <1>         0.0000
     13 O1          3.6605    1.9446    0.9651 O.co2     1 <1>        -0.5000
     14 O2          2.7334    1.8558   -1.1172 O.co2     1 <1>        -0.5000
     15 H1          5.5995   -2.1142    3.5370 H         1 <1>         0.0000
     16 H2          6.7967   -1.3778   -0.6528 H         1 <1>         0.0000
     17 H3          5.4994   -4.4630    3.0941 H         1 <1>         0.0000
     18 H4          6.6958   -3.7271   -1.0932 H         1 <1>         0.0000
     19 H5          7.0252   -0.8922    1.8281 H         1 <1>         0.0000
     20 H6          6.8300   -5.1085    1.0317 H         1 <1>         0.0000
     21 H7          5.3739    0.4616    0.8531 H         1 <1>         0.0000
     22 H8          4.6357   -0.1754    2.3232 H         1 <1>         0.0000
     23 H9          3.4808   -1.9497    0.9989 H         1 <1>         0.0000
     24 H10         4.2511   -1.3863   -0.4706 H         1 <1>         0.0000
     25 H11         2.1615   -0.4193   -0.6619 H         1 <1>         0.0000
     26 H12         4.4678   -5.7506    1.2142 H         1 <1>         0.0000
     27 H13         5.1278   -5.8106   -0.3067 H         1 <1>         0.0000
     28 H14         4.1072   -4.5695    0.1065 H         1 <1>         0.0000
     29 H15         2.1140   -0.1719    2.2521 H         1 <1>         0.0000
     30 H16         1.2541   -1.2060    1.2809 H         1 <1>         0.0000
     31 H17         0.9278    0.4205    1.2550 H         1 <1>         0.0000
@<TRIPOS>BOND
     1    1    3 2
     2    1    6 1
     3    2    4 2
     4    2    6 1
     5    3    7 1
     6    4    7 1
     7    5   10 1
     8    5   13 1
     9    5   14 2
    10    6    8 1
    11    7   11 1
    12    8    9 1
    13    9   10 1
    14   10   12 1
    15    1   15 1
    16    2   16 1
    17    3   17 1
    18    4   18 1
    19    6   19 1
    20    7   20 1
    21    8   21 1
    22    8   22 1
    23    9   23 1
    24    9   24 1
    25   10   25 1
    26   11   26 1
    27   11   27 1
    28   11   28 1
    29   12   29 1
    30   12   30 1
    31   12   31 1
@<TRIPOS>Similarity
1.3913
@<TRIPOS>ShapeSim
0.8109
@<TRIPOS>PharmSim
0.5805
# END
# Name:		DB03816
# Created and modified by SHAFTS on Mon Feb  6 15:41:12 2012

# 

@<TRIPOS>MOLECULE
DB03816
   20    19     0
SMALL
USER_CHARGE


@<TRIPOS>ATOM
      1 C1          3.0849    1.5618   -0.0070 C.2       1 <1>         0.0000
      2 C2          4.0939   -0.4195    1.3405 C.3       1 <1>         0.0000
      3 C3          5.5477   -0.2021    0.9139 C.3       1 <1>         0.0000
      4 C4          3.0623    0.0555    0.3061 C.3       1 <1>         0.0000
      5 C5          6.6359   -2.5415    1.8444 C.3       1 <1>         0.0000
      6 N1          3.1905   -0.8268   -0.8965 N.4       1 <1>         0.0000
      7 O1          2.6949    1.8895   -1.1631 O.co2     1 <1>        -0.5000
      8 O2          3.4682    2.3029    0.9429 O.co2     1 <1>        -0.5000
      9 F1          5.3709   -3.0224    1.9444 F         1 <1>         0.0000
     10 F2          7.0501   -2.7859    0.5755 F         1 <1>         0.0000
     11 S1          6.6852   -0.7792    2.2094 S.3       1 <1>         0.0000
     12 H1          3.9104    0.1053    2.2880 H         1 <1>         0.0000
     13 H2          3.9241   -1.4850    1.5438 H         1 <1>         0.0000
     14 H3          5.7531    0.8582    0.7413 H         1 <1>         0.0000
     15 H4          5.7762   -0.7469   -0.0066 H         1 <1>         0.0000
     16 H5          2.0610   -0.1530    0.7032 H         1 <1>         0.0000
     17 H6          7.2770   -3.0948    2.5351 H         1 <1>         0.0000
     18 H7          2.8538   -1.7665   -0.6829 H         1 <1>         0.0000
     19 H8          4.1674   -0.8877   -1.1871 H         1 <1>         0.0000
     20 H9          2.6416   -0.4507   -1.6709 H         1 <1>         0.0000
@<TRIPOS>BOND
     1    1    4 1
     2    1    7 1
     3    1    8 2
     4    2    3 1
     5    2    4 1
     6    3   11 1
     7    4    6 1
     8    5    9 1
     9    5   10 1
    10    5   11 1
    11    2   12 1
    12    2   13 1
    13    3   14 1
    14    3   15 1
    15    4   16 1
    16    5   17 1
    17    6   18 1
    18    6   19 1
    19    6   20 1
@<TRIPOS>Similarity
1.3884
@<TRIPOS>ShapeSim
0.8174
@<TRIPOS>PharmSim
0.5710
# END
# Name:		DB04419
# Created and modified by SHAFTS on Mon Feb  6 15:41:12 2012

# 

@<TRIPOS>MOLECULE
DB04419
   22    21     0
SMALL
USER_CHARGE


@<TRIPOS>ATOM
      1 C1          3.2277    1.4728    0.1546 C.2       1 <1>         0.0000
      2 C2          6.8347   -3.6492    1.4535 C.3       1 <1>         0.0000
      3 C3          6.5317   -2.1602    1.5050 C.3       1 <1>         0.0000
      4 C4          5.0889   -1.8668    1.0893 C.3       1 <1>         0.0000
      5 C5          4.8039   -0.3594    1.1106 C.3       1 <1>         0.0000
      6 C6          3.3911    0.0259    0.6520 C.3       1 <1>         0.0000
      7 N1          2.4417   -0.3621    1.7420 N.4       1 <1>         0.0000
      8 O1          3.5220    2.3676    0.9980 O.co2     1 <1>        -0.5000
      9 O2          2.8454    1.6038   -1.0421 O.co2     1 <1>        -0.5000
     10 H1          6.1577   -4.2102    2.1056 H         1 <1>         0.0000
     11 H2          6.7129   -4.0256    0.4329 H         1 <1>         0.0000
     12 H3          7.8630   -3.8515    1.7697 H         1 <1>         0.0000
     13 H4          7.2257   -1.6297    0.8426 H         1 <1>         0.0000
     14 H5          6.7081   -1.7923    2.5224 H         1 <1>         0.0000
     15 H6          4.4084   -2.3878    1.7722 H         1 <1>         0.0000
     16 H7          4.9119   -2.2700    0.0858 H         1 <1>         0.0000
     17 H8          4.9660    0.0177    2.1290 H         1 <1>         0.0000
     18 H9          5.5405    0.1535    0.4790 H         1 <1>         0.0000
     19 H10         3.1222   -0.6146   -0.1973 H         1 <1>         0.0000
     20 H11         2.6242   -1.3197    2.0457 H         1 <1>         0.0000
     21 H12         1.4782   -0.3031    1.4088 H         1 <1>         0.0000
     22 H13         2.5493    0.2612    2.5434 H         1 <1>         0.0000
@<TRIPOS>BOND
     1    1    6 1
     2    1    8 1
     3    1    9 2
     4    2    3 1
     5    3    4 1
     6    4    5 1
     7    5    6 1
     8    6    7 1
     9    2   10 1
    10    2   11 1
    11    2   12 1
    12    3   13 1
    13    3   14 1
    14    4   15 1
    15    4   16 1
    16    5   17 1
    17    5   18 1
    18    6   19 1
    19    7   20 1
    20    7   21 1
    21    7   22 1
@<TRIPOS>Similarity
1.3874
@<TRIPOS>ShapeSim
0.8051
@<TRIPOS>PharmSim
0.5823
# END
# Name:		DB02036
# Created and modified by SHAFTS on Mon Feb  6 15:41:12 2012

# 

@<TRIPOS>MOLECULE
DB02036
   26    27     0
SMALL
USER_CHARGE


@<TRIPOS>ATOM
      1 C1          7.5530   -3.6291    1.4586 C.ar      1 <1>        -0.0603
      2 C2          6.2784   -4.1752    1.3306 C.ar      1 <1>        -0.0610
      3 C3          7.7082   -2.2519    1.6128 C.ar      1 <1>        -0.0396
      4 C4          5.1568   -3.3457    1.3623 C.ar      1 <1>        -0.0467
      5 C5          6.5876   -1.4123    1.6218 C.ar      1 <1>         0.0462
      6 C6          5.3051   -1.9606    1.5055 C.ar      1 <1>         0.0295
      7 C7          5.8451    0.9596    1.6811 C.2       1 <1>         0.2300
      8 C8          2.4666    1.5823   -0.0424 C.2       1 <1>         0.2360
      9 C9          4.5584    0.5861    0.9608 C.3       1 <1>         0.0951
     10 C10         3.5150    1.6949    1.0440 C.3       1 <1>         0.0474
     11 N1          6.7969   -0.0325    1.8110 N.am      1 <1>        -0.2834
     12 N2          1.4033    0.8136    0.3649 N.am      1 <1>        -0.1981
     13 O1          6.0797    2.1193    2.0293 O.2       1 <1>        -0.2760
     14 O2          2.5732    2.1140   -1.1444 O.2       1 <1>        -0.2754
     15 O3          0.3783    0.6434   -0.5751 O.3       1 <1>        -0.2967
     16 S1          3.8546   -0.9395    1.6347 S.3       1 <1>        -0.1104
     17 H1          8.4252   -4.2759    1.4438 H         1 <1>         0.0623
     18 H2          6.1564   -5.2484    1.2172 H         1 <1>         0.0623
     19 H3          8.7098   -1.8420    1.7188 H         1 <1>         0.0643
     20 H4          4.1703   -3.7961    1.2800 H         1 <1>         0.0635
     21 H5          4.8081    0.4191   -0.0942 H         1 <1>         0.0525
     22 H6          3.0194    1.6513    2.0179 H         1 <1>         0.0382
     23 H7          4.0123    2.6650    0.9545 H         1 <1>         0.0382
     24 H8          7.7281    0.2533    2.1023 H         1 <1>         0.1557
     25 H9          1.3630    0.3957    1.2878 H         1 <1>         0.1836
     26 H10         0.7342    1.1603   -1.3173 H         1 <1>         0.2427
@<TRIPOS>BOND
     1    1    2 ar
     2    1    3 ar
     3    2    4 ar
     4    3    5 ar
     5    4    6 ar
     6    5    6 ar
     7    5   11 1
     8    6   16 1
     9    7    9 1
    10    7   11 am
    11    7   13 2
    12    8   10 1
    13    8   12 am
    14    8   14 2
    15    9   10 1
    16    9   16 1
    17   12   15 1
    18    1   17 1
    19    2   18 1
    20    3   19 1
    21    4   20 1
    22    9   21 1
    23   10   22 1
    24   10   23 1
    25   11   24 1
    26   12   25 1
    27   15   26 1
@<TRIPOS>Similarity
1.3806
@<TRIPOS>ShapeSim
0.9033
@<TRIPOS>PharmSim
0.4772
# END
# Name:		DB07919
# Created and modified by SHAFTS on Mon Feb  6 15:41:12 2012

# 

@<TRIPOS>MOLECULE
DB07919
   28    30     0
SMALL
USER_CHARGE


@<TRIPOS>ATOM
      1 C1          5.0704   -3.1917    1.1467 C.ar      1 <1>        -0.0498
      2 C2          6.0864   -4.0956    1.3622 C.ar      1 <1>        -0.0311
      3 C3          3.1556   -0.3985    0.7382 C.ar      1 <1>        -0.0340
      4 C4          7.6584   -2.2940    1.6476 C.ar      1 <1>        -0.0098
      5 C5          2.7082    0.9018    0.6382 C.ar      1 <1>         0.0279
      6 C6          5.3379   -1.8242    1.1812 C.ar      1 <1>         0.0052
      7 C7          4.5055   -0.6241    1.0063 C.ar      1 <1>         0.0083
      8 C8          6.6421   -1.3690    1.4356 C.ar      1 <1>         0.0409
      9 C9          5.3591    0.4823    1.1589 C.ar      1 <1>         0.0599
     10 C10         7.3795   -3.6484    1.6150 C.ar      1 <1>         0.0765
     11 C11         4.8181    1.7572    1.0464 C.ar      1 <1>         0.0592
     12 C12         5.7068    2.9633    1.2105 C.3       1 <1>        -0.0203
     13 C13         7.7872   -5.8465    1.7281 C.3       1 <1>         0.0422
     14 N1          3.5360    1.9203    0.7923 N.ar      1 <1>        -0.2595
     15 N2          6.6343    0.0142    1.4155 N.pl3     1 <1>        -0.3123
     16 O1          8.3754   -4.5480    1.8274 O.3       1 <1>        -0.3492
     17 H1          4.0676   -3.5418    0.9514 H         1 <1>         0.0631
     18 H2          5.8789   -5.1551    1.3354 H         1 <1>         0.0650
     19 H3          2.4737   -1.2264    0.6118 H         1 <1>         0.0646
     20 H4          8.6648   -1.9546    1.8441 H         1 <1>         0.0670
     21 H5          1.6653    1.0908    0.4310 H         1 <1>         0.0840
     22 H6          6.1159    3.2477    0.2410 H         1 <1>         0.0296
     23 H7          5.1250    3.7909    1.6162 H         1 <1>         0.0296
     24 H8          6.5224    2.7235    1.8928 H         1 <1>         0.0296
     25 H9          7.0055   -5.9498    2.4806 H         1 <1>         0.0535
     26 H10         7.3553   -5.9747    0.7355 H         1 <1>         0.0535
     27 H11         8.5522   -6.6054    1.8922 H         1 <1>         0.0535
     28 H12         7.4123    0.5753    1.5601 H         1 <1>         0.1529
@<TRIPOS>BOND
     1    1    2 ar
     2    1    6 ar
     3    2   10 ar
     4    3    5 ar
     5    3    7 ar
     6    4    8 ar
     7    4   10 ar
     8    5   14 ar
     9    6    7 1
    10    6    8 ar
    11    7    9 ar
    12    8   15 1
    13    9   11 ar
    14    9   15 1
    15   10   16 1
    16   11   12 1
    17   11   14 ar
    18   13   16 1
    19    1   17 1
    20    2   18 1
    21    3   19 1
    22    4   20 1
    23    5   21 1
    24   12   22 1
    25   12   23 1
    26   12   24 1
    27   13   25 1
    28   13   26 1
    29   13   27 1
    30   15   28 1
@<TRIPOS>Similarity
1.3786
@<TRIPOS>ShapeSim
0.8571
@<TRIPOS>PharmSim
0.5215
# END
# Name:		DB00669
# Created and modified by SHAFTS on Mon Feb  6 15:41:12 2012

# 

@<TRIPOS>MOLECULE
DB00669
   42    43     0
SMALL
USER_CHARGE


@<TRIPOS>ATOM
      1 C1          7.4218   -3.5720    1.3961 C.ar      1 <1>        -0.0556
      2 C2          7.7277   -2.2081    1.3962 C.ar      1 <1>        -0.0399
      3 C3          5.0403   -3.0970    1.3961 C.ar      1 <1>        -0.0480
      4 C4          5.3726    0.5430    1.3968 C.2       1 <1>        -0.0034
      5 C5          5.3242   -1.7168    1.3962 C.ar      1 <1>         0.0004
      6 C6          6.0996   -4.0119    1.3961 C.ar      1 <1>        -0.0287
      7 C7          4.5242   -0.5401    1.3964 C.2       1 <1>        -0.0268
      8 C8          6.6587   -1.3051    1.3963 C.ar      1 <1>         0.0375
      9 C9          4.4217   -8.3496    3.8894 C.3       1 <1>         0.0104
     10 C10         0.4120   -1.1908    0.1538 C.3       1 <1>        -0.1038
     11 C11         0.4143    0.9050    1.4986 C.3       1 <1>        -0.1038
     12 C12         3.0485   -0.4803    1.3964 C.3       1 <1>        -0.0408
     13 C13         5.8072   -5.4757    1.3962 C.3       1 <1>         0.0585
     14 C14         2.4367    0.2586    0.1975 C.3       1 <1>        -0.0875
     15 N1          6.6579    0.0716    1.3965 N.pl3     1 <1>        -0.3203
     16 N2          4.6710   -7.5321    2.6885 N.pl3     1 <1>        -0.2971
     17 N3          0.9556    0.2121    0.2721 N.4       1 <1>         0.3782
     18 O1          5.7704   -5.5986    4.0103 O.2       1 <1>        -0.4811
     19 O2          3.6100   -5.1963    2.7746 O.2       1 <1>        -0.4811
     20 S1          4.9075   -5.8478    2.8664 S.o2      1 <1>        -0.1930
     21 H1          8.2364   -4.2929    1.3953 H         1 <1>         0.0627
     22 H2          8.7575   -1.8666    1.3965 H         1 <1>         0.0643
     23 H3          4.0113   -3.4467    1.3959 H         1 <1>         0.0633
     24 H4          5.1787    1.6067    1.3977 H         1 <1>         0.0792
     25 H5          5.0041   -7.9672    4.7317 H         1 <1>         0.0443
     26 H6          4.7088   -9.3885    3.7057 H         1 <1>         0.0443
     27 H7          3.3610   -8.3204    4.1529 H         1 <1>         0.0443
     28 H8          0.7906   -1.7679    0.9994 H         1 <1>         0.0022
     29 H9         -0.6776   -1.1299    0.1763 H         1 <1>         0.0022
     30 H10         0.7625   -1.6061   -0.7930 H         1 <1>         0.0022
     31 H11         0.7929    0.3764    2.3753 H         1 <1>         0.0022
     32 H12         0.7660    1.9383    1.4810 H         1 <1>         0.0022
     33 H13        -0.6755    0.8605    1.4538 H         1 <1>         0.0022
     34 H14         2.6332   -1.5056    1.3960 H         1 <1>         0.0297
     35 H15         2.6608   -0.0256    2.3277 H         1 <1>         0.0297
     36 H16         6.7202   -6.0810    1.3963 H         1 <1>         0.0530
     37 H17         5.1937   -5.7761    0.5397 H         1 <1>         0.0530
     38 H18         2.7118   -0.2140   -0.7501 H         1 <1>         0.0062
     39 H19         2.7212    1.3149    0.1717 H         1 <1>         0.0062
     40 H20         7.4867    0.6498    1.3967 H         1 <1>         0.1522
     41 H21         4.1502   -7.8415    1.8576 H         1 <1>         0.1632
     42 H22         0.5815    0.7331   -0.5393 H         1 <1>        -0.0829
@<TRIPOS>BOND
     1    1    2 ar
     2    1    6 ar
     3    2    8 ar
     4    3    5 ar
     5    3    6 ar
     6    4    7 2
     7    4   15 1
     8    5    7 1
     9    5    8 ar
    10    6   13 1
    11    7   12 1
    12    8   15 1
    13    9   16 1
    14   10   17 1
    15   11   17 1
    16   12   14 1
    17   13   20 1
    18   14   17 1
    19   16   20 1
    20   18   20 2
    21   19   20 2
    22    1   21 1
    23    2   22 1
    24    3   23 1
    25    4   24 1
    26    9   25 1
    27    9   26 1
    28    9   27 1
    29   10   28 1
    30   10   29 1
    31   10   30 1
    32   11   31 1
    33   11   32 1
    34   11   33 1
    35   12   34 1
    36   12   35 1
    37   13   36 1
    38   13   37 1
    39   14   38 1
    40   14   39 1
    41   15   40 1
    42   16   41 1
    43   17   42 1
@<TRIPOS>Similarity
1.3776
@<TRIPOS>ShapeSim
0.7892
@<TRIPOS>PharmSim
0.5884
# END
# Name:		DB00856
# Created and modified by SHAFTS on Mon Feb  6 15:41:12 2012

# 

@<TRIPOS>MOLECULE
DB00856
   24    24     0
SMALL
USER_CHARGE


@<TRIPOS>ATOM
      1 C1          4.9976   -2.4171    0.9477 C.ar      1 <1>        -0.0303
      2 C2          7.2395   -1.6648    1.4430 C.ar      1 <1>        -0.0303
      3 C3          5.3908   -3.7364    1.1719 C.ar      1 <1>        -0.0409
      4 C4          7.6326   -2.9843    1.6672 C.ar      1 <1>        -0.0409
      5 C5          5.9219   -1.3812    1.0833 C.ar      1 <1>         0.0752
      6 C6          6.7083   -4.0201    1.5316 C.ar      1 <1>         0.0408
      7 C7          2.1494    1.0029   -0.3705 C.3       1 <1>         0.0714
      8 C8          4.4894    0.1185   -0.0804 C.3       1 <1>         0.0816
      9 C9          3.2913    0.7622    0.6082 C.3       1 <1>         0.1009
     10 O1          2.5942    1.8915   -1.3900 O.3       1 <1>        -0.3935
     11 O2          3.6924    2.0278    1.1382 O.3       1 <1>        -0.3882
     12 O3          5.5363   -0.0858    0.8627 O.3       1 <1>        -0.3433
     13 Cl1         7.1939   -5.6479    1.8067 Cl        1 <1>        -0.0843
     14 H1          3.9700   -2.2031    0.6674 H         1 <1>         0.0651
     15 H2          7.9641   -0.8623    1.5497 H         1 <1>         0.0651
     16 H3          4.6601   -4.5339    1.0616 H         1 <1>         0.0639
     17 H4          8.6629   -3.1908    1.9460 H         1 <1>         0.0639
     18 H5          1.2908    1.4651    0.1275 H         1 <1>         0.0592
     19 H6          1.8362    0.0691   -0.8479 H         1 <1>         0.0592
     20 H7          4.8777    0.7493   -0.8861 H         1 <1>         0.0600
     21 H8          4.2279   -0.8609   -0.4932 H         1 <1>         0.0600
     22 H9          2.9508    0.1584    1.4570 H         1 <1>         0.0649
     23 H10         1.8445    2.0210   -1.9920 H         1 <1>         0.2101
     24 H11         2.9136    2.3967    1.5802 H         1 <1>         0.2107
@<TRIPOS>BOND
     1    1    3 ar
     2    1    5 ar
     3    2    4 ar
     4    2    5 ar
     5    3    6 ar
     6    4    6 ar
     7    5   12 1
     8    6   13 1
     9    7    9 1
    10    7   10 1
    11    8    9 1
    12    8   12 1
    13    9   11 1
    14    1   14 1
    15    2   15 1
    16    3   16 1
    17    4   17 1
    18    7   18 1
    19    7   19 1
    20    8   20 1
    21    8   21 1
    22    9   22 1
    23   10   23 1
    24   11   24 1
@<TRIPOS>Similarity
1.3727
@<TRIPOS>ShapeSim
0.8507
@<TRIPOS>PharmSim
0.5221
# END
# Name:		DB07910
# Created and modified by SHAFTS on Mon Feb  6 15:41:12 2012

# 

@<TRIPOS>MOLECULE
DB07910
   26    26     0
SMALL
USER_CHARGE


@<TRIPOS>ATOM
      1 C1          7.1539   -3.4401    1.2516 C.ar      1 <1>        -0.0622
      2 C2          5.9173   -3.7929    0.7115 C.ar      1 <1>        -0.0620
      3 C3          7.3192   -2.1969    1.8620 C.ar      1 <1>        -0.0620
      4 C4          4.8459   -2.9025    0.7817 C.ar      1 <1>        -0.0591
      5 C5          6.2479   -1.3064    1.9322 C.ar      1 <1>        -0.0591
      6 C6          5.0112   -1.6592    1.3921 C.ar      1 <1>        -0.0494
      7 C7          3.8527   -0.6953    1.4681 C.3       1 <1>        -0.0360
      8 C8          3.7715    0.2476    0.2591 C.3       1 <1>        -0.0278
      9 C9          2.4370    0.9938    0.1202 C.3       1 <1>         0.1388
     10 N1          4.8637    1.2621    0.4137 N.4       1 <1>         0.3849
     11 O1          1.3831    0.0413    0.0279 O.3       1 <1>        -0.3698
     12 O2          2.4663    1.8414   -1.0203 O.3       1 <1>        -0.3698
     13 H1          7.9876   -4.1341    1.1980 H         1 <1>         0.0622
     14 H2          5.7880   -4.7615    0.2371 H         1 <1>         0.0623
     15 H3          8.2817   -1.9223    2.2836 H         1 <1>         0.0623
     16 H4          3.8861   -3.1859    0.3580 H         1 <1>         0.0625
     17 H5          6.3860   -0.3398    2.4095 H         1 <1>         0.0625
     18 H6          2.9129   -1.2501    1.5887 H         1 <1>         0.0301
     19 H7          3.9645   -0.1108    2.3917 H         1 <1>         0.0301
     20 H8          4.0048   -0.2788   -0.6736 H         1 <1>         0.0140
     21 H9          2.2640    1.6067    1.0121 H         1 <1>         0.0899
     22 H10         5.3612    1.1127    1.2918 H         1 <1>        -0.0896
     23 H11         4.4708    2.2039    0.4151 H         1 <1>        -0.0896
     24 H12         5.5277    1.1844   -0.3573 H         1 <1>        -0.0896
     25 H13         0.5533    0.5406   -0.0588 H         1 <1>         0.2132
     26 H14         1.6049    2.2897   -1.0658 H         1 <1>         0.2132
@<TRIPOS>BOND
     1    1    2 ar
     2    1    3 ar
     3    2    4 ar
     4    3    5 ar
     5    4    6 ar
     6    5    6 ar
     7    6    7 1
     8    7    8 1
     9    8    9 1
    10    8   10 1
    11    9   11 1
    12    9   12 1
    13    1   13 1
    14    2   14 1
    15    3   15 1
    16    4   16 1
    17    5   17 1
    18    7   18 1
    19    7   19 1
    20    8   20 1
    21    9   21 1
    22   10   22 1
    23   10   23 1
    24   10   24 1
    25   11   25 1
    26   12   26 1
@<TRIPOS>Similarity
1.3619
@<TRIPOS>ShapeSim
0.8854
@<TRIPOS>PharmSim
0.4765
# END
# Name:		DB03028
# Created and modified by SHAFTS on Mon Feb  6 15:41:12 2012

# 

@<TRIPOS>MOLECULE
DB03028
   17    18     0
SMALL
USER_CHARGE


@<TRIPOS>ATOM
      1 C1          6.6783   -4.0478    1.4821 C.ar      1 <1>         0.0000
      2 C2          7.7506   -3.1857    1.6758 C.ar      1 <1>         0.0000
      3 C3          5.4282   -3.5616    1.2344 C.ar      1 <1>         0.0000
      4 C4          7.5706   -1.8211    1.6216 C.ar      1 <1>         0.0000
      5 C5          5.2167   -2.1768    1.1744 C.ar      1 <1>         0.0000
      6 C6          6.3056   -1.3027    1.3711 C.ar      1 <1>         0.0000
      7 C7          4.4590   -0.1507    0.9996 C.2       1 <1>         0.0000
      8 C8          3.5253    0.9770    0.8041 C.2       1 <1>         0.0000
      9 N1          4.1295   -1.4176    0.9604 N.2       1 <1>         0.0000
     10 N2          5.8007   -0.0294    1.2557 N.pl3     1 <1>         0.0000
     11 O1          3.9349    2.1276    0.8661 O.co2     1 <1>        -0.5000
     12 O2          2.3420    0.7602    0.5851 O.co2     1 <1>        -0.5000
     13 H1          6.8364   -5.1151    1.5278 H         1 <1>         0.0000
     14 H2          8.7336   -3.5887    1.8701 H         1 <1>         0.0000
     15 H3          4.6027   -4.2420    1.0856 H         1 <1>         0.0000
     16 H4          8.4086   -1.1570    1.7727 H         1 <1>         0.0000
     17 H5          6.2992    0.7984    1.3393 H         1 <1>         0.0000
@<TRIPOS>BOND
     1    1    2 ar
     2    1    3 ar
     3    2    4 ar
     4    3    5 ar
     5    4    6 ar
     6    5    6 ar
     7    5    9 1
     8    6   10 1
     9    7    8 1
    10    7    9 2
    11    7   10 1
    12    8   11 1
    13    8   12 2
    14    1   13 1
    15    2   14 1
    16    3   15 1
    17    4   16 1
    18   10   17 1
@<TRIPOS>Similarity
1.3617
@<TRIPOS>ShapeSim
0.8939
@<TRIPOS>PharmSim
0.4678
# END
# Name:		DB08254
# Created and modified by SHAFTS on Mon Feb  6 15:41:12 2012

# 

@<TRIPOS>MOLECULE
DB08254
   21    22     0
SMALL
USER_CHARGE


@<TRIPOS>ATOM
      1 C1          7.3049   -3.8319    1.4407 C.ar      1 <1>        -0.0616
      2 C2          5.9794   -4.2331    1.2837 C.ar      1 <1>        -0.0616
      3 C3          7.6318   -2.5139    1.5325 C.ar      1 <1>        -0.0544
      4 C4          4.9736   -3.3188    1.2178 C.ar      1 <1>        -0.0543
      5 C5          6.9192   -0.1702    1.5580 C.ar      1 <1>        -0.0526
      6 C6          5.9141    0.7445    1.4855 C.ar      1 <1>        -0.0401
      7 C7          4.2609   -0.9750    1.2440 C.ar      1 <1>        -0.0329
      8 C8          6.6203   -1.5405    1.4674 C.ar      1 <1>        -0.0183
      9 C9          5.2724   -1.9485    1.3085 C.ar      1 <1>        -0.0166
     10 C10         4.5880    0.3429    1.3348 C.ar      1 <1>         0.0430
     11 O1          3.1610    1.8989   -0.1525 O.3       1 <1>        -0.4148
     12 O2          3.7771    2.6893    2.0468 O.2       1 <1>        -0.4879
     13 O3          2.1217    0.9445    1.8096 O.2       1 <1>        -0.4879
     14 S1          3.3167    1.5602    1.2536 S.o2      1 <1>        -0.2023
     15 H1          8.0842   -4.5779    1.4906 H         1 <1>         0.0623
     16 H2          5.7470   -5.2855    1.2138 H         1 <1>         0.0623
     17 H3          8.6632   -2.2177    1.6546 H         1 <1>         0.0629
     18 H4          3.9510   -3.6444    1.0967 H         1 <1>         0.0629
     19 H5          7.9416    0.1553    1.6806 H         1 <1>         0.0630
     20 H6          6.1466    1.7969    1.5554 H         1 <1>         0.0642
     21 H7          3.2294   -1.2712    1.1234 H         1 <1>         0.0648
@<TRIPOS>BOND
     1    1    2 ar
     2    1    3 ar
     3    2    4 ar
     4    3    8 ar
     5    4    9 ar
     6    5    6 ar
     7    5    8 ar
     8    6   10 ar
     9    7    9 ar
    10    7   10 ar
    11    8    9 ar
    12   10   14 1
    13   11   14 1
    14   12   14 2
    15   13   14 2
    16    1   15 1
    17    2   16 1
    18    3   17 1
    19    4   18 1
    20    5   19 1
    21    6   20 1
    22    7   21 1
@<TRIPOS>Similarity
1.3606
@<TRIPOS>ShapeSim
0.8738
@<TRIPOS>PharmSim
0.4868
# END
# Name:		DB02570
# Created and modified by SHAFTS on Mon Feb  6 15:41:12 2012

# 

@<TRIPOS>MOLECULE
DB02570
   21    21     0
SMALL
USER_CHARGE


@<TRIPOS>ATOM
      1 C1          4.8362   -2.9339    0.8797 C.ar      1 <1>         0.0000
      2 C2          6.5233   -1.3945    1.6679 C.ar      1 <1>         0.0000
      3 C3          5.7778   -3.9630    0.8742 C.ar      1 <1>         0.0000
      4 C4          7.4648   -2.4236    1.6625 C.ar      1 <1>         0.0000
      5 C5          5.2090   -1.6496    1.2765 C.ar      1 <1>         0.0000
      6 C6          7.0921   -3.7079    1.2656 C.ar      1 <1>         0.0000
      7 C7          3.4073    1.5482   -0.0654 C.2       1 <1>         0.0000
      8 C8          4.2031   -0.5485    1.2802 C.3       1 <1>         0.0000
      9 C9          4.1457    0.1999   -0.0624 C.3       1 <1>         0.0000
     10 O1          3.5137    2.2482    0.9809 O.co2     1 <1>        -0.5000
     11 O2          2.7612    1.7928   -1.1262 O.co2     1 <1>        -0.5000
     12 S1          3.1854   -0.7695   -1.2796 S.3       1 <1>         0.0000
     13 I1          8.4946   -5.2407    1.2546 I         1 <1>         0.0000
     14 H1          3.8144   -3.1414    0.5731 H         1 <1>         0.0000
     15 H2          6.8232   -0.3969    1.9773 H         1 <1>         0.0000
     16 H3          5.4662   -4.9558    0.5590 H         1 <1>         0.0000
     17 H4          8.4839   -2.2027    1.9702 H         1 <1>         0.0000
     18 H5          4.4526    0.1671    2.0858 H         1 <1>         0.0000
     19 H6          3.2017   -0.9370    1.5434 H         1 <1>         0.0000
     20 H7          5.1563    0.3347   -0.4647 H         1 <1>         0.0000
     21 H8          2.0243   -0.6926   -0.6181 H         1 <1>         0.0000
@<TRIPOS>BOND
     1    1    3 ar
     2    1    5 ar
     3    2    4 ar
     4    2    5 ar
     5    3    6 ar
     6    4    6 ar
     7    5    8 1
     8    6   13 1
     9    7    9 1
    10    7   10 1
    11    7   11 2
    12    8    9 1
    13    9   12 1
    14    1   14 1
    15    2   15 1
    16    3   16 1
    17    4   17 1
    18    8   18 1
    19    8   19 1
    20    9   20 1
    21   12   21 1
@<TRIPOS>Similarity
1.3604
@<TRIPOS>ShapeSim
0.8161
@<TRIPOS>PharmSim
0.5443
# END
# Name:		DB02884
# Created and modified by SHAFTS on Mon Feb  6 15:41:12 2012

# 

@<TRIPOS>MOLECULE
DB02884
   29    29     0
SMALL
USER_CHARGE


@<TRIPOS>ATOM
      1 C1          2.8512    1.5495   -0.0833 C.2       1 <1>         0.0000
      2 C2          6.3000   -1.0033    2.5730 C.3       1 <1>         0.0000
      3 C3          6.5698   -0.5328    1.1472 C.3       1 <1>         0.0000
      4 C4          5.3328   -2.1826    2.6011 C.3       1 <1>         0.0000
      5 C5          5.2742   -0.2122    0.4051 C.3       1 <1>         0.0000
      6 C6          4.0353   -1.8650    1.8615 C.3       1 <1>         0.0000
      7 C7          4.3021   -1.3996    0.4236 C.3       1 <1>         0.0000
      8 C8          2.9943   -1.0371   -0.2775 C.3       1 <1>         0.0000
      9 C9          2.2747    0.1793    0.3140 C.3       1 <1>         0.0000
     10 N1          0.8137    0.0201    0.0298 N.4       1 <1>         0.0000
     11 O1          2.8235    1.8220   -1.3163 O.co2     1 <1>        -0.5000
     12 O2          3.2639    2.2584    0.8789 O.co2     1 <1>        -0.5000
     13 H1          7.2432   -1.2886    3.0526 H         1 <1>         0.0000
     14 H2          5.8817   -0.1744    3.1574 H         1 <1>         0.0000
     15 H3          7.2122    0.3546    1.1679 H         1 <1>         0.0000
     16 H4          7.1185   -1.3117    0.6036 H         1 <1>         0.0000
     17 H5          5.8104   -3.0568    2.1417 H         1 <1>         0.0000
     18 H6          5.1088   -2.4504    3.6400 H         1 <1>         0.0000
     19 H7          4.8019    0.6644    0.8668 H         1 <1>         0.0000
     20 H8          5.5094    0.0626   -0.6301 H         1 <1>         0.0000
     21 H9          3.3966   -2.7563    1.8540 H         1 <1>         0.0000
     22 H10         3.4886   -1.0872    2.4099 H         1 <1>         0.0000
     23 H11         4.7613   -2.2304   -0.1286 H         1 <1>         0.0000
     24 H12         2.3303   -1.9089   -0.2424 H         1 <1>         0.0000
     25 H13         3.2089   -0.8602   -1.3374 H         1 <1>         0.0000
     26 H14         2.3572    0.1248    1.4068 H         1 <1>         0.0000
     27 H15         0.5072   -0.9231    0.2716 H         1 <1>         0.0000
     28 H16         0.6273    0.1805   -0.9612 H         1 <1>         0.0000
     29 H17         0.2720    0.6905    0.5771 H         1 <1>         0.0000
@<TRIPOS>BOND
     1    1    9 1
     2    1   11 1
     3    1   12 2
     4    2    3 1
     5    2    4 1
     6    3    5 1
     7    4    6 1
     8    5    7 1
     9    6    7 1
    10    7    8 1
    11    8    9 1
    12    9   10 1
    13    2   13 1
    14    2   14 1
    15    3   15 1
    16    3   16 1
    17    4   17 1
    18    4   18 1
    19    5   19 1
    20    5   20 1
    21    6   21 1
    22    6   22 1
    23    7   23 1
    24    8   24 1
    25    8   25 1
    26    9   26 1
    27   10   27 1
    28   10   28 1
    29   10   29 1
@<TRIPOS>Similarity
1.3597
@<TRIPOS>ShapeSim
0.7376
@<TRIPOS>PharmSim
0.6221
# END
# Name:		DB03884
# Created and modified by SHAFTS on Mon Feb  6 15:41:12 2012

# 

@<TRIPOS>MOLECULE
DB03884
   19    19     0
SMALL
USER_CHARGE


@<TRIPOS>ATOM
      1 C1          6.8950   -3.9294    1.1363 C.ar      1 <1>         0.0000
      2 C2          5.6074   -3.8374    1.6311 C.ar      1 <1>         0.0000
      3 C3          7.5627   -2.7890    0.7307 C.ar      1 <1>         0.0000
      4 C4          4.9878   -2.6049    1.7207 C.ar      1 <1>         0.0000
      5 C5          6.9415   -1.5571    0.8163 C.ar      1 <1>         0.0000
      6 C6          5.6559   -1.4644    1.3159 C.ar      1 <1>         0.0000
      7 C7          4.2337    0.1601    0.1350 C.2       1 <1>         0.0000
      8 C8          3.4753    1.4371   -0.0216 C.2       1 <1>         0.0000
      9 C9          4.9804   -0.1208    1.4135 C.3       1 <1>         0.0000
     10 O1          3.4562    2.2510    0.8876 O.co2     1 <1>        -0.5000
     11 O2          4.2484   -0.6475   -0.7629 O.2       1 <1>         0.0000
     12 O3          2.8705    1.6647   -1.0571 O.co2     1 <1>        -0.5000
     13 H1          7.3793   -4.8922    1.0670 H         1 <1>         0.0000
     14 H2          5.0858   -4.7284    1.9480 H         1 <1>         0.0000
     15 H3          8.5687   -2.8607    0.3445 H         1 <1>         0.0000
     16 H4          3.9820   -2.5331    2.1072 H         1 <1>         0.0000
     17 H5          7.4631   -0.6660    0.4993 H         1 <1>         0.0000
     18 H6          5.7315    0.6527    1.5730 H         1 <1>         0.0000
     19 H7          4.2807   -0.1258    2.2493 H         1 <1>         0.0000
@<TRIPOS>BOND
     1    1    2 ar
     2    1    3 ar
     3    2    4 ar
     4    3    5 ar
     5    4    6 ar
     6    5    6 ar
     7    6    9 1
     8    7    8 1
     9    7    9 1
    10    7   11 2
    11    8   10 1
    12    8   12 2
    13    1   13 1
    14    2   14 1
    15    3   15 1
    16    4   16 1
    17    5   17 1
    18    9   18 1
    19    9   19 1
@<TRIPOS>Similarity
1.3597
@<TRIPOS>ShapeSim
0.8263
@<TRIPOS>PharmSim
0.5334
# END
# Name:		DB02494
# Created and modified by SHAFTS on Mon Feb  6 15:41:12 2012

# 

@<TRIPOS>MOLECULE
DB02494
   21    21     0
SMALL
USER_CHARGE


@<TRIPOS>ATOM
      1 C1          7.2508   -3.6523    1.2867 C.ar      1 <1>         0.0000
      2 C2          5.9512   -3.9661    0.8895 C.ar      1 <1>         0.0000
      3 C3          7.5709   -2.3461    1.6570 C.ar      1 <1>         0.0000
      4 C4          4.9713   -2.9737    0.8625 C.ar      1 <1>         0.0000
      5 C5          6.5910   -1.3536    1.6300 C.ar      1 <1>         0.0000
      6 C6          5.2912   -1.6674    1.2327 C.ar      1 <1>         0.0000
      7 C7          3.4208    1.4619   -0.1224 C.2       1 <1>         0.0000
      8 C8          4.2441   -0.6057    1.2039 C.3       1 <1>         0.0000
      9 C9          4.1629    0.1170   -0.1498 C.3       1 <1>         0.0000
     10 O1          3.5623    2.1114    0.9544 O.co2     1 <1>        -0.5000
     11 O2          2.7684    1.7671   -1.1585 O.co2     1 <1>        -0.5000
     12 O3          3.4580   -0.7163   -1.0696 O.3       1 <1>         0.0000
     13 H1          8.0134   -4.4254    1.3090 H         1 <1>         0.0000
     14 H2          5.7016   -4.9833    0.6022 H         1 <1>         0.0000
     15 H3          8.5824   -2.1016    1.9674 H         1 <1>         0.0000
     16 H4          3.9614   -3.2274    0.5515 H         1 <1>         0.0000
     17 H5          6.8495   -0.3386    1.9201 H         1 <1>         0.0000
     18 H6          3.2602   -1.0442    1.4473 H         1 <1>         0.0000
     19 H7          4.4449    0.1266    2.0049 H         1 <1>         0.0000
     20 H8          5.1719    0.2840   -0.5465 H         1 <1>         0.0000
     21 H9          3.4855   -0.2636   -1.9262 H         1 <1>         0.0000
@<TRIPOS>BOND
     1    1    2 ar
     2    1    3 ar
     3    2    4 ar
     4    3    5 ar
     5    4    6 ar
     6    5    6 ar
     7    6    8 1
     8    7    9 1
     9    7   10 1
    10    7   11 2
    11    8    9 1
    12    9   12 1
    13    1   13 1
    14    2   14 1
    15    3   15 1
    16    4   16 1
    17    5   17 1
    18    8   18 1
    19    8   19 1
    20    9   20 1
    21   12   21 1
@<TRIPOS>Similarity
1.3574
@<TRIPOS>ShapeSim
0.8315
@<TRIPOS>PharmSim
0.5259
# END
# Name:		DB04584
# Created and modified by SHAFTS on Mon Feb  6 15:41:12 2012

# 

@<TRIPOS>MOLECULE
DB04584
   21    21     0
SMALL
USER_CHARGE


@<TRIPOS>ATOM
      1 C1          6.8521   -3.9276    1.4196 C.ar      1 <1>         0.0000
      2 C2          5.8165   -3.6067    2.2971 C.ar      1 <1>         0.0000
      3 C3          7.2119   -3.0356    0.4093 C.ar      1 <1>         0.0000
      4 C4          5.1405   -2.3938    2.1645 C.ar      1 <1>         0.0000
      5 C5          6.5359   -1.8227    0.2766 C.ar      1 <1>         0.0000
      6 C6          5.5002   -1.5018    1.1541 C.ar      1 <1>         0.0000
      7 C7          4.7956   -0.2369    1.0153 C.2       1 <1>         0.0000
      8 C8          4.0793    0.1740   -0.0563 C.2       1 <1>         0.0000
      9 C9          3.3745    1.5477   -0.0672 C.2       1 <1>         0.0000
     10 N1          3.9485   -0.6888   -1.1773 N.4       1 <1>         0.0000
     11 O1          3.5059    2.2553    0.9720 O.co2     1 <1>        -0.5000
     12 O2          2.7467    1.8144   -1.1337 O.co2     1 <1>        -0.5000
     13 H1          7.3793   -4.8714    1.5237 H         1 <1>         0.0000
     14 H2          5.5370   -4.3007    3.0846 H         1 <1>         0.0000
     15 H3          8.0189   -3.2848   -0.2733 H         1 <1>         0.0000
     16 H4          4.3353   -2.1578    2.8562 H         1 <1>         0.0000
     17 H5          6.8279   -1.1378   -0.5160 H         1 <1>         0.0000
     18 H6          4.8563    0.4118    1.8941 H         1 <1>         0.0000
     19 H7          3.0547   -0.5370   -1.6533 H         1 <1>         0.0000
     20 H8          3.9900   -1.6706   -0.8895 H         1 <1>         0.0000
     21 H9          4.6979   -0.5273   -1.8560 H         1 <1>         0.0000
@<TRIPOS>BOND
     1    1    2 ar
     2    1    3 ar
     3    2    4 ar
     4    3    5 ar
     5    4    6 ar
     6    5    6 ar
     7    6    7 1
     8    7    8 2
     9    8    9 1
    10    8   10 1
    11    9   11 1
    12    9   12 2
    13    1   13 1
    14    2   14 1
    15    3   15 1
    16    4   16 1
    17    5   17 1
    18    7   18 1
    19   10   19 1
    20   10   20 1
    21   10   21 1
@<TRIPOS>Similarity
1.3556
@<TRIPOS>ShapeSim
0.7606
@<TRIPOS>PharmSim
0.5949
# END
# Name:		DB03673
# Created and modified by SHAFTS on Mon Feb  6 15:41:12 2012

# 

@<TRIPOS>MOLECULE
DB03673
   20    20     0
SMALL
USER_CHARGE


@<TRIPOS>ATOM
      1 C1          6.3680   -1.6115    2.1926 C.2       1 <1>         0.0000
      2 C2          5.1340   -1.9244    1.5527 C.2       1 <1>         0.0000
      3 C3          6.7691   -0.3183    1.9387 C.2       1 <1>         0.0000
      4 C4          4.6388   -0.8583    0.8343 C.2       1 <1>         0.0000
      5 C5          2.8152    1.6968   -0.0825 C.2       1 <1>         0.0000
      6 C6          3.3732   -0.7817    0.0262 C.3       1 <1>         0.0000
      7 C7          2.4272    0.3294    0.4992 C.3       1 <1>         0.0000
      8 N1          1.0362   -0.0674    0.1134 N.4       1 <1>         0.0000
      9 O1          2.8677    1.7387   -1.3445 O.co2     1 <1>        -0.5000
     10 O2          3.0414    2.6073    0.7633 O.co2     1 <1>        -0.5000
     11 S1          5.6601    0.5126    0.9328 S.3       1 <1>         0.0000
     12 H1          6.9329   -2.2989    2.8084 H         1 <1>         0.0000
     13 H2          4.6378   -2.8843    1.6203 H         1 <1>         0.0000
     14 H3          7.6605    0.1781    2.2956 H         1 <1>         0.0000
     15 H4          2.8645   -1.7539    0.0905 H         1 <1>         0.0000
     16 H5          3.6180   -0.6501   -1.0366 H         1 <1>         0.0000
     17 H6          2.4130    0.3824    1.5943 H         1 <1>         0.0000
     18 H7          0.9638   -1.0836    0.0482 H         1 <1>         0.0000
     19 H8          0.7922    0.3366   -0.7920 H         1 <1>         0.0000
     20 H9          0.3679    0.2641    0.8104 H         1 <1>         0.0000
@<TRIPOS>BOND
     1    1    2 1
     2    1    3 2
     3    2    4 2
     4    3   11 1
     5    4    6 1
     6    4   11 1
     7    5    7 1
     8    5    9 1
     9    5   10 2
    10    6    7 1
    11    7    8 1
    12    1   12 1
    13    2   13 1
    14    3   14 1
    15    6   15 1
    16    6   16 1
    17    7   17 1
    18    8   18 1
    19    8   19 1
    20    8   20 1
@<TRIPOS>Similarity
1.3546
@<TRIPOS>ShapeSim
0.7979
@<TRIPOS>PharmSim
0.5567
# END
# Name:		DB00821
# Created and modified by SHAFTS on Mon Feb  6 15:41:12 2012

# 

@<TRIPOS>MOLECULE
DB00821
   30    32     0
SMALL
USER_CHARGE


@<TRIPOS>ATOM
      1 C1          2.9359   -1.1237    1.4701 C.ar      1 <1>         0.0000
      2 C2          2.2059    0.0654    1.3624 C.ar      1 <1>         0.0000
      3 C3          7.8295   -2.0660    1.4430 C.ar      1 <1>         0.0000
      4 C4          7.8095   -3.4551    1.5929 C.ar      1 <1>         0.0000
      5 C5          5.3833   -3.4673    1.6570 C.ar      1 <1>         0.0000
      6 C6          4.2503    1.3613    1.1696 C.ar      1 <1>         0.0000
      7 C7          4.3452   -1.0763    1.4279 C.ar      1 <1>         0.0000
      8 C8          5.3773   -2.0646    1.5068 C.ar      1 <1>         0.0000
      9 C9          2.8556    1.2885    1.2144 C.ar      1 <1>         0.0000
     10 C10         6.5993   -1.3996    1.4036 C.ar      1 <1>         0.0000
     11 C11         4.9666    0.1638    1.2788 C.ar      1 <1>         0.0000
     12 C12         6.6057   -4.1477    1.6984 C.ar      1 <1>         0.0000
     13 C13         2.2677    3.1636   -0.2996 C.2       1 <1>         0.0000
     14 C14         2.3298    3.5281    2.2448 C.3       1 <1>         0.0000
     15 C15         2.0522    2.5420    1.1012 C.3       1 <1>         0.0000
     16 N1          6.3233   -0.0596    1.2671 N.pl3     1 <1>         0.0000
     17 O1          2.5401    2.3247   -1.2077 O.co2     1 <1>        -0.5000
     18 O2          2.1481    4.4178   -0.3859 O.co2     1 <1>        -0.5000
     19 Cl1         6.6175   -5.8605    1.8825 Cl        1 <1>         0.0000
     20 H1          2.4149   -2.0700    1.5861 H         1 <1>         0.0000
     21 H2          1.1198    0.0224    1.3958 H         1 <1>         0.0000
     22 H3          8.7673   -1.5267    1.3609 H         1 <1>         0.0000
     23 H4          8.7567   -3.9893    1.6257 H         1 <1>         0.0000
     24 H5          4.4443   -4.0085    1.7406 H         1 <1>         0.0000
     25 H6          4.7640    2.3106    1.0544 H         1 <1>         0.0000
     26 H7          3.3891    3.8083    2.2607 H         1 <1>         0.0000
     27 H8          1.7409    4.4450    2.1321 H         1 <1>         0.0000
     28 H9          2.0858    3.1009    3.2237 H         1 <1>         0.0000
     29 H10         0.9710    2.3114    1.1543 H         1 <1>         0.0000
     30 H11         7.0231    0.6633    1.1725 H         1 <1>         0.0000
@<TRIPOS>BOND
     1    1    2 ar
     2    1    7 ar
     3    2    9 ar
     4    3    4 ar
     5    3   10 ar
     6    4   12 ar
     7    5    8 ar
     8    5   12 ar
     9    6    9 ar
    10    6   11 ar
    11    7    8 1
    12    7   11 ar
    13    8   10 ar
    14    9   15 1
    15   10   16 1
    16   11   16 1
    17   12   19 1
    18   13   15 1
    19   13   17 1
    20   13   18 2
    21   14   15 1
    22    1   20 1
    23    2   21 1
    24    3   22 1
    25    4   23 1
    26    5   24 1
    27    6   25 1
    28   14   26 1
    29   14   27 1
    30   14   28 1
    31   15   29 1
    32   16   30 1
@<TRIPOS>Similarity
1.3499
@<TRIPOS>ShapeSim
0.8244
@<TRIPOS>PharmSim
0.5255
# END
# Name:		DB08765
# Created and modified by SHAFTS on Mon Feb  6 15:41:12 2012

# 

@<TRIPOS>MOLECULE
DB08765
   20    21     0
SMALL
USER_CHARGE


@<TRIPOS>ATOM
      1 C1          5.1188   -3.3274    1.0485 C.ar      1 <1>        -0.0326
      2 C2          6.3356   -3.8543    1.3465 C.ar      1 <1>        -0.0299
      3 C3          7.2989   -1.6669    1.5283 C.ar      1 <1>        -0.0158
      4 C4          4.9324   -1.9273    0.9700 C.ar      1 <1>         0.0800
      5 C5          7.4406   -3.0444    1.5958 C.ar      1 <1>         0.0726
      6 C6          6.0723   -1.1298    1.2224 C.ar      1 <1>         0.0434
      7 C7          3.7474    0.0530    0.6401 C.2       1 <1>         0.1821
      8 N1          3.7993   -1.2504    0.6837 N.2       1 <1>        -0.2246
      9 N2          1.0680    0.1096    0.0004 N.pl3     1 <1>        -0.3018
     10 O1          2.0791    1.7742    1.4995 O.2       1 <1>        -0.4746
     11 O2          2.6641    1.7151   -0.9561 O.2       1 <1>        -0.4746
     12 O3          8.6454   -3.5981    1.8964 O.3       1 <1>        -0.3608
     13 S1          5.4295    0.5151    1.0298 S.3       1 <1>        -0.0511
     14 S2          2.3695    1.0927    0.2868 S.o2      1 <1>        -0.1468
     15 H1          4.2833   -3.9869    0.8653 H         1 <1>         0.0647
     16 H2          6.4464   -4.9274    1.3991 H         1 <1>         0.0651
     17 H3          8.1451   -1.0221    1.7147 H         1 <1>         0.0663
     18 H4          0.1725    0.4166    0.2116 H         1 <1>         0.1602
     19 H5          1.2013   -0.7733   -0.3786 H         1 <1>         0.1602
     20 H6          9.1093   -3.7300    1.0583 H         1 <1>         0.2182
@<TRIPOS>BOND
     1    1    2 ar
     2    1    4 ar
     3    2    5 ar
     4    3    5 ar
     5    3    6 ar
     6    4    6 ar
     7    4    8 1
     8    5   12 1
     9    6   13 1
    10    7    8 2
    11    7   13 1
    12    7   14 1
    13    9   14 1
    14   10   14 2
    15   11   14 2
    16    1   15 1
    17    2   16 1
    18    3   17 1
    19    9   18 1
    20    9   19 1
    21   12   20 1
@<TRIPOS>Similarity
1.3468
@<TRIPOS>ShapeSim
0.9067
@<TRIPOS>PharmSim
0.4401
# END
# Name:		DB03455
# Created and modified by SHAFTS on Mon Feb  6 15:41:12 2012

# 

@<TRIPOS>MOLECULE
DB03455
   31    32     0
SMALL
USER_CHARGE


@<TRIPOS>ATOM
      1 C1          5.7323   -3.9134    1.1875 C.ar      1 <1>         0.0000
      2 C2          7.0692   -3.6596    1.4877 C.ar      1 <1>         0.0000
      3 C3          4.8256   -2.8617    1.0114 C.ar      1 <1>         0.0000
      4 C4          7.5421   -2.3510    1.6215 C.ar      1 <1>         0.0000
      5 C5          5.6188    0.6972    1.2671 C.2       1 <1>         0.0000
      6 C6          5.2793   -1.5341    1.1414 C.ar      1 <1>         0.0000
      7 C7          4.6573   -0.2588    1.0333 C.2       1 <1>         0.0000
      8 C8          6.6243   -1.3099    1.4429 C.ar      1 <1>         0.0000
      9 C9          3.0789    1.3778    0.0395 C.2       1 <1>         0.0000
     10 C10         0.4719   -1.8286   -0.5419 C.3       1 <1>         0.0000
     11 C11        -1.0148   -1.5137   -0.5954 C.3       1 <1>         0.0000
     12 C12         3.2364    0.0039    0.7273 C.3       1 <1>         0.0000
     13 N1          6.8019    0.0536    1.5129 N.pl3     1 <1>         0.0000
     14 N2          2.6043   -1.0547   -0.0518 N.3       1 <1>         0.0000
     15 O1          3.7329    1.5022   -1.0366 O.co2     1 <1>        -0.5000
     16 O2          2.3396    2.2186    0.6249 O.co2     1 <1>        -0.5000
     17 O3          1.1942   -0.6946   -0.0817 O.3       1 <1>         0.0000
     18 S1         -1.3591   -0.1224   -1.7153 S.3       1 <1>         0.0000
     19 H1          5.3883   -4.9394    1.0880 H         1 <1>         0.0000
     20 H2          7.7562   -4.4915    1.6204 H         1 <1>         0.0000
     21 H3          3.7869   -3.0761    0.7767 H         1 <1>         0.0000
     22 H4          8.5827   -2.1545    1.8564 H         1 <1>         0.0000
     23 H5          5.5687    1.7773    1.2793 H         1 <1>         0.0000
     24 H6          0.8631   -2.1343   -1.5181 H         1 <1>         0.0000
     25 H7          0.6464   -2.6440    0.1679 H         1 <1>         0.0000
     26 H8         -1.3865   -1.2424    0.3974 H         1 <1>         0.0000
     27 H9         -1.5724   -2.3843   -0.9532 H         1 <1>         0.0000
     28 H10         2.6247    0.0522    1.6520 H         1 <1>         0.0000
     29 H11         7.6792    0.5122    1.7166 H         1 <1>         0.0000
     30 H12         2.8534   -0.9488   -1.0332 H         1 <1>         0.0000
     31 H13        -2.6856   -0.1200   -1.5291 H         1 <1>         0.0000
@<TRIPOS>BOND
     1    1    2 ar
     2    1    3 ar
     3    2    4 ar
     4    3    6 ar
     5    4    8 ar
     6    5    7 2
     7    5   13 1
     8    6    7 1
     9    6    8 ar
    10    7   12 1
    11    8   13 1
    12    9   12 1
    13    9   15 1
    14    9   16 2
    15   10   11 1
    16   10   17 1
    17   11   18 1
    18   12   14 1
    19   14   17 1
    20    1   19 1
    21    2   20 1
    22    3   21 1
    23    4   22 1
    24    5   23 1
    25   10   24 1
    26   10   25 1
    27   11   26 1
    28   11   27 1
    29   12   28 1
    30   13   29 1
    31   14   30 1
    32   18   31 1
@<TRIPOS>Similarity
1.3462
@<TRIPOS>ShapeSim
0.8661
@<TRIPOS>PharmSim
0.4801
# END
# Name:		DB01980
# Created and modified by SHAFTS on Mon Feb  6 15:41:12 2012

# 

@<TRIPOS>MOLECULE
DB01980
   26    26     0
SMALL
USER_CHARGE


@<TRIPOS>ATOM
      1 C1          4.2281   -1.7925    1.8794 C.ar      1 <1>        -0.0580
      2 C2          5.2936    0.1661    0.9489 C.ar      1 <1>        -0.0580
      3 C3          5.4740   -2.4039    2.0194 C.ar      1 <1>        -0.0486
      4 C4          6.5395   -0.4452    1.0890 C.ar      1 <1>        -0.0486
      5 C5          4.1378   -0.5076    1.3441 C.ar      1 <1>        -0.0490
      6 C6          6.6297   -1.7302    1.6242 C.ar      1 <1>         0.0130
      7 C7          2.6609    0.8099   -1.2291 C.2       1 <1>         0.2203
      8 C8          2.7898    0.1532    1.1902 C.3       1 <1>        -0.0322
      9 C9          2.1195   -0.1256   -0.1612 C.3       1 <1>         0.0014
     10 N1          3.1800    0.1282   -2.3033 N.am      1 <1>        -0.1996
     11 N2          0.6441    0.0577   -0.0276 N.4       1 <1>         0.3874
     12 O1          2.6161    2.0339   -1.1270 O.2       1 <1>        -0.2773
     13 O2          3.6882    0.9181   -3.3430 O.3       1 <1>        -0.2968
     14 I1          8.4849   -2.6425    1.8306 I         1 <1>        -0.0443
     15 H1          3.3327   -2.3247    2.1897 H         1 <1>         0.0626
     16 H2          5.2329    1.1668    0.5297 H         1 <1>         0.0626
     17 H3          5.5209   -3.4067    2.4367 H         1 <1>         0.0634
     18 H4          7.4273    0.0972    0.7737 H         1 <1>         0.0634
     19 H5          2.1494   -0.1991    2.0103 H         1 <1>         0.0304
     20 H6          2.8815    1.2361    1.3502 H         1 <1>         0.0304
     21 H7          2.2623   -1.1633   -0.4837 H         1 <1>         0.0187
     22 H8          3.1944   -0.8847   -2.3411 H         1 <1>         0.1835
     23 H9          0.4200    0.5257    0.8532 H         1 <1>        -0.0891
     24 H10         0.1690   -0.8477   -0.0429 H         1 <1>        -0.0891
     25 H11         0.2831    0.6258   -0.7971 H         1 <1>        -0.0891
     26 H12         3.5172    1.8052   -2.9838 H         1 <1>         0.2427
@<TRIPOS>BOND
     1    1    3 ar
     2    1    5 ar
     3    2    4 ar
     4    2    5 ar
     5    3    6 ar
     6    4    6 ar
     7    5    8 1
     8    6   14 1
     9    7    9 1
    10    7   10 am
    11    7   12 2
    12    8    9 1
    13    9   11 1
    14   10   13 1
    15    1   15 1
    16    2   16 1
    17    3   17 1
    18    4   18 1
    19    8   19 1
    20    8   20 1
    21    9   21 1
    22   10   22 1
    23   11   23 1
    24   11   24 1
    25   11   25 1
    26   13   26 1
@<TRIPOS>Similarity
1.3453
@<TRIPOS>ShapeSim
0.8147
@<TRIPOS>PharmSim
0.5306
# END
# Name:		DB02428
# Created and modified by SHAFTS on Mon Feb  6 15:41:12 2012

# 

@<TRIPOS>MOLECULE
DB02428
   19    20     0
SMALL
USER_CHARGE


@<TRIPOS>ATOM
      1 C1          7.3848   -3.8595    1.7725 C.ar      1 <1>         0.0000
      2 C2          6.2348   -4.3210    1.1329 C.ar      1 <1>         0.0000
      3 C3          7.5450   -2.5377    2.0562 C.ar      1 <1>         0.0000
      4 C4          6.6683   -0.2508    1.9804 C.ar      1 <1>         0.0000
      5 C5          5.2396   -3.4664    0.7746 C.ar      1 <1>         0.0000
      6 C6          5.6523    0.5820    1.6088 C.ar      1 <1>         0.0000
      7 C7          6.5388   -1.6244    1.7027 C.ar      1 <1>         0.0000
      8 C8          5.3666   -2.0910    1.0513 C.ar      1 <1>         0.0000
      9 C9          4.5192    0.0574    0.9683 C.ar      1 <1>         0.0000
     10 C10         3.4245    0.9720    0.5707 C.2       1 <1>         0.0000
     11 N1          4.4071   -1.2320    0.7118 N.ar      1 <1>         0.0000
     12 O1          3.5139    2.1689    0.8015 O.co2     1 <1>        -0.5000
     13 O2          2.4315    0.5299    0.0116 O.co2     1 <1>        -0.5000
     14 H1          8.1596   -4.5605    2.0459 H         1 <1>         0.0000
     15 H2          6.1326   -5.3747    0.9188 H         1 <1>         0.0000
     16 H3          8.4408   -2.1936    2.5517 H         1 <1>         0.0000
     17 H4          7.5483    0.1343    2.4740 H         1 <1>         0.0000
     18 H5          4.3554   -3.8407    0.2802 H         1 <1>         0.0000
     19 H6          5.7206    1.6415    1.8070 H         1 <1>         0.0000
@<TRIPOS>BOND
     1    1    2 ar
     2    1    3 ar
     3    2    5 ar
     4    3    7 ar
     5    4    6 ar
     6    4    7 ar
     7    5    8 ar
     8    6    9 ar
     9    7    8 ar
    10    8   11 ar
    11    9   10 1
    12    9   11 ar
    13   10   12 1
    14   10   13 2
    15    1   14 1
    16    2   15 1
    17    3   16 1
    18    4   17 1
    19    5   18 1
    20    6   19 1
@<TRIPOS>Similarity
1.3408
@<TRIPOS>ShapeSim
0.8866
@<TRIPOS>PharmSim
0.4543
# END
# Name:		DB07506
# Created and modified by SHAFTS on Mon Feb  6 15:41:12 2012

# 

@<TRIPOS>MOLECULE
DB07506
   25    25     0
SMALL
USER_CHARGE


@<TRIPOS>ATOM
      1 C1          7.3668   -3.2410    1.0866 C.ar      1 <1>         0.0000
      2 C2          6.1916   -3.6262    0.4417 C.ar      1 <1>         0.0000
      3 C3          7.3708   -2.1219    1.9192 C.ar      1 <1>         0.0000
      4 C4          5.0203   -2.8923    0.6292 C.ar      1 <1>         0.0000
      5 C5          6.1996   -1.3880    2.1068 C.ar      1 <1>         0.0000
      6 C6          5.0243   -1.7731    1.4618 C.ar      1 <1>         0.0000
      7 C7          1.8690    1.8098   -0.3956 C.2       1 <1>         0.0000
      8 C8          4.4572    1.3745    1.0358 C.2       1 <1>         0.0000
      9 C9          3.7563   -0.9776    1.6651 C.3       1 <1>         0.0000
     10 C10         2.1459    0.6457    0.5645 C.3       1 <1>         0.0000
     11 C11         3.5964    0.1559    0.6389 C.3       1 <1>         0.0000
     12 O1          0.9533    2.6108   -0.0617 O.co2     1 <1>        -0.5000
     13 O2          4.2072    1.8901    2.1617 O.co2     1 <1>        -0.5000
     14 O3          2.6164    1.8277   -1.4162 O.co2     1 <1>        -0.5000
     15 O4          5.3190    1.7103    0.1730 O.co2     1 <1>        -0.5000
     16 H1          8.2784   -3.8134    0.9416 H         1 <1>         0.0000
     17 H2          6.1880   -4.4983   -0.2059 H         1 <1>         0.0000
     18 H3          8.2854   -1.8223    2.4224 H         1 <1>         0.0000
     19 H4          4.1094   -3.1997    0.1224 H         1 <1>         0.0000
     20 H5          6.2121   -0.5174    2.7572 H         1 <1>         0.0000
     21 H6          2.8917   -1.6537    1.6404 H         1 <1>         0.0000
     22 H7          3.7755   -0.5700    2.6840 H         1 <1>         0.0000
     23 H8          1.4947   -0.1773    0.2400 H         1 <1>         0.0000
     24 H9          1.7990    0.9407    1.5640 H         1 <1>         0.0000
     25 H10         3.9183   -0.1886   -0.3526 H         1 <1>         0.0000
@<TRIPOS>BOND
     1    1    2 ar
     2    1    3 ar
     3    2    4 ar
     4    3    5 ar
     5    4    6 ar
     6    5    6 ar
     7    6    9 1
     8    7   10 1
     9    7   12 1
    10    7   14 2
    11    8   11 1
    12    8   13 1
    13    8   15 2
    14    9   11 1
    15   10   11 1
    16    1   16 1
    17    2   17 1
    18    3   18 1
    19    4   19 1
    20    5   20 1
    21    9   21 1
    22    9   22 1
    23   10   23 1
    24   10   24 1
    25   11   25 1
@<TRIPOS>Similarity
1.3394
@<TRIPOS>ShapeSim
0.8194
@<TRIPOS>PharmSim
0.5200
# END
# Name:		DB08165
# Created and modified by SHAFTS on Mon Feb  6 15:41:12 2012

# 

@<TRIPOS>MOLECULE
DB08165
   24    25     0
SMALL
USER_CHARGE


@<TRIPOS>ATOM
      1 C1          5.3275    0.0920    1.9131 C.ar      1 <1>        -0.0569
      2 C2          4.3232    0.5744    1.0963 C.ar      1 <1>        -0.0393
      3 C3          4.0772   -1.5972    0.1226 C.ar      1 <1>        -0.0361
      4 C4          5.7100   -1.2364    1.8366 C.ar      1 <1>        -0.0446
      5 C5          5.0837   -2.0824    0.9402 C.ar      1 <1>        -0.0429
      6 C6          3.6973   -0.2712    0.2000 C.ar      1 <1>         0.0543
      7 C7          6.7656   -1.9992    2.6080 C.3       1 <1>        -0.0273
      8 C8          5.6764   -3.4711    1.0477 C.3       1 <1>        -0.0272
      9 C9          7.0181   -3.2816    1.7868 C.3       1 <1>        -0.0451
     10 N1          0.9835    0.1419   -0.0375 N.pl3     1 <1>        -0.3036
     11 O1          2.6220    1.7451   -0.9237 O.2       1 <1>        -0.4766
     12 O2          2.3630   -0.5468   -1.9513 O.2       1 <1>        -0.4766
     13 S1          2.4163    0.3415   -0.8434 S.o2      1 <1>        -0.1706
     14 H1          5.8161    0.7534    2.6131 H         1 <1>         0.0626
     15 H2          4.0277    1.6114    1.1578 H         1 <1>         0.0642
     16 H3          3.5845   -2.2584   -0.5747 H         1 <1>         0.0645
     17 H4          7.6801   -1.4104    2.6804 H         1 <1>         0.0316
     18 H5          6.3984   -2.2530    3.6024 H         1 <1>         0.0316
     19 H6          5.0162   -4.1205    1.6227 H         1 <1>         0.0316
     20 H7          5.8469   -3.8874    0.0550 H         1 <1>         0.0316
     21 H8          7.2217   -4.1278    2.4430 H         1 <1>         0.0273
     22 H9          7.8332   -3.1342    1.0784 H         1 <1>         0.0273
     23 H10         0.9761   -0.2542    0.8480 H         1 <1>         0.1601
     24 H11         0.1516    0.4213   -0.4508 H         1 <1>         0.1601
@<TRIPOS>BOND
     1    1    2 ar
     2    1    4 ar
     3    2    6 ar
     4    3    5 ar
     5    3    6 ar
     6    4    5 ar
     7    4    7 1
     8    5    8 1
     9    6   13 1
    10    7    9 1
    11    8    9 1
    12   10   13 1
    13   11   13 2
    14   12   13 2
    15    1   14 1
    16    2   15 1
    17    3   16 1
    18    7   17 1
    19    7   18 1
    20    8   19 1
    21    8   20 1
    22    9   21 1
    23    9   22 1
    24   10   23 1
    25   10   24 1
@<TRIPOS>Similarity
1.3296
@<TRIPOS>ShapeSim
0.8110
@<TRIPOS>PharmSim
0.5186
# END
# Name:		DB08113
# Created and modified by SHAFTS on Mon Feb  6 15:41:12 2012

# 

@<TRIPOS>MOLECULE
DB08113
   24    26     0
SMALL
USER_CHARGE


@<TRIPOS>ATOM
      1 C1          6.1305   -4.0277    1.3960 C.ar      1 <1>        -0.0614
      2 C2          7.4405   -3.5448    1.3964 C.ar      1 <1>        -0.0603
      3 C3          5.0391   -3.1500    1.3959 C.ar      1 <1>        -0.0508
      4 C4          7.7060   -2.1714    1.3968 C.ar      1 <1>        -0.0386
      5 C5          2.3398   -1.0541    2.4377 C.ar      1 <1>        -0.0343
      6 C6          2.4160    0.1463    0.3550 C.ar      1 <1>        -0.0343
      7 C7          0.9598   -0.9394    2.3912 C.ar      1 <1>         0.0274
      8 C8          1.0325    0.2071    0.4016 C.ar      1 <1>         0.0274
      9 C9          5.2897   -1.7676    1.3961 C.ar      1 <1>         0.0252
     10 C10         3.0745   -0.4982    1.3962 C.ar      1 <1>         0.0055
     11 C11         6.6039   -1.3136    1.3965 C.ar      1 <1>         0.0569
     12 C12         4.5125   -0.5894    1.3962 C.2       1 <1>         0.0976
     13 N1          0.2848   -0.3209    1.3965 N.ar      1 <1>        -0.2646
     14 N2          5.2541    0.5206    1.3963 N.2       1 <1>        -0.1829
     15 N3          6.5132    0.0522    1.3965 N.pl3     1 <1>        -0.2373
     16 H1          5.9545   -5.1004    1.3963 H         1 <1>         0.0623
     17 H2          8.2686   -4.2491    1.3973 H         1 <1>         0.0623
     18 H3          4.0260   -3.5403    1.3958 H         1 <1>         0.0630
     19 H4          8.7227   -1.7946    1.3979 H         1 <1>         0.0643
     20 H5          2.8178   -1.5648    3.2674 H         1 <1>         0.0646
     21 H6          2.9546    0.5924   -0.4750 H         1 <1>         0.0646
     22 H7          0.3408   -1.3560    3.1790 H         1 <1>         0.0840
     23 H8          0.4714    0.6984   -0.3865 H         1 <1>         0.0840
     24 H9          7.2723    0.7221    1.3974 H         1 <1>         0.1755
@<TRIPOS>BOND
     1    1    2 ar
     2    1    3 ar
     3    2    4 ar
     4    3    9 ar
     5    4   11 ar
     6    5    7 ar
     7    5   10 ar
     8    6    8 ar
     9    6   10 ar
    10    7   13 ar
    11    8   13 ar
    12    9   11 ar
    13    9   12 1
    14   10   12 1
    15   11   15 1
    16   12   14 2
    17   14   15 1
    18    1   16 1
    19    2   17 1
    20    3   18 1
    21    4   19 1
    22    5   20 1
    23    6   21 1
    24    7   22 1
    25    8   23 1
    26   15   24 1
@<TRIPOS>Similarity
1.3252
@<TRIPOS>ShapeSim
0.8608
@<TRIPOS>PharmSim
0.4645
# END
# Name:		DB07634
# Created and modified by SHAFTS on Mon Feb  6 15:41:12 2012

# 

@<TRIPOS>MOLECULE
DB07634
   24    24     0
SMALL
USER_CHARGE


@<TRIPOS>ATOM
      1 C1          6.8031   -3.8714    1.3714 C.ar      1 <1>         0.0000
      2 C2          5.4957   -3.7618    1.8076 C.ar      1 <1>         0.0000
      3 C3          7.4738   -2.7567    0.9032 C.ar      1 <1>         0.0000
      4 C4          4.8562   -2.5377    1.7767 C.ar      1 <1>         0.0000
      5 C5          6.8367   -1.5314    0.8645 C.ar      1 <1>         0.0000
      6 C6          5.5268   -1.4178    1.3070 C.ar      1 <1>         0.0000
      7 C7          3.5413    1.2075   -0.0985 C.2       1 <1>         0.0000
      8 C8          3.4315   -2.4189    2.2533 C.3       1 <1>         0.0000
      9 C9          7.5683   -0.3168    0.3540 C.3       1 <1>         0.0000
     10 C10         4.2590   -0.1138    0.0017 C.3       1 <1>         0.0000
     11 O1          2.9224    1.4899   -1.1103 O.co2     1 <1>        -0.5000
     12 O2          3.5753    1.9920    0.8343 O.co2     1 <1>        -0.5000
     13 O3          4.8997   -0.2125    1.2751 O.3       1 <1>         0.0000
     14 H1          7.3014   -4.8292    1.3966 H         1 <1>         0.0000
     15 H2          4.9740   -4.6340    2.1733 H         1 <1>         0.0000
     16 H3          8.4951   -2.8446    0.5633 H         1 <1>         0.0000
     17 H4          2.7533   -2.5888    1.4171 H         1 <1>         0.0000
     18 H5          3.2448   -3.1614    3.0292 H         1 <1>         0.0000
     19 H6          3.2660   -1.4206    2.6584 H         1 <1>         0.0000
     20 H7          7.4150   -0.2255   -0.7212 H         1 <1>         0.0000
     21 H8          7.1858    0.5739    0.8525 H         1 <1>         0.0000
     22 H9          8.6334   -0.4203    0.5617 H         1 <1>         0.0000
     23 H10         3.5410   -0.9266   -0.1078 H         1 <1>         0.0000
     24 H11         5.0074   -0.1815   -0.7878 H         1 <1>         0.0000
@<TRIPOS>BOND
     1    1    2 ar
     2    1    3 ar
     3    2    4 ar
     4    3    5 ar
     5    4    6 ar
     6    4    8 1
     7    5    6 ar
     8    5    9 1
     9    6   13 1
    10    7   10 1
    11    7   11 1
    12    7   12 2
    13   10   13 1
    14    1   14 1
    15    2   15 1
    16    3   16 1
    17    8   17 1
    18    8   18 1
    19    8   19 1
    20    9   20 1
    21    9   21 1
    22    9   22 1
    23   10   23 1
    24   10   24 1
@<TRIPOS>Similarity
1.3176
@<TRIPOS>ShapeSim
0.8221
@<TRIPOS>PharmSim
0.4955
# END
# Name:		DB01699
# Created and modified by SHAFTS on Mon Feb  6 15:41:12 2012

# 

@<TRIPOS>MOLECULE
DB01699
   20    19     0
SMALL
USER_CHARGE


@<TRIPOS>ATOM
      1 C1          6.1021   -2.1978    1.2985 C.2       1 <1>         0.0000
      2 C2          4.8669   -1.8543    1.5673 C.2       1 <1>         0.0000
      3 C3          3.3794    1.2318   -0.0951 C.2       1 <1>         0.0000
      4 C4          6.5321   -3.6353    1.4400 C.3       1 <1>         0.0000
      5 C5          4.4369   -0.4168    1.4258 C.3       1 <1>         0.0000
      6 C6          3.8095   -0.2056    0.0464 C.3       1 <1>         0.0000
      7 N1          3.9476   -2.8209    1.9854 N.4       1 <1>         0.0000
      8 O1          2.8528    1.6118   -1.1269 O.co2     1 <1>        -0.5000
      9 O2          3.5582    2.0147    0.8223 O.co2     1 <1>        -0.5000
     10 H1          6.8122   -1.4510    0.9754 H         1 <1>         0.0000
     11 H2          7.5854   -3.7272    1.1748 H         1 <1>         0.0000
     12 H3          6.3875   -3.9580    2.4710 H         1 <1>         0.0000
     13 H4          5.9345   -4.2603    0.7764 H         1 <1>         0.0000
     14 H5          3.7053   -0.1787    2.1980 H         1 <1>         0.0000
     15 H6          5.3043    0.2343    1.5339 H         1 <1>         0.0000
     16 H7          4.5410   -0.4436   -0.7258 H         1 <1>         0.0000
     17 H8          2.9421   -0.8567   -0.0618 H         1 <1>         0.0000
     18 H9          4.4010   -3.7214    2.0249 H         1 <1>         0.0000
     19 H10         3.5988   -2.5796    2.9009 H         1 <1>         0.0000
     20 H11         3.1796   -2.8594    1.3323 H         1 <1>         0.0000
@<TRIPOS>BOND
     1    1    2 2
     2    1    4 1
     3    2    5 1
     4    2    7 1
     5    3    6 1
     6    3    8 1
     7    3    9 2
     8    5    6 1
     9    1   10 1
    10    4   11 1
    11    4   12 1
    12    4   13 1
    13    5   14 1
    14    5   15 1
    15    6   16 1
    16    6   17 1
    17    7   18 1
    18    7   19 1
    19    7   20 1
@<TRIPOS>Similarity
1.3165
@<TRIPOS>ShapeSim
0.7553
@<TRIPOS>PharmSim
0.5612
# END
# Name:		DB08238
# Created and modified by SHAFTS on Mon Feb  6 15:41:12 2012

# 

@<TRIPOS>MOLECULE
DB08238
   23    24     0
SMALL
USER_CHARGE


@<TRIPOS>ATOM
      1 C1          6.2841   -4.1514    1.2063 C.ar      1 <1>        -0.0598
      2 C2          5.2294   -3.2966    1.1055 C.ar      1 <1>        -0.0542
      3 C3          6.9194   -0.0480    1.7379 C.ar      1 <1>        -0.0507
      4 C4          7.5652   -3.6829    1.4831 C.ar      1 <1>        -0.0407
      5 C5          5.8602    0.8014    1.6298 C.ar      1 <1>        -0.0401
      6 C6          4.3556   -1.0101    1.1826 C.ar      1 <1>        -0.0328
      7 C7          5.4256   -1.9159    1.2814 C.ar      1 <1>        -0.0147
      8 C8          6.7250   -1.4265    1.5630 C.ar      1 <1>         0.0026
      9 C9          7.7999   -2.3365    1.6623 C.ar      1 <1>         0.0313
     10 C10         4.5812    0.3208    1.3582 C.ar      1 <1>         0.0430
     11 N1          9.0858   -1.8779    1.9395 N.pl3     1 <1>        -0.3578
     12 O1          3.1635    1.8510   -0.1643 O.3       1 <1>        -0.4148
     13 O2          3.5562    2.5690    2.1098 O.2       1 <1>        -0.4879
     14 O3          2.0501    0.7317    1.6656 O.2       1 <1>        -0.4879
     15 S1          3.2370    1.4531    1.2329 S.o2      1 <1>        -0.2023
     16 H1          6.1240   -5.2107    1.0696 H         1 <1>         0.0623
     17 H2          4.2424   -3.6790    0.8908 H         1 <1>         0.0629
     18 H3          7.9048    0.3381    1.9533 H         1 <1>         0.0630
     19 H4          8.3847   -4.3824    1.5586 H         1 <1>         0.0642
     20 H5          6.0127    1.8620    1.7644 H         1 <1>         0.0642
     21 H6          3.3594   -1.3683    0.9689 H         1 <1>         0.0648
     22 H7          9.8211   -2.5070    2.0071 H         1 <1>         0.1427
     23 H8          9.2460   -0.9295    2.0649 H         1 <1>         0.1427
@<TRIPOS>BOND
     1    1    2 ar
     2    1    4 ar
     3    2    7 ar
     4    3    5 ar
     5    3    8 ar
     6    4    9 ar
     7    5   10 ar
     8    6    7 ar
     9    6   10 ar
    10    7    8 ar
    11    8    9 ar
    12    9   11 1
    13   10   15 1
    14   12   15 1
    15   13   15 2
    16   14   15 2
    17    1   16 1
    18    2   17 1
    19    3   18 1
    20    4   19 1
    21    5   20 1
    22    6   21 1
    23   11   22 1
    24   11   23 1
@<TRIPOS>Similarity
1.3147
@<TRIPOS>ShapeSim
0.8613
@<TRIPOS>PharmSim
0.4535
# END
# Name:		DB07479
# Created and modified by SHAFTS on Mon Feb  6 15:41:12 2012

# 

@<TRIPOS>MOLECULE
DB07479
   37    40     0
SMALL
USER_CHARGE


@<TRIPOS>ATOM
      1 C1          5.0992   -5.7228   -0.1667 C.ar      1 <1>        -0.0616
      2 C2          4.0639   -4.8701   -0.4916 C.ar      1 <1>        -0.0616
      3 C3          6.1922   -5.2166    0.5193 C.ar      1 <1>        -0.0543
      4 C4          4.1190   -3.5220   -0.1113 C.ar      1 <1>        -0.0537
      5 C5          7.4044   -3.4350    1.5452 C.ar      1 <1>        -0.0537
      6 C6          7.5508   -2.1111    1.9167 C.ar      1 <1>        -0.0537
      7 C7          6.8096    0.1284    2.1055 C.ar      1 <1>        -0.0540
      8 C8          5.8830    1.1416    1.9423 C.ar      1 <1>        -0.0554
      9 C9          6.2539   -3.8629    0.8974 C.ar      1 <1>        -0.0177
     10 C10         6.5399   -1.1778    1.6893 C.ar      1 <1>        -0.0174
     11 C11         5.1947   -2.9477    0.6226 C.ar      1 <1>        -0.0102
     12 C12         5.3042   -1.5414    1.0749 C.ar      1 <1>        -0.0068
     13 C13         4.6388    0.8732    1.3766 C.ar      1 <1>        -0.0129
     14 C14         4.3194   -0.4619    0.9907 C.ar      1 <1>        -0.0310
     15 C15         2.9054   -0.7264    0.4978 C.3       1 <1>         0.0020
     16 C16         3.6497    2.0235    1.2848 C.3       1 <1>         0.1077
     17 C17         1.8811    0.3764    0.7739 C.3       1 <1>         0.0869
     18 C18         2.4453    1.7345    0.3935 C.3       1 <1>         0.1102
     19 O1          4.2931    3.2103    0.8219 O.3       1 <1>        -0.3855
     20 O2          0.7066    0.1054    0.0152 O.3       1 <1>        -0.3899
     21 O3          2.8508    1.7403   -0.9767 O.3       1 <1>        -0.3873
     22 H1          5.0662   -6.7681   -0.4563 H         1 <1>         0.0623
     23 H2          3.2075   -5.2395   -1.0483 H         1 <1>         0.0623
     24 H3          7.0112   -5.8958    0.7519 H         1 <1>         0.0629
     25 H4          3.2766   -2.9344   -0.4476 H         1 <1>         0.0629
     26 H5          8.2212   -4.1231    1.7552 H         1 <1>         0.0629
     27 H6          8.4824   -1.8203    2.4006 H         1 <1>         0.0629
     28 H7          7.7625    0.3821    2.5688 H         1 <1>         0.0629
     29 H8          6.1375    2.1421    2.2833 H         1 <1>         0.0627
     30 H9          2.9438   -0.9003   -0.5844 H         1 <1>         0.0344
     31 H10         2.5137   -1.6259    0.9861 H         1 <1>         0.0344
     32 H11         3.2967    2.2178    2.3063 H         1 <1>         0.0681
     33 H12         1.6002    0.3679    1.8343 H         1 <1>         0.0632
     34 H13         1.6939    2.5261    0.4947 H         1 <1>         0.0659
     35 H14         3.6100    3.8970    0.7876 H         1 <1>         0.2110
     36 H15         0.3804   -0.7597    0.3088 H         1 <1>         0.2106
     37 H16         2.0553    1.5533   -1.4970 H         1 <1>         0.2107
@<TRIPOS>BOND
     1    1    2 ar
     2    1    3 ar
     3    2    4 ar
     4    3    9 ar
     5    4   11 ar
     6    5    6 ar
     7    5    9 ar
     8    6   10 ar
     9    7    8 ar
    10    7   10 ar
    11    8   13 ar
    12    9   11 ar
    13   10   12 ar
    14   11   12 ar
    15   12   14 ar
    16   13   14 ar
    17   13   16 1
    18   14   15 1
    19   15   17 1
    20   16   18 1
    21   16   19 1
    22   17   18 1
    23   17   20 1
    24   18   21 1
    25    1   22 1
    26    2   23 1
    27    3   24 1
    28    4   25 1
    29    5   26 1
    30    6   27 1
    31    7   28 1
    32    8   29 1
    33   15   30 1
    34   15   31 1
    35   16   32 1
    36   17   33 1
    37   18   34 1
    38   19   35 1
    39   20   36 1
    40   21   37 1
@<TRIPOS>Similarity
1.3111
@<TRIPOS>ShapeSim
0.8161
@<TRIPOS>PharmSim
0.4951
# END
# Name:		DB00830
# Created and modified by SHAFTS on Mon Feb  6 15:41:12 2012

# 

@<TRIPOS>MOLECULE
DB00830
   29    30     0
SMALL
USER_CHARGE


@<TRIPOS>ATOM
      1 C1          7.1741   -1.2352    1.6102 C.ar      1 <1>        -0.0622
      2 C2          6.9459    0.1335    1.7528 C.ar      1 <1>        -0.0619
      3 C3          6.1111   -2.0941    1.3304 C.ar      1 <1>        -0.0619
      4 C4          5.6547    0.6432    1.6157 C.ar      1 <1>        -0.0565
      5 C5          4.8200   -1.5843    1.1934 C.ar      1 <1>        -0.0565
      6 C6          4.5918   -0.2156    1.3361 C.ar      1 <1>        -0.0209
      7 C7          1.1110    1.6434   -0.2700 C.3       1 <1>        -0.0690
      8 C8          2.0473    2.3323    0.7041 C.3       1 <1>         0.0323
      9 C9          3.2111    0.3287    1.1896 C.3       1 <1>         0.0700
     10 C10         2.3497   -0.5008    0.2200 C.3       1 <1>        -0.0527
     11 C11         2.9407   -0.6857   -1.1781 C.3       1 <1>        -0.0751
     12 N1          1.0172    0.1964    0.0976 N.4       1 <1>         0.3859
     13 O1          3.3204    1.6830    0.7258 O.3       1 <1>        -0.3771
     14 H1          8.1797   -1.6318    1.7155 H         1 <1>         0.0622
     15 H2          7.7735    0.8025    1.9695 H         1 <1>         0.0623
     16 H3          6.2887   -3.1595    1.2183 H         1 <1>         0.0623
     17 H4          5.4863    1.7110    1.7287 H         1 <1>         0.0626
     18 H5          3.9980   -2.2611    0.9756 H         1 <1>         0.0626
     19 H6          0.0989    2.0551   -0.2265 H         1 <1>         0.0077
     20 H7          1.4791    1.6916   -1.2986 H         1 <1>         0.0077
     21 H8          2.2080    3.3694    0.3935 H         1 <1>         0.0547
     22 H9          1.6305    2.3535    1.7181 H         1 <1>         0.0547
     23 H10         2.7601    0.3351    2.1899 H         1 <1>         0.0637
     24 H11         2.1334   -1.4870    0.6475 H         1 <1>         0.0117
     25 H12         3.1606    0.2862   -1.6153 H         1 <1>         0.0215
     26 H13         2.2283   -1.2103   -1.8116 H         1 <1>         0.0215
     27 H14         3.8590   -1.2661   -1.1148 H         1 <1>         0.0215
     28 H15         0.5192    0.1147    0.9953 H         1 <1>        -0.0855
     29 H16         0.4259   -0.2954   -0.5867 H         1 <1>        -0.0855
@<TRIPOS>BOND
     1    1    2 ar
     2    1    3 ar
     3    2    4 ar
     4    3    5 ar
     5    4    6 ar
     6    5    6 ar
     7    6    9 1
     8    7    8 1
     9    7   12 1
    10    8   13 1
    11    9   10 1
    12    9   13 1
    13   10   11 1
    14   10   12 1
    15    1   14 1
    16    2   15 1
    17    3   16 1
    18    4   17 1
    19    5   18 1
    20    7   19 1
    21    7   20 1
    22    8   21 1
    23    8   22 1
    24    9   23 1
    25   10   24 1
    26   11   25 1
    27   11   26 1
    28   11   27 1
    29   12   28 1
    30   12   29 1
@<TRIPOS>Similarity
1.3107
@<TRIPOS>ShapeSim
0.8069
@<TRIPOS>PharmSim
0.5037
# END
# Name:		DB03217
# Created and modified by SHAFTS on Mon Feb  6 15:41:12 2012

# 

@<TRIPOS>MOLECULE
DB03217
   25    26     0
SMALL
USER_CHARGE


@<TRIPOS>ATOM
      1 C1          6.9831   -4.0530    1.3254 C.ar      1 <1>        -0.0616
      2 C2          5.7017   -4.1592    0.7930 C.ar      1 <1>        -0.0616
      3 C3          6.2783    0.7026    2.0734 C.ar      1 <1>        -0.0612
      4 C4          7.4514   -2.8193    1.7783 C.ar      1 <1>        -0.0544
      5 C5          4.8835   -3.0322    0.7114 C.ar      1 <1>        -0.0540
      6 C6          7.0964   -0.4245    2.1550 C.ar      1 <1>        -0.0543
      7 C7          4.9968    0.5964    1.5409 C.ar      1 <1>        -0.0555
      8 C8          6.6415   -1.6743    1.7039 C.ar      1 <1>        -0.0180
      9 C9          5.3384   -1.7823    1.1624 C.ar      1 <1>        -0.0122
     10 C10         4.5285   -0.6373    1.0879 C.ar      1 <1>        -0.0083
     11 C11         3.1409   -0.6812    0.5268 C.3       1 <1>         0.0896
     12 O1          3.0739    1.8665   -0.2440 O.3       1 <1>        -0.5994
     13 O2          0.8639    0.5618   -0.0509 O.3       1 <1>        -0.5994
     14 O3          2.1417    1.2531    2.0776 O.2       1 <1>        -0.6624
     15 O4          2.3098   -1.5843    1.2554 O.3       1 <1>        -0.3847
     16 P1          2.1966    0.9371    0.5874 P.3       1 <1>        -0.1196
     17 H1          7.6195   -4.9309    1.3887 H         1 <1>         0.0623
     18 H2          5.3380   -5.1202    0.4407 H         1 <1>         0.0623
     19 H3          6.6423    1.6634    2.4257 H         1 <1>         0.0623
     20 H4          8.4564   -2.7596    2.1909 H         1 <1>         0.0629
     21 H5          3.8890   -3.1557    0.2893 H         1 <1>         0.0629
     22 H6          8.0945   -0.3180    2.5748 H         1 <1>         0.0629
     23 H7          4.3690    1.4818    1.4826 H         1 <1>         0.0627
     24 H8          3.1510   -1.0208   -0.5190 H         1 <1>         0.0694
     25 H9          1.4278   -1.5693    0.8466 H         1 <1>         0.2114
@<TRIPOS>BOND
     1    1    2 ar
     2    1    4 ar
     3    2    5 ar
     4    3    6 ar
     5    3    7 ar
     6    4    8 ar
     7    5    9 ar
     8    6    8 ar
     9    7   10 ar
    10    8    9 ar
    11    9   10 ar
    12   10   11 1
    13   11   15 1
    14   11   16 1
    15   12   16 1
    16   13   16 1
    17   14   16 2
    18    1   17 1
    19    2   18 1
    20    3   19 1
    21    4   20 1
    22    5   21 1
    23    6   22 1
    24    7   23 1
    25   11   24 1
    26   15   25 1
@<TRIPOS>Similarity
1.3072
@<TRIPOS>ShapeSim
0.8964
@<TRIPOS>PharmSim
0.4108
# END
# Name:		DB08451
# Created and modified by SHAFTS on Mon Feb  6 15:41:12 2012

# 

@<TRIPOS>MOLECULE
DB08451
   25    26     0
SMALL
USER_CHARGE


@<TRIPOS>ATOM
      1 C1          5.9269    0.6568    1.9422 C.ar      1 <1>        -0.0596
      2 C2          6.4348   -4.1024    1.1918 C.ar      1 <1>        -0.0432
      3 C3          6.6059   -0.5320    2.1937 C.ar      1 <1>        -0.0527
      4 C4          6.8626   -2.9385    1.8142 C.ar      1 <1>        -0.0512
      5 C5          4.8393    0.6558    1.0776 C.ar      1 <1>        -0.0374
      6 C6          5.3462   -4.0118    0.3483 C.ar      1 <1>         0.0276
      7 C7          6.1973   -1.7278    1.5790 C.ar      1 <1>         0.0021
      8 C8          5.0941   -1.7362    0.6999 C.ar      1 <1>         0.0926
      9 C9          4.4334   -0.5332    0.4666 C.ar      1 <1>         0.0692
     10 C10         0.7996    0.1817   -1.1065 C.3       1 <1>         0.0225
     11 N1          4.6766   -2.8641    0.0944 N.ar      1 <1>        -0.2542
     12 N2          3.3060   -0.4883   -0.4171 N.pl3     1 <1>        -0.2611
     13 O1          1.8801    1.0186    1.1071 O.2       1 <1>        -0.4814
     14 O2          2.7063    1.9736   -1.0726 O.2       1 <1>        -0.4814
     15 S1          2.2324    0.8491   -0.2904 S.o2      1 <1>        -0.1956
     16 H1          6.2453    1.5787    2.4191 H         1 <1>         0.0623
     17 H2          6.9373   -5.0473    1.3614 H         1 <1>         0.0639
     18 H3          7.4560   -0.5203    2.8721 H         1 <1>         0.0630
     19 H4          7.7187   -2.9810    2.4839 H         1 <1>         0.0630
     20 H5          4.3104    1.5856    0.8839 H         1 <1>         0.0643
     21 H6          4.9660   -4.8884   -0.1660 H         1 <1>         0.0840
     22 H7          0.0156    0.9407   -1.1013 H         1 <1>         0.0442
     23 H8          1.0753   -0.0764   -2.1300 H         1 <1>         0.0442
     24 H9          0.4756   -0.7065   -0.5619 H         1 <1>         0.0442
     25 H10         3.5180   -0.7853   -1.3817 H         1 <1>         0.1703
@<TRIPOS>BOND
     1    1    3 ar
     2    1    5 ar
     3    2    4 ar
     4    2    6 ar
     5    3    7 ar
     6    4    7 ar
     7    5    9 ar
     8    6   11 ar
     9    7    8 ar
    10    8    9 ar
    11    8   11 ar
    12    9   12 1
    13   10   15 1
    14   12   15 1
    15   13   15 2
    16   14   15 2
    17    1   16 1
    18    2   17 1
    19    3   18 1
    20    4   19 1
    21    5   20 1
    22    6   21 1
    23   10   22 1
    24   10   23 1
    25   10   24 1
    26   12   25 1
@<TRIPOS>Similarity
1.3020
@<TRIPOS>ShapeSim
0.8258
@<TRIPOS>PharmSim
0.4762
# END
# Name:		DB07684
# Created and modified by SHAFTS on Mon Feb  6 15:41:12 2012

# 

@<TRIPOS>MOLECULE
DB07684
   29    30     0
SMALL
USER_CHARGE


@<TRIPOS>ATOM
      1 C1          6.1026   -4.1754    1.2425 C.ar      1 <1>        -0.0597
      2 C2          5.0581   -3.2529    1.1732 C.ar      1 <1>        -0.0542
      3 C3          6.8873   -0.0529    1.6145 C.ar      1 <1>        -0.0507
      4 C4          7.4089   -3.7356    1.4351 C.ar      1 <1>        -0.0403
      5 C5          5.8428    0.8695    1.5450 C.ar      1 <1>        -0.0401
      6 C6          4.2695   -0.9339    1.2285 C.ar      1 <1>        -0.0328
      7 C7          5.3085   -1.8764    1.2959 C.ar      1 <1>        -0.0147
      8 C8          6.6369   -1.4294    1.4917 C.ar      1 <1>         0.0030
      9 C9          7.6759   -2.3720    1.5590 C.ar      1 <1>         0.0360
     10 C10         4.5364    0.4298    1.3525 C.ar      1 <1>         0.0430
     11 C11         9.8695   -1.6946    0.6160 C.3       1 <1>        -0.0003
     12 C12         9.5559   -1.8454    3.0914 C.3       1 <1>        -0.0003
     13 N1          9.0226   -1.9788    1.7535 N.pl3     1 <1>        -0.3364
     14 O1          3.1453    1.9115   -0.1654 O.3       1 <1>        -0.4148
     15 O2          2.0423    0.8883    1.7852 O.2       1 <1>        -0.4879
     16 O3          3.6824    2.6935    2.1212 O.2       1 <1>        -0.4879
     17 S1          3.2303    1.5856    1.2661 S.o2      1 <1>        -0.2023
     18 H1          5.8953   -5.2372    1.1461 H         1 <1>         0.0623
     19 H2          4.0447   -3.6195    1.0236 H         1 <1>         0.0629
     20 H3          7.8935    0.3312    1.7650 H         1 <1>         0.0630
     21 H4          8.2127   -4.4657    1.4885 H         1 <1>         0.0642
     22 H5          6.0606    1.9297    1.6433 H         1 <1>         0.0642
     23 H6          3.2437   -1.2663    1.0786 H         1 <1>         0.0648
     24 H7         10.8689   -1.4085    0.9540 H         1 <1>         0.0432
     25 H8          9.4490   -0.8747    0.0272 H         1 <1>         0.0432
     26 H9          9.9534   -2.5778   -0.0228 H         1 <1>         0.0432
     27 H10        10.6036   -1.5361    3.0491 H         1 <1>         0.0432
     28 H11         9.4920   -2.7999    3.6207 H         1 <1>         0.0432
     29 H12         8.9900   -1.0957    3.6509 H         1 <1>         0.0432
@<TRIPOS>BOND
     1    1    2 ar
     2    1    4 ar
     3    2    7 ar
     4    3    5 ar
     5    3    8 ar
     6    4    9 ar
     7    5   10 ar
     8    6    7 ar
     9    6   10 ar
    10    7    8 ar
    11    8    9 ar
    12    9   13 1
    13   10   17 1
    14   11   13 1
    15   12   13 1
    16   14   17 1
    17   15   17 2
    18   16   17 2
    19    1   18 1
    20    2   19 1
    21    3   20 1
    22    4   21 1
    23    5   22 1
    24    6   23 1
    25   11   24 1
    26   11   25 1
    27   11   26 1
    28   12   27 1
    29   12   28 1
    30   12   29 1
@<TRIPOS>Similarity
1.3014
@<TRIPOS>ShapeSim
0.8171
@<TRIPOS>PharmSim
0.4843
# END
# Name:		DB04723
# Created and modified by SHAFTS on Mon Feb  6 15:41:12 2012

# 

@<TRIPOS>MOLECULE
DB04723
   29    29     0
SMALL
USER_CHARGE


@<TRIPOS>ATOM
      1 C1          6.8236    0.4250    1.2653 C.ar      1 <1>         0.0000
      2 C2          5.5804    0.7031    0.6976 C.ar      1 <1>         0.0000
      3 C3          7.0429   -0.7976    1.9000 C.ar      1 <1>         0.0000
      4 C4          4.7753   -1.4641    1.3992 C.ar      1 <1>         0.0000
      5 C5          4.5561   -0.2415    0.7644 C.ar      1 <1>         0.0000
      6 C6          6.0187   -1.7422    1.9670 C.ar      1 <1>         0.0000
      7 C7          3.0697    1.6003    0.0895 C.2       1 <1>         0.0000
      8 C8          7.4637   -3.6725    2.7076 C.cat     1 <1>         0.0000
      9 C9          2.0218   -0.6113    0.8617 C.3       1 <1>         0.0000
     10 C10         3.2267    0.0562    0.1573 C.3       1 <1>         0.0000
     11 N1          8.4003   -3.5237    1.6836 N.pl3     1 <1>         0.0000
     12 N2          6.2405   -2.9801    2.6097 N.pl3     1 <1>         0.0000
     13 N3          7.7688   -4.5386    3.7527 N.pl3     1 <1>         0.0000
     14 O1          3.0871    2.2199    1.1900 O.co2     1 <1>        -0.5000
     15 O2          2.9524    2.0617   -1.0836 O.co2     1 <1>        -0.5000
     16 S1          0.4370   -0.1649    0.0810 S.3       1 <1>         0.0000
     17 H1          7.6211    1.1603    1.2138 H         1 <1>         0.0000
     18 H2          5.4185    1.6580    0.2048 H         1 <1>         0.0000
     19 H3          8.0140   -1.0083    2.3403 H         1 <1>         0.0000
     20 H4          3.9784   -2.2022    1.4524 H         1 <1>         0.0000
     21 H5          2.1049   -1.7031    0.8571 H         1 <1>         0.0000
     22 H6          1.9630   -0.2979    1.9100 H         1 <1>         0.0000
     23 H7          3.1949   -0.2745   -0.9011 H         1 <1>         0.0000
     24 H8          8.2129   -2.9288    0.8801 H         1 <1>         0.0000
     25 H9          9.2962   -4.0041    1.7148 H         1 <1>         0.0000
     26 H10         5.4439   -3.4175    3.0911 H         1 <1>         0.0000
     27 H11         8.6333   -5.0754    3.7448 H         1 <1>         0.0000
     28 H12         7.1217   -4.7305    4.5113 H         1 <1>         0.0000
     29 H13        -0.3296   -0.8850    0.9099 H         1 <1>         0.0000
@<TRIPOS>BOND
     1    1    2 ar
     2    1    3 ar
     3    2    5 ar
     4    3    6 ar
     5    4    5 ar
     6    4    6 ar
     7    5   10 1
     8    6   12 1
     9    7   10 1
    10    7   14 1
    11    7   15 2
    12    8   11 1
    13    8   12 1
    14    8   13 2
    15    9   10 1
    16    9   16 1
    17    1   17 1
    18    2   18 1
    19    3   19 1
    20    4   20 1
    21    9   21 1
    22    9   22 1
    23   10   23 1
    24   11   24 1
    25   11   25 1
    26   12   26 1
    27   13   27 1
    28   13   28 1
    29   16   29 1
@<TRIPOS>Similarity
1.2982
@<TRIPOS>ShapeSim
0.8156
@<TRIPOS>PharmSim
0.4826
# END
# Name:		DB08114
# Created and modified by SHAFTS on Mon Feb  6 15:41:12 2012

# 

@<TRIPOS>MOLECULE
DB08114
   23    24     0
SMALL
USER_CHARGE


@<TRIPOS>ATOM
      1 C1          7.3818   -3.4720    1.1047 C.ar      1 <1>        -0.0622
      2 C2          6.0523   -3.8922    1.0635 C.ar      1 <1>        -0.0620
      3 C3          7.6946   -2.1913    1.5604 C.ar      1 <1>        -0.0620
      4 C4          5.0358   -3.0316    1.4776 C.ar      1 <1>        -0.0587
      5 C5          6.6779   -1.3307    1.9746 C.ar      1 <1>        -0.0587
      6 C6          2.5104   -0.6898    0.4300 C.2       1 <1>         0.0399
      7 C7          5.3485   -1.7509    1.9332 C.ar      1 <1>        -0.0430
      8 C8          3.5060   -0.1782    1.2358 C.2       1 <1>         0.0153
      9 C9          2.6406    1.3186   -0.4415 C.2       1 <1>         0.1543
     10 C10         4.2620   -0.8301    2.3760 C.3       1 <1>         0.0054
     11 N1          2.0127    0.1672   -0.5321 N.2       1 <1>        -0.2341
     12 N2          2.3948    2.3900   -1.2415 N.pl3     1 <1>        -0.3375
     13 S1          3.8418    1.4401    0.7782 S.3       1 <1>        -0.0573
     14 H1          8.1733   -4.1427    0.7835 H         1 <1>         0.0622
     15 H2          5.8086   -4.8898    0.7097 H         1 <1>         0.0623
     16 H3          8.7296   -1.8642    1.5937 H         1 <1>         0.0623
     17 H4          4.0028   -3.3675    1.4417 H         1 <1>         0.0625
     18 H5          6.9311   -0.3346    2.3279 H         1 <1>         0.0625
     19 H6          2.1034   -1.6896    0.5031 H         1 <1>         0.0849
     20 H7          3.5428   -1.3633    3.0224 H         1 <1>         0.0372
     21 H8          4.6676   -0.0404    3.0326 H         1 <1>         0.0372
     22 H9          1.7190    2.3434   -2.0117 H         1 <1>         0.1447
     23 H10         2.9416    3.2546   -1.1667 H         1 <1>         0.1447
@<TRIPOS>BOND
     1    1    2 ar
     2    1    3 ar
     3    2    4 ar
     4    3    5 ar
     5    4    7 ar
     6    5    7 ar
     7    6    8 2
     8    6   11 1
     9    7   10 1
    10    8   10 1
    11    8   13 1
    12    9   11 2
    13    9   12 1
    14    9   13 1
    15    1   14 1
    16    2   15 1
    17    3   16 1
    18    4   17 1
    19    5   18 1
    20    6   19 1
    21   10   20 1
    22   10   21 1
    23   12   22 1
    24   12   23 1
@<TRIPOS>Similarity
1.2946
@<TRIPOS>ShapeSim
0.9064
@<TRIPOS>PharmSim
0.3883
# END
# Name:		DB03409
# Created and modified by SHAFTS on Mon Feb  6 15:41:12 2012

# 

@<TRIPOS>MOLECULE
DB03409
   27    28     0
SMALL
USER_CHARGE


@<TRIPOS>ATOM
      1 C1          4.4946    1.2829    0.5420 C.2       1 <1>         0.0000
      2 C2          6.4046   -4.2382    1.3078 C.3       1 <1>         0.0000
      3 C3          7.7019   -3.5685    1.7506 C.3       1 <1>         0.0000
      4 C4          5.1749   -3.4179    1.7302 C.3       1 <1>         0.0000
      5 C5          7.7893   -2.1203    1.2413 C.3       1 <1>         0.0000
      6 C6          4.2273   -1.0282    1.4678 C.3       1 <1>         0.0000
      7 C7          4.9846    0.3186    1.5912 C.3       1 <1>         0.0000
      8 C8          5.3226   -2.0369    1.1184 C.3       1 <1>         0.0000
      9 C9          6.5735   -1.3834    1.7678 C.3       1 <1>         0.0000
     10 N1          6.4299    0.0225    1.3760 N.4       1 <1>         0.0000
     11 O1          3.5875    2.0555    0.8003 O.co2     1 <1>        -0.5000
     12 O2          5.0020    1.2873   -0.5666 O.co2     1 <1>        -0.5000
     13 H1          6.3435   -5.2291    1.7577 H         1 <1>         0.0000
     14 H2          6.4089   -4.3406    0.2226 H         1 <1>         0.0000
     15 H3          7.7485   -3.5667    2.8396 H         1 <1>         0.0000
     16 H4          8.5471   -4.1352    1.3598 H         1 <1>         0.0000
     17 H5          5.1363   -3.3400    2.8168 H         1 <1>         0.0000
     18 H6          4.2668   -3.8929    1.3589 H         1 <1>         0.0000
     19 H7          8.6988   -1.6500    1.6151 H         1 <1>         0.0000
     20 H8          7.7862   -2.1097    0.1514 H         1 <1>         0.0000
     21 H9          3.7552   -1.2894    2.4149 H         1 <1>         0.0000
     22 H10         3.4855   -0.9780    0.6708 H         1 <1>         0.0000
     23 H11         4.8348    0.7412    2.5846 H         1 <1>         0.0000
     24 H12         5.4461   -2.1027    0.0373 H         1 <1>         0.0000
     25 H13         6.5222   -1.4804    2.8523 H         1 <1>         0.0000
     26 H14         6.6743    0.1448    0.4047 H         1 <1>         0.0000
     27 H15         7.0035    0.6119    1.9606 H         1 <1>         0.0000
@<TRIPOS>BOND
     1    1    7 1
     2    1   11 1
     3    1   12 2
     4    2    3 1
     5    2    4 1
     6    3    5 1
     7    4    8 1
     8    5    9 1
     9    6    7 1
    10    6    8 1
    11    7   10 1
    12    8    9 1
    13    9   10 1
    14    2   13 1
    15    2   14 1
    16    3   15 1
    17    3   16 1
    18    4   17 1
    19    4   18 1
    20    5   19 1
    21    5   20 1
    22    6   21 1
    23    6   22 1
    24    7   23 1
    25    8   24 1
    26    9   25 1
    27   10   26 1
    28   10   27 1
@<TRIPOS>Similarity
1.2938
@<TRIPOS>ShapeSim
0.8336
@<TRIPOS>PharmSim
0.4602
# END
# Name:		DB04080
# Created and modified by SHAFTS on Mon Feb  6 15:41:12 2012

# 

@<TRIPOS>MOLECULE
DB04080
   19    19     0
SMALL
USER_CHARGE


@<TRIPOS>ATOM
      1 C1          6.2597   -1.9689    1.6886 C.ar      1 <1>         0.0000
      2 C2          5.2077   -2.6716    1.1013 C.ar      1 <1>         0.0000
      3 C3          6.1595   -0.5901    1.8750 C.ar      1 <1>         0.0000
      4 C4          4.0553   -1.9956    0.7002 C.ar      1 <1>         0.0000
      5 C5          5.0072    0.0859    1.4739 C.ar      1 <1>         0.0000
      6 C6          3.9551   -0.6169    0.8865 C.ar      1 <1>         0.0000
      7 C7          3.0058    1.5620    0.0399 C.2       1 <1>         0.0000
      8 C8          1.6099    0.0717    1.5223 C.2       1 <1>         0.0000
      9 C9          2.7234    0.1066    0.4578 C.3       1 <1>         0.0000
     10 O1          3.5090    2.3106    0.9240 O.co2     1 <1>        -0.5000
     11 O2          1.9250    0.6211    2.6191 O.co2     1 <1>        -0.5000
     12 O3          2.6973    1.8406   -1.1558 O.co2     1 <1>        -0.5000
     13 O4          0.5219   -0.4817    1.1990 O.co2     1 <1>        -0.5000
     14 H1          7.1564   -2.4956    2.0021 H         1 <1>         0.0000
     15 H2          5.2851   -3.7453    0.9572 H         1 <1>         0.0000
     16 H3          6.9780   -0.0428    2.3331 H         1 <1>         0.0000
     17 H4          3.2408   -2.5514    0.2434 H         1 <1>         0.0000
     18 H5          4.9380    1.1602    1.6229 H         1 <1>         0.0000
     19 H6          2.2906   -0.4007   -0.4251 H         1 <1>         0.0000
@<TRIPOS>BOND
     1    1    2 ar
     2    1    3 ar
     3    2    4 ar
     4    3    5 ar
     5    4    6 ar
     6    5    6 ar
     7    6    9 1
     8    7    9 1
     9    7   10 1
    10    7   12 2
    11    8    9 1
    12    8   11 1
    13    8   13 2
    14    1   14 1
    15    2   15 1
    16    3   16 1
    17    4   17 1
    18    5   18 1
    19    9   19 1
@<TRIPOS>Similarity
1.2936
@<TRIPOS>ShapeSim
0.8076
@<TRIPOS>PharmSim
0.4860
# END
# Name:		DB04534
# Created and modified by SHAFTS on Mon Feb  6 15:41:12 2012

# 

@<TRIPOS>MOLECULE
DB04534
   17    18     0
SMALL
USER_CHARGE


@<TRIPOS>ATOM
      1 C1          6.6818   -0.2782    2.0520 C.ar      1 <1>        -0.0365
      2 C2          5.6551    0.5296    1.6519 C.ar      1 <1>        -0.0316
      3 C3          4.5041   -1.3219    0.6658 C.ar      1 <1>        -0.0227
      4 C4          5.8002   -3.5986    0.9164 C.2       1 <1>         0.0543
      5 C5          5.5457   -2.1688    1.0598 C.ar      1 <1>         0.0193
      6 C6          6.6453   -1.6399    1.7635 C.ar      1 <1>         0.0564
      7 C7          4.5697    0.0099    0.9578 C.ar      1 <1>         0.1183
      8 N1          6.9416   -3.8587    1.4871 N.2       1 <1>        -0.1916
      9 N2          7.4916   -2.6874    2.0179 N.pl3     1 <1>        -0.2379
     10 N3          3.4710    0.9077    0.5363 N.pl3     1 <1>         0.0920
     11 O1          2.5143    0.4573   -0.0682 O.2       1 <1>        -0.1380
     12 O2          3.5213    2.0962    0.7983 O.2       1 <1>        -0.1380
     13 H1          7.5199    0.1387    2.5907 H         1 <1>         0.0644
     14 H2          5.6878    1.5852    1.8777 H         1 <1>         0.0646
     15 H3          3.6540   -1.7194    0.1311 H         1 <1>         0.0653
     16 H4          5.1569   -4.3132    0.4246 H         1 <1>         0.0864
     17 H5          8.3366   -2.6262    2.4902 H         1 <1>         0.1755
@<TRIPOS>BOND
     1    1    2 ar
     2    1    6 ar
     3    2    7 ar
     4    3    5 ar
     5    3    7 ar
     6    4    5 1
     7    4    8 2
     8    5    6 ar
     9    6    9 1
    10    7   10 1
    11    8    9 1
    12   10   11 2
    13   10   12 2
    14    1   13 1
    15    2   14 1
    16    3   15 1
    17    4   16 1
    18    9   17 1
@<TRIPOS>Similarity
1.2936
@<TRIPOS>ShapeSim
0.8737
@<TRIPOS>PharmSim
0.4198
# END
# Name:		DB01976
# Created and modified by SHAFTS on Mon Feb  6 15:41:12 2012

# 

@<TRIPOS>MOLECULE
DB01976
   26    28     0
SMALL
USER_CHARGE


@<TRIPOS>ATOM
      1 C1          7.4640   -3.4269    1.6087 C.ar      1 <1>        -0.0616
      2 C2          6.4443   -4.1371    0.9832 C.ar      1 <1>        -0.0616
      3 C3          3.2134    2.5269    1.7788 C.ar      1 <1>        -0.0598
      4 C4          7.2733   -2.0879    1.9504 C.ar      1 <1>        -0.0543
      5 C5          5.2314   -3.5100    0.6976 C.ar      1 <1>        -0.0543
      6 C6          4.4263    1.8998    2.0643 C.ar      1 <1>        -0.0542
      7 C7          2.1937    1.8168    1.1530 C.ar      1 <1>        -0.0407
      8 C8          5.8504   -0.0936    2.0077 C.ar      1 <1>        -0.0464
      9 C9          3.8073   -1.5165    0.7541 C.ar      1 <1>        -0.0446
     10 C10         6.0580   -1.4414    1.6700 C.ar      1 <1>        -0.0177
     11 C11         5.0230   -2.1623    1.0350 C.ar      1 <1>        -0.0177
     12 C12         4.6348    0.5520    1.7269 C.ar      1 <1>        -0.0159
     13 C13         3.5997   -0.1687    1.0917 C.ar      1 <1>         0.0031
     14 C14         2.3845    0.4778    0.8112 C.ar      1 <1>         0.0313
     15 N1          1.3138   -0.1969    0.1744 N.pl3     1 <1>        -0.3578
     16 H1          8.4086   -3.9145    1.8317 H         1 <1>         0.0623
     17 H2          6.5917   -5.1797    0.7173 H         1 <1>         0.0623
     18 H3          3.0650    3.5693    2.0450 H         1 <1>         0.0623
     19 H4          8.0844   -1.5520    2.4391 H         1 <1>         0.0629
     20 H5          4.4481   -4.0852    0.2081 H         1 <1>         0.0629
     21 H6          5.2098    2.4744    2.5541 H         1 <1>         0.0629
     22 H7          1.2534    2.3171    0.9351 H         1 <1>         0.0642
     23 H8          6.6494    0.4628    2.4979 H         1 <1>         0.0636
     24 H9          3.0201   -2.0882    0.2638 H         1 <1>         0.0636
     25 H10         0.4535    0.2875    0.0364 H         1 <1>         0.1427
     26 H11         1.4126   -1.1665   -0.0352 H         1 <1>         0.1427
@<TRIPOS>BOND
     1    1    2 ar
     2    1    4 ar
     3    2    5 ar
     4    3    6 ar
     5    3    7 ar
     6    4   10 ar
     7    5   11 ar
     8    6   12 ar
     9    7   14 ar
    10    8   10 ar
    11    8   12 ar
    12    9   11 ar
    13    9   13 ar
    14   10   11 ar
    15   12   13 ar
    16   13   14 ar
    17   14   15 1
    18    1   16 1
    19    2   17 1
    20    3   18 1
    21    4   19 1
    22    5   20 1
    23    6   21 1
    24    7   22 1
    25    8   23 1
    26    9   24 1
    27   15   25 1
    28   15   26 1
@<TRIPOS>Similarity
1.2890
@<TRIPOS>ShapeSim
0.8426
@<TRIPOS>PharmSim
0.4464
# END
# Name:		DB01427
# Created and modified by SHAFTS on Mon Feb  6 15:41:12 2012

# 

@<TRIPOS>MOLECULE
DB01427
   23    24     0
SMALL
USER_CHARGE


@<TRIPOS>ATOM
      1 C1          5.1696   -3.1821    1.0190 C.ar      1 <1>        -0.0359
      2 C2          6.8578   -1.5125    1.4021 C.ar      1 <1>        -0.0359
      3 C3          6.0498   -4.1149    1.5434 C.ar      1 <1>         0.0274
      4 C4          7.6623   -2.5199    1.9095 C.ar      1 <1>         0.0274
      5 C5          5.5891   -1.8582    0.9505 C.ar      1 <1>        -0.0140
      6 C6          3.2533   -0.9022    0.4942 C.2       1 <1>        -0.0268
      7 C7          5.2517    0.2227   -0.2046 C.2       1 <1>         0.0038
      8 C8          4.7034   -0.8395    0.4085 C.2       1 <1>        -0.0022
      9 C9          2.4494    0.0481   -0.0128 C.2       1 <1>         0.0879
     10 C10         3.0901    1.2252   -0.6955 C.2       1 <1>         0.2605
     11 N1          7.2897   -3.8169    1.9920 N.ar      1 <1>        -0.2646
     12 N2          4.4735    1.2179   -0.7377 N.am      1 <1>        -0.2862
     13 N3          1.0872    0.0398    0.0389 N.pl3     1 <1>        -0.3540
     14 O1          2.4084    2.1274   -1.1789 O.2       1 <1>        -0.2700
     15 H1          4.1869   -3.4894    0.6764 H         1 <1>         0.0645
     16 H2          7.2204   -0.4904    1.3654 H         1 <1>         0.0645
     17 H3          5.7706   -5.1607    1.6196 H         1 <1>         0.0840
     18 H4          8.6607   -2.3029    2.2746 H         1 <1>         0.0840
     19 H5          2.8255   -1.7672    0.9946 H         1 <1>         0.0651
     20 H6          6.3207    0.3632   -0.3182 H         1 <1>         0.0797
     21 H7          4.9511    1.9934   -1.1879 H         1 <1>         0.1554
     22 H8          0.6302   -0.7259    0.4854 H         1 <1>         0.1428
     23 H9          0.5882    0.7995   -0.3713 H         1 <1>         0.1428
@<TRIPOS>BOND
     1    1    3 ar
     2    1    5 ar
     3    2    4 ar
     4    2    5 ar
     5    3   11 ar
     6    4   11 ar
     7    5    8 1
     8    6    8 1
     9    6    9 2
    10    7    8 2
    11    7   12 1
    12    9   10 1
    13    9   13 1
    14   10   12 am
    15   10   14 2
    16    1   15 1
    17    2   16 1
    18    3   17 1
    19    4   18 1
    20    6   19 1
    21    7   20 1
    22   12   21 1
    23   13   22 1
    24   13   23 1
@<TRIPOS>Similarity
1.2857
@<TRIPOS>ShapeSim
0.8234
@<TRIPOS>PharmSim
0.4623
# END
# Name:		DB07524
# Created and modified by SHAFTS on Mon Feb  6 15:41:12 2012

# 

@<TRIPOS>MOLECULE
DB07524
   27    29     0
SMALL
USER_CHARGE


@<TRIPOS>ATOM
      1 C1          0.4561    1.9692   -1.2275 C.ar      1 <1>        -0.0621
      2 C2         -0.0187    1.3633   -0.0644 C.ar      1 <1>        -0.0604
      3 C3          1.8180    1.9323   -1.5272 C.ar      1 <1>        -0.0604
      4 C4          5.7554   -3.7673    1.3958 C.ar      1 <1>        -0.0430
      5 C5          4.7557   -2.7962    1.3959 C.ar      1 <1>        -0.0480
      6 C6          0.8683    0.7202    0.7991 C.ar      1 <1>        -0.0408
      7 C7          2.7049    1.2893   -0.6637 C.ar      1 <1>        -0.0408
      8 C8          7.0825   -3.3595    1.3962 C.ar      1 <1>         0.0291
      9 C9          5.4525    0.7891    1.3969 C.2       1 <1>         0.0164
     10 C10         5.1506   -1.4486    1.3962 C.ar      1 <1>         0.0376
     11 C11         2.2301    0.6833    0.4995 C.ar      1 <1>         0.0303
     12 C12         4.4862   -0.1937    1.3964 C.2       1 <1>         0.0553
     13 C13         6.5165   -1.1816    1.3965 C.ar      1 <1>         0.1304
     14 N1          7.5204   -2.0789    1.3963 N.ar      1 <1>        -0.2406
     15 N2          6.6800    0.1787    1.3965 N.pl3     1 <1>        -0.3036
     16 N3          3.1523    0.0149    1.3967 N.pl3     1 <1>        -0.3133
     17 H1         -0.2345    2.4701   -1.8997 H         1 <1>         0.0622
     18 H2         -1.0788    1.3922    0.1689 H         1 <1>         0.0623
     19 H3          2.1876    2.4043   -2.4330 H         1 <1>         0.0623
     20 H4          5.5005   -4.8217    1.3967 H         1 <1>         0.0639
     21 H5          3.7089   -3.0824    1.3956 H         1 <1>         0.0631
     22 H6          0.4882    0.2513    1.7029 H         1 <1>         0.0642
     23 H7          3.7640    1.2666   -0.9077 H         1 <1>         0.0642
     24 H8          7.8749   -4.1034    1.3971 H         1 <1>         0.0840
     25 H9          5.3795    1.8681    1.3971 H         1 <1>         0.0810
     26 H10         7.5695    0.6581    1.3966 H         1 <1>         0.1538
     27 H11         2.6189   -0.3731    2.2026 H         1 <1>         0.1528
@<TRIPOS>BOND
     1    1    2 ar
     2    1    3 ar
     3    2    6 ar
     4    3    7 ar
     5    4    5 ar
     6    4    8 ar
     7    5   10 ar
     8    6   11 ar
     9    7   11 ar
    10    8   14 ar
    11    9   12 2
    12    9   15 1
    13   10   12 1
    14   10   13 ar
    15   11   16 1
    16   12   16 1
    17   13   14 ar
    18   13   15 1
    19    1   17 1
    20    2   18 1
    21    3   19 1
    22    4   20 1
    23    5   21 1
    24    6   22 1
    25    7   23 1
    26    8   24 1
    27    9   25 1
    28   15   26 1
    29   16   27 1
@<TRIPOS>Similarity
1.2840
@<TRIPOS>ShapeSim
0.8666
@<TRIPOS>PharmSim
0.4174
# END
# Name:		DB03372
# Created and modified by SHAFTS on Mon Feb  6 15:41:12 2012

# 

@<TRIPOS>MOLECULE
DB03372
   34    36     0
SMALL
USER_CHARGE


@<TRIPOS>ATOM
      1 C1          6.1308   -4.0038    1.3958 C.ar      1 <1>        -0.0615
      2 C2          7.4274   -3.5162    1.3965 C.ar      1 <1>        -0.0603
      3 C3          5.0385   -3.1717    1.3955 C.ar      1 <1>        -0.0527
      4 C4          7.7068   -2.1607    1.3975 C.ar      1 <1>        -0.0402
      5 C5          5.2918   -1.7967    1.3959 C.ar      1 <1>         0.0006
      6 C6          4.4219   -0.6378    1.3952 C.2       1 <1>        -0.0185
      7 C7          6.6175   -1.2919    1.3966 C.ar      1 <1>         0.0377
      8 C8          5.2184    0.4529    1.3975 C.2       1 <1>         0.0287
      9 C9          2.6678    2.6602    0.2652 C.2       1 <1>         0.2154
     10 C10         2.9149   -0.6016    1.3913 C.3       1 <1>        -0.0097
     11 C11         4.6930    1.8667    1.4015 C.3       1 <1>         0.0525
     12 C12         2.4484    0.7899    1.8357 C.3       1 <1>         0.0186
     13 C13         3.5042    3.6914   -0.4477 C.3       1 <1>         0.0334
     14 C14         2.6108    4.5243   -1.3691 C.3       1 <1>        -0.0012
     15 N1          6.5334    0.0707    1.3965 N.pl3     1 <1>        -0.3162
     16 N2          3.2456    1.8075    1.1344 N.am      1 <1>        -0.2958
     17 O1          1.4747    2.5977    0.0568 O.2       1 <1>        -0.2774
     18 S1          3.6176    5.7655   -2.2272 S.3       1 <1>        -0.1788
     19 H1          5.9739   -5.0723    1.3957 H         1 <1>         0.0623
     20 H2          8.2484   -4.2180    1.3967 H         1 <1>         0.0623
     21 H3          4.0311   -3.5610    1.3947 H         1 <1>         0.0630
     22 H4          8.7225   -1.7933    1.3983 H         1 <1>         0.0642
     23 H5          2.5303   -1.3528    2.0810 H         1 <1>         0.0333
     24 H6          2.5477   -0.8055    0.3855 H         1 <1>         0.0333
     25 H7          5.1921    2.4493    0.6274 H         1 <1>         0.0534
     26 H8          4.8637    2.3223    2.3770 H         1 <1>         0.0534
     27 H9          2.5876    0.8951    2.9116 H         1 <1>         0.0473
     28 H10         1.3945    0.9177    1.5883 H         1 <1>         0.0473
     29 H11         4.2708    3.1913   -1.0397 H         1 <1>         0.0373
     30 H12         3.9790    4.3438    0.2851 H         1 <1>         0.0373
     31 H13         1.8442    5.0244   -0.7771 H         1 <1>         0.0383
     32 H14         2.1360    3.8719   -2.1019 H         1 <1>         0.0383
     33 H15         7.2908    0.6766    1.3959 H         1 <1>         0.1525
     34 H16         2.6670    6.3698   -2.9622 H         1 <1>         0.1022
@<TRIPOS>BOND
     1    1    2 ar
     2    1    3 ar
     3    2    4 ar
     4    3    5 ar
     5    4    7 ar
     6    5    6 1
     7    5    7 ar
     8    6    8 2
     9    6   10 1
    10    7   15 1
    11    8   11 1
    12    8   15 1
    13    9   13 1
    14    9   16 am
    15    9   17 2
    16   10   12 1
    17   11   16 1
    18   12   16 1
    19   13   14 1
    20   14   18 1
    21    1   19 1
    22    2   20 1
    23    3   21 1
    24    4   22 1
    25   10   23 1
    26   10   24 1
    27   11   25 1
    28   11   26 1
    29   12   27 1
    30   12   28 1
    31   13   29 1
    32   13   30 1
    33   14   31 1
    34   14   32 1
    35   15   33 1
    36   18   34 1
@<TRIPOS>Similarity
1.2827
@<TRIPOS>ShapeSim
0.8096
@<TRIPOS>PharmSim
0.4731
# END
# Name:		DB07597
# Created and modified by SHAFTS on Mon Feb  6 15:41:12 2012

# 

@<TRIPOS>MOLECULE
DB07597
   26    27     0
SMALL
USER_CHARGE


@<TRIPOS>ATOM
      1 C1          7.1156   -1.2758    1.6410 C.ar      1 <1>        -0.0619
      2 C2          6.8284   -0.0010    2.0915 C.ar      1 <1>        -0.0619
      3 C3          6.1357   -2.0180    1.0144 C.ar      1 <1>        -0.0587
      4 C4          5.5630    0.5196    1.9135 C.ar      1 <1>        -0.0562
      5 C5          4.8620   -1.4953    0.8333 C.ar      1 <1>        -0.0423
      6 C6          4.5747   -0.2268    1.2855 C.ar      1 <1>        -0.0180
      7 C7          3.8419   -2.3587    0.1380 C.3       1 <1>        -0.0289
      8 C8          2.4300   -1.8394    0.4019 C.3       1 <1>        -0.0594
      9 C9          3.2135    0.3999    1.1317 C.3       1 <1>         0.0667
     10 C10         2.3969   -0.3417    0.0754 C.3       1 <1>        -0.0526
     11 N1          1.0088    0.1386    0.0960 N.4       1 <1>         0.3833
     12 O1          3.3652    1.7650    0.7374 O.3       1 <1>        -0.3901
     13 H1          8.1037   -1.6893    1.7788 H         1 <1>         0.0623
     14 H2          7.5917    0.5856    2.5808 H         1 <1>         0.0623
     15 H3          6.3610   -3.0140    0.6626 H         1 <1>         0.0625
     16 H4          5.3396    1.5160    2.2652 H         1 <1>         0.0626
     17 H5          3.9241   -3.3806    0.5079 H         1 <1>         0.0315
     18 H6          4.0340   -2.3487   -0.9349 H         1 <1>         0.0315
     19 H7          2.1723   -1.9925    1.4498 H         1 <1>         0.0254
     20 H8          1.7195   -2.3693   -0.2326 H         1 <1>         0.0254
     21 H9          2.6888    0.3583    2.0861 H         1 <1>         0.0634
     22 H10         2.8303   -0.1712   -0.9102 H         1 <1>         0.0115
     23 H11         0.9922    1.1278   -0.1019 H         1 <1>        -0.0897
     24 H12         0.4722   -0.3533   -0.6028 H         1 <1>        -0.0897
     25 H13         0.6084   -0.0289    1.0069 H         1 <1>        -0.0897
     26 H14         3.8697    2.2035    1.4362 H         1 <1>         0.2108
@<TRIPOS>BOND
     1    1    2 ar
     2    1    3 ar
     3    2    4 ar
     4    3    5 ar
     5    4    6 ar
     6    5    6 ar
     7    5    7 1
     8    6    9 1
     9    7    8 1
    10    8   10 1
    11    9   10 1
    12    9   12 1
    13   10   11 1
    14    1   13 1
    15    2   14 1
    16    3   15 1
    17    4   16 1
    18    7   17 1
    19    7   18 1
    20    8   19 1
    21    8   20 1
    22    9   21 1
    23   10   22 1
    24   11   23 1
    25   11   24 1
    26   11   25 1
    27   12   26 1
@<TRIPOS>Similarity
1.2774
@<TRIPOS>ShapeSim
0.7818
@<TRIPOS>PharmSim
0.4955
# END
# Name:		DB00633
# Created and modified by SHAFTS on Mon Feb  6 15:41:12 2012

# 

@<TRIPOS>MOLECULE
DB00633
   31    32     0
SMALL
USER_CHARGE


@<TRIPOS>ATOM
      1 C1          6.6319    0.5251    1.4959 C.ar      1 <1>        -0.0617
      2 C2          7.0001   -0.8056    1.4346 C.ar      1 <1>        -0.0590
      3 C3          5.2960    0.8692    1.5887 C.ar      1 <1>        -0.0581
      4 C4          3.1841    1.8183   -0.2575 C.2       1 <1>         0.0461
      5 C5          1.2657    1.6596   -1.2328 C.2       1 <1>         0.0841
      6 C6          6.0328   -1.7929    1.4699 C.ar      1 <1>        -0.0479
      7 C7          4.3294   -0.1179    1.6293 C.ar      1 <1>        -0.0362
      8 C8          4.6977   -1.4491    1.5670 C.ar      1 <1>        -0.0443
      9 C9          2.4442    0.9645    0.4757 C.2       1 <1>         0.0336
     10 C10         6.4343   -3.2438    1.4030 C.3       1 <1>        -0.0395
     11 C11         3.6434   -2.5251    1.6055 C.3       1 <1>        -0.0392
     12 C12         2.6717    1.1842    2.9352 C.3       1 <1>        -0.0530
     13 C13         2.8736    0.2569    1.7351 C.3       1 <1>         0.0211
     14 N1          2.4391    2.2273   -1.2950 N.2       1 <1>        -0.2476
     15 N2          1.2272    0.8635   -0.1426 N.pl3     1 <1>        -0.3074
     16 H1          7.3875    1.2964    1.4686 H         1 <1>         0.0623
     17 H2          8.0435   -1.0743    1.3594 H         1 <1>         0.0625
     18 H3          5.0083    1.9091    1.6365 H         1 <1>         0.0626
     19 H4          4.1993    2.1206   -0.0468 H         1 <1>         0.0857
     20 H5          0.4591    1.8025   -1.9365 H         1 <1>         0.1013
     21 H6          6.4640   -3.5651    0.3618 H         1 <1>         0.0280
     22 H7          7.4206   -3.3689    1.8501 H         1 <1>         0.0280
     23 H8          5.7089   -3.8471    1.9488 H         1 <1>         0.0280
     24 H9          3.2539   -2.6884    0.6006 H         1 <1>         0.0280
     25 H10         4.0818   -3.4502    1.9799 H         1 <1>         0.0280
     26 H11         2.8318   -2.2152    2.2638 H         1 <1>         0.0280
     27 H12         3.2702    2.0855    2.8028 H         1 <1>         0.0240
     28 H13         1.6187    1.4554    3.0118 H         1 <1>         0.0240
     29 H14         2.9822    0.6724    3.8460 H         1 <1>         0.0240
     30 H15         2.2750   -0.6443    1.8675 H         1 <1>         0.0413
     31 H16         0.4784    0.3186    0.1461 H         1 <1>         0.1534
@<TRIPOS>BOND
     1    1    2 ar
     2    1    3 ar
     3    2    6 ar
     4    3    7 ar
     5    4    9 2
     6    4   14 1
     7    5   14 2
     8    5   15 1
     9    6    8 ar
    10    6   10 1
    11    7    8 ar
    12    7   13 1
    13    8   11 1
    14    9   13 1
    15    9   15 1
    16   12   13 1
    17    1   16 1
    18    2   17 1
    19    3   18 1
    20    4   19 1
    21    5   20 1
    22   10   21 1
    23   10   22 1
    24   10   23 1
    25   11   24 1
    26   11   25 1
    27   11   26 1
    28   12   27 1
    29   12   28 1
    30   12   29 1
    31   13   30 1
    32   15   31 1
@<TRIPOS>Similarity
1.2769
@<TRIPOS>ShapeSim
0.8268
@<TRIPOS>PharmSim
0.4501
# END
# Name:		DB03308
# Created and modified by SHAFTS on Mon Feb  6 15:41:12 2012

# 

@<TRIPOS>MOLECULE
DB03308
   25    24     0
SMALL
USER_CHARGE


@<TRIPOS>ATOM
      1 C1          3.6456    0.8255    0.6352 C.2       1 <1>         0.2200
      2 C2          5.0147   -3.2238    1.1838 C.3       1 <1>        -0.0628
      3 C3          7.3794   -2.4174    1.2045 C.3       1 <1>        -0.0628
      4 C4          5.5074   -0.7905    0.9031 C.3       1 <1>        -0.0553
      5 C5          4.1229   -0.3779    1.4068 C.3       1 <1>        -0.0025
      6 C6          5.9411   -2.0802    1.6025 C.3       1 <1>        -0.0482
      7 N1          3.1152    0.6707   -0.5941 N.am      1 <1>        -0.1996
      8 N2          4.2010   -0.0441    2.8353 N.4       1 <1>         0.3872
      9 O1          3.7389    1.9330    1.1204 O.2       1 <1>        -0.2774
     10 O2          2.6668    1.8014   -1.3191 O.3       1 <1>        -0.2968
     11 H1          5.3237   -4.1426    1.6822 H         1 <1>         0.0233
     12 H2          3.9901   -2.9835    1.4673 H         1 <1>         0.0233
     13 H3          5.0705   -3.3596    0.1038 H         1 <1>         0.0233
     14 H4          7.4188   -2.6396    0.1381 H         1 <1>         0.0233
     15 H5          8.0256   -1.5671    1.4226 H         1 <1>         0.0233
     16 H6          7.7186   -3.2858    1.7693 H         1 <1>         0.0233
     17 H7          6.2245    0.0006    1.1223 H         1 <1>         0.0257
     18 H8          5.4677   -0.9566   -0.1736 H         1 <1>         0.0257
     19 H9          3.4238   -1.2018    1.2639 H         1 <1>         0.0183
     20 H10         5.8853   -1.9444    2.6825 H         1 <1>         0.0296
     21 H11         3.0406   -0.2151   -0.9822 H         1 <1>         0.1835
     22 H12         3.3091    0.3100    3.1472 H         1 <1>        -0.0891
     23 H13         4.4368   -0.8720    3.3617 H         1 <1>        -0.0891
     24 H14         4.9106    0.6588    2.9781 H         1 <1>        -0.0891
     25 H15         2.3268    1.4751   -2.1635 H         1 <1>         0.2427
@<TRIPOS>BOND
     1    1    5 1
     2    1    7 am
     3    1    9 2
     4    2    6 1
     5    3    6 1
     6    4    5 1
     7    4    6 1
     8    5    8 1
     9    7   10 1
    10    2   11 1
    11    2   12 1
    12    2   13 1
    13    3   14 1
    14    3   15 1
    15    3   16 1
    16    4   17 1
    17    4   18 1
    18    5   19 1
    19    6   20 1
    20    7   21 1
    21    8   22 1
    22    8   23 1
    23    8   24 1
    24   10   25 1
@<TRIPOS>Similarity
1.2759
@<TRIPOS>ShapeSim
0.8016
@<TRIPOS>PharmSim
0.4743
# END
# Name:		DB00573
# Created and modified by SHAFTS on Mon Feb  6 15:41:12 2012

# 

@<TRIPOS>MOLECULE
DB00573
   31    32     0
SMALL
USER_CHARGE


@<TRIPOS>ATOM
      1 C1          6.3181   -6.7776    1.2183 C.ar      1 <1>         0.0000
      2 C2          7.0457   -5.7045    0.7038 C.ar      1 <1>         0.0000
      3 C3          5.4651   -6.5847    2.3050 C.ar      1 <1>         0.0000
      4 C4          6.7943   -0.1595    0.7752 C.ar      1 <1>         0.0000
      5 C5          5.5233    0.2534    0.3758 C.ar      1 <1>         0.0000
      6 C6          6.9205   -4.4386    1.2761 C.ar      1 <1>         0.0000
      7 C7          5.3398   -5.3189    2.8773 C.ar      1 <1>         0.0000
      8 C8          6.9358   -1.2492    1.6345 C.ar      1 <1>         0.0000
      9 C9          4.5349   -1.5130    1.6949 C.ar      1 <1>         0.0000
     10 C10         4.3935   -0.4234    0.8356 C.ar      1 <1>         0.0000
     11 C11         6.0676   -4.2457    2.3628 C.ar      1 <1>         0.0000
     12 C12         5.8060   -1.9259    2.0944 C.ar      1 <1>         0.0000
     13 C13         3.0769    1.5196    0.0320 C.2       1 <1>         0.0000
     14 C14         1.9509   -0.3074    1.4472 C.3       1 <1>         0.0000
     15 C15         3.0347    0.0184    0.4087 C.3       1 <1>         0.0000
     16 O1          3.4127    2.2871    0.9810 O.co2     1 <1>        -0.5000
     17 O2          2.7814    1.8120   -1.1602 O.co2     1 <1>        -0.5000
     18 O3          5.9441   -2.9896    2.9324 O.3       1 <1>         0.0000
     19 H1          6.4150   -7.7632    0.7726 H         1 <1>         0.0000
     20 H2          7.7102   -5.8545   -0.1423 H         1 <1>         0.0000
     21 H3          4.8986   -7.4208    2.7050 H         1 <1>         0.0000
     22 H4          7.6738    0.3671    0.4168 H         1 <1>         0.0000
     23 H5          5.4230    1.1037   -0.2936 H         1 <1>         0.0000
     24 H6          7.4913   -3.6072    0.8715 H         1 <1>         0.0000
     25 H7          4.6753   -5.1749    3.7248 H         1 <1>         0.0000
     26 H8          7.9285   -1.5658    1.9420 H         1 <1>         0.0000
     27 H9          3.6560   -2.0425    2.0551 H         1 <1>         0.0000
     28 H10         2.1783    0.1778    2.4031 H         1 <1>         0.0000
     29 H11         0.9654    0.0410    1.1191 H         1 <1>         0.0000
     30 H12         1.8718   -1.3842    1.6333 H         1 <1>         0.0000
     31 H13         2.7324   -0.5050   -0.5191 H         1 <1>         0.0000
@<TRIPOS>BOND
     1    1    2 ar
     2    1    3 ar
     3    2    6 ar
     4    3    7 ar
     5    4    5 ar
     6    4    8 ar
     7    5   10 ar
     8    6   11 ar
     9    7   11 ar
    10    8   12 ar
    11    9   10 ar
    12    9   12 ar
    13   10   15 1
    14   11   18 1
    15   12   18 1
    16   13   15 1
    17   13   16 1
    18   13   17 2
    19   14   15 1
    20    1   19 1
    21    2   20 1
    22    3   21 1
    23    4   22 1
    24    5   23 1
    25    6   24 1
    26    7   25 1
    27    8   26 1
    28    9   27 1
    29   14   28 1
    30   14   29 1
    31   14   30 1
    32   15   31 1
@<TRIPOS>Similarity
1.2726
@<TRIPOS>ShapeSim
0.7446
@<TRIPOS>PharmSim
0.5280
# END
# Name:		DB01486
# Created and modified by SHAFTS on Mon Feb  6 15:41:12 2012

# 

@<TRIPOS>MOLECULE
DB01486
   25    25     0
SMALL
USER_CHARGE


@<TRIPOS>ATOM
      1 C1          7.1643   -1.2517    1.6345 C.ar      1 <1>        -0.0622
      2 C2          6.9323    0.1080    1.8420 C.ar      1 <1>        -0.0619
      3 C3          6.1127   -2.0903    1.2650 C.ar      1 <1>        -0.0619
      4 C4          5.6487    0.6291    1.6801 C.ar      1 <1>        -0.0565
      5 C5          4.8290   -1.5690    1.1030 C.ar      1 <1>        -0.0565
      6 C6          4.5970   -0.2094    1.3106 C.ar      1 <1>        -0.0212
      7 C7          2.9012   -0.2833   -1.3332 C.3       1 <1>        -0.0756
      8 C8          3.2038    0.3554    1.1349 C.3       1 <1>         0.0661
      9 C9          2.3656   -0.4046    0.0899 C.3       1 <1>        -0.0559
     10 N1          0.9809    0.1648    0.0878 N.4       1 <1>         0.3831
     11 O1          3.3590    1.7197    0.7362 O.3       1 <1>        -0.3901
     12 H1          8.1641   -1.6570    1.7593 H         1 <1>         0.0622
     13 H2          7.7512    0.7613    2.1287 H         1 <1>         0.0623
     14 H3          6.2931   -3.1487    1.1022 H         1 <1>         0.0623
     15 H4          5.4772    1.6897    1.8441 H         1 <1>         0.0626
     16 H5          4.0157   -2.2299    0.8150 H         1 <1>         0.0626
     17 H6          3.0318    0.7652   -1.6228 H         1 <1>         0.0215
     18 H7          2.2151   -0.7470   -2.0507 H         1 <1>         0.0215
     19 H8          3.8672   -0.7869   -1.4382 H         1 <1>         0.0215
     20 H9          2.6871    0.3606    2.1033 H         1 <1>         0.0634
     21 H10         2.2404   -1.4575    0.3651 H         1 <1>         0.0112
     22 H11         1.0181    1.1842    0.0480 H         1 <1>        -0.0898
     23 H12         0.4847   -0.1116    0.9362 H         1 <1>        -0.0898
     24 H13         0.4602   -0.1756   -0.7217 H         1 <1>        -0.0898
     25 H14         3.8449    2.1577    1.4502 H         1 <1>         0.2108
@<TRIPOS>BOND
     1    1    2 ar
     2    1    3 ar
     3    2    4 ar
     4    3    5 ar
     5    4    6 ar
     6    5    6 ar
     7    6    8 1
     8    7    9 1
     9    8    9 1
    10    8   11 1
    11    9   10 1
    12    1   12 1
    13    2   13 1
    14    3   14 1
    15    4   15 1
    16    5   16 1
    17    7   17 1
    18    7   18 1
    19    7   19 1
    20    8   20 1
    21    9   21 1
    22   10   22 1
    23   10   23 1
    24   10   24 1
    25   11   25 1
@<TRIPOS>Similarity
1.2713
@<TRIPOS>ShapeSim
0.8156
@<TRIPOS>PharmSim
0.4557
# END
# Name:		DB00397
# Created and modified by SHAFTS on Mon Feb  6 15:41:12 2012

# 

@<TRIPOS>MOLECULE
DB00397
   25    25     0
SMALL
USER_CHARGE


@<TRIPOS>ATOM
      1 C1          7.1643   -1.2517    1.6345 C.ar      1 <1>        -0.0622
      2 C2          6.9323    0.1080    1.8420 C.ar      1 <1>        -0.0619
      3 C3          6.1127   -2.0903    1.2650 C.ar      1 <1>        -0.0619
      4 C4          5.6487    0.6291    1.6801 C.ar      1 <1>        -0.0565
      5 C5          4.8290   -1.5690    1.1030 C.ar      1 <1>        -0.0565
      6 C6          4.5970   -0.2094    1.3106 C.ar      1 <1>        -0.0212
      7 C7          2.9012   -0.2833   -1.3332 C.3       1 <1>        -0.0756
      8 C8          3.2038    0.3554    1.1349 C.3       1 <1>         0.0661
      9 C9          2.3656   -0.4046    0.0899 C.3       1 <1>        -0.0559
     10 N1          0.9809    0.1648    0.0878 N.4       1 <1>         0.3831
     11 O1          3.3590    1.7197    0.7362 O.3       1 <1>        -0.3901
     12 H1          8.1641   -1.6570    1.7593 H         1 <1>         0.0622
     13 H2          7.7512    0.7613    2.1287 H         1 <1>         0.0623
     14 H3          6.2931   -3.1487    1.1022 H         1 <1>         0.0623
     15 H4          5.4772    1.6897    1.8441 H         1 <1>         0.0626
     16 H5          4.0157   -2.2299    0.8150 H         1 <1>         0.0626
     17 H6          3.0318    0.7652   -1.6228 H         1 <1>         0.0215
     18 H7          2.2151   -0.7470   -2.0507 H         1 <1>         0.0215
     19 H8          3.8672   -0.7869   -1.4382 H         1 <1>         0.0215
     20 H9          2.6871    0.3606    2.1033 H         1 <1>         0.0634
     21 H10         2.2404   -1.4575    0.3651 H         1 <1>         0.0112
     22 H11         1.0181    1.1842    0.0480 H         1 <1>        -0.0898
     23 H12         0.4847   -0.1116    0.9362 H         1 <1>        -0.0898
     24 H13         0.4602   -0.1756   -0.7217 H         1 <1>        -0.0898
     25 H14         3.8449    2.1577    1.4502 H         1 <1>         0.2108
@<TRIPOS>BOND
     1    1    2 ar
     2    1    3 ar
     3    2    4 ar
     4    3    5 ar
     5    4    6 ar
     6    5    6 ar
     7    6    8 1
     8    7    9 1
     9    8    9 1
    10    8   11 1
    11    9   10 1
    12    1   12 1
    13    2   13 1
    14    3   14 1
    15    4   15 1
    16    5   16 1
    17    7   17 1
    18    7   18 1
    19    7   19 1
    20    8   20 1
    21    9   21 1
    22   10   22 1
    23   10   23 1
    24   10   24 1
    25   11   25 1
@<TRIPOS>Similarity
1.2713
@<TRIPOS>ShapeSim
0.8156
@<TRIPOS>PharmSim
0.4557
# END
# Name:		DB07292
# Created and modified by SHAFTS on Mon Feb  6 15:41:12 2012

# 

@<TRIPOS>MOLECULE
DB07292
   21    22     0
SMALL
USER_CHARGE


@<TRIPOS>ATOM
      1 C1          5.0875   -2.9593    1.0605 C.ar      1 <1>        -0.0502
      2 C2          6.8379   -1.3742    1.5558 C.ar      1 <1>        -0.0502
      3 C3          5.9745   -3.9963    1.2611 C.ar      1 <1>        -0.0314
      4 C4          7.7185   -2.4159    1.7607 C.ar      1 <1>        -0.0314
      5 C5          4.9775    0.7715    1.1284 C.2       1 <1>         0.0051
      6 C6          5.5148   -1.6404    1.2069 C.ar      1 <1>         0.0009
      7 C7          7.2913   -3.7278    1.6085 C.ar      1 <1>         0.0713
      8 C8          4.5636   -0.5229    0.9915 C.2       1 <1>         0.0798
      9 C9          2.4382    0.2122    0.4673 C.2       1 <1>         0.1548
     10 N1          3.2993   -0.7708    0.6572 N.2       1 <1>        -0.2259
     11 N2          1.0975    0.1485    0.1242 N.pl3     1 <1>        -0.3375
     12 O1          8.1629   -4.7519    1.8055 O.3       1 <1>        -0.3609
     13 S1          3.4620    1.6469    0.7632 S.3       1 <1>        -0.0605
     14 H1          4.0631   -3.1688    0.7899 H         1 <1>         0.0630
     15 H2          7.1720   -0.3535    1.6698 H         1 <1>         0.0630
     16 H3          5.6442   -5.0182    1.1475 H         1 <1>         0.0650
     17 H4          8.7436   -2.2103    2.0313 H         1 <1>         0.0650
     18 H5          5.9517    1.1593    1.3867 H         1 <1>         0.0725
     19 H6          0.5858    0.9650    0.0135 H         1 <1>         0.1447
     20 H7          0.6705   -0.7128   -0.0054 H         1 <1>         0.1447
     21 H8          8.1077   -4.9899    2.7412 H         1 <1>         0.2182
@<TRIPOS>BOND
     1    1    3 ar
     2    1    6 ar
     3    2    4 ar
     4    2    6 ar
     5    3    7 ar
     6    4    7 ar
     7    5    8 2
     8    5   13 1
     9    6    8 1
    10    7   12 1
    11    8   10 1
    12    9   10 2
    13    9   11 1
    14    9   13 1
    15    1   14 1
    16    2   15 1
    17    3   16 1
    18    4   17 1
    19    5   18 1
    20   11   19 1
    21   11   20 1
    22   12   21 1
@<TRIPOS>Similarity
1.2698
@<TRIPOS>ShapeSim
0.9130
@<TRIPOS>PharmSim
0.3568
# END
# Name:		DB00382
# Created and modified by SHAFTS on Mon Feb  6 15:41:12 2012

# 

@<TRIPOS>MOLECULE
DB00382
   30    32     0
SMALL
USER_CHARGE


@<TRIPOS>ATOM
      1 C1          6.4859   -4.1850    1.3975 C.ar      1 <1>        -0.0614
      2 C2          7.6987   -3.4978    1.3923 C.ar      1 <1>        -0.0601
      3 C3          5.2799   -3.4813    1.4009 C.ar      1 <1>        -0.0510
      4 C4          7.7127   -2.1036    1.3915 C.ar      1 <1>        -0.0379
      5 C5          5.2759   -2.0772    1.3991 C.ar      1 <1>         0.0191
      6 C6          4.1410    0.0696    1.3912 C.ar      1 <1>        -0.0072
      7 C7          6.5082   -1.3923    1.3956 C.ar      1 <1>         0.0474
      8 C8          4.0940   -1.3265    1.4004 C.ar      1 <1>         0.0378
      9 C9          5.3910    0.6980    1.4061 C.ar      1 <1>         0.0203
     10 C10         2.8653    0.8691    1.4314 C.3       1 <1>        -0.0243
     11 C11         5.5505    2.1873    1.3729 C.3       1 <1>        -0.0123
     12 C12         3.0660    2.3373    1.0517 C.3       1 <1>        -0.0487
     13 C13         4.2740    2.9237    1.7764 C.3       1 <1>        -0.0475
     14 N1          6.5106   -0.0467    1.3965 N.ar      1 <1>        -0.3580
     15 N2          2.8353   -1.9811    1.4204 N.pl3     1 <1>        -0.3575
     16 H1          6.4793   -5.2714    1.3980 H         1 <1>         0.0623
     17 H2          8.6342   -4.0497    1.3894 H         1 <1>         0.0623
     18 H3          4.3556   -4.0539    1.4034 H         1 <1>         0.0630
     19 H4          8.6640   -1.5781    1.3876 H         1 <1>         0.0645
     20 H5          2.1211    0.4448    0.7473 H         1 <1>         0.0317
     21 H6          2.4574    0.8141    2.4486 H         1 <1>         0.0317
     22 H7          6.3689    2.4899    2.0358 H         1 <1>         0.0331
     23 H8          5.8301    2.4750    0.3522 H         1 <1>         0.0331
     24 H9          3.2131    2.4248   -0.0324 H         1 <1>         0.0270
     25 H10         2.1634    2.9079    1.2988 H         1 <1>         0.0270
     26 H11         4.1238    2.8442    2.8605 H         1 <1>         0.0270
     27 H12         4.3744    3.9896    1.5431 H         1 <1>         0.0270
     28 H13         7.4090    0.4377    1.3893 H         1 <1>         0.1662
     29 H14         2.8116   -2.9760    1.3857 H         1 <1>         0.1427
     30 H15         2.0076   -1.4293    1.3734 H         1 <1>         0.1427
@<TRIPOS>BOND
     1    1    2 ar
     2    1    3 ar
     3    2    4 ar
     4    3    5 ar
     5    4    7 ar
     6    5    7 ar
     7    5    8 ar
     8    6    8 ar
     9    6    9 ar
    10    6   10 1
    11    7   14 ar
    12    8   15 1
    13    9   11 1
    14    9   14 ar
    15   10   12 1
    16   11   13 1
    17   12   13 1
    18    1   16 1
    19    2   17 1
    20    3   18 1
    21    4   19 1
    22   10   20 1
    23   10   21 1
    24   11   22 1
    25   11   23 1
    26   12   24 1
    27   12   25 1
    28   13   26 1
    29   13   27 1
    30   14   28 1
    31   15   29 1
    32   15   30 1
@<TRIPOS>Similarity
1.2693
@<TRIPOS>ShapeSim
0.8320
@<TRIPOS>PharmSim
0.4373
# END
# Name:		DB02962
# Created and modified by SHAFTS on Mon Feb  6 15:41:12 2012

# 

@<TRIPOS>MOLECULE
DB02962
   15    16     0
SMALL
USER_CHARGE


@<TRIPOS>ATOM
      1 C1          5.9156   -3.9298    1.3961 C.ar      1 <1>        -0.0600
      2 C2          7.2537   -3.5295    1.3964 C.ar      1 <1>        -0.0602
      3 C3          4.8803   -2.9865    1.3960 C.ar      1 <1>        -0.0344
      4 C4          7.6065   -2.1758    1.3964 C.ar      1 <1>        -0.0386
      5 C5          5.2280    0.5131    1.3964 C.2       1 <1>         0.0851
      6 C6          5.2165   -1.6222    1.3963 C.ar      1 <1>         0.0858
      7 C7          6.5589   -1.2541    1.3964 C.ar      1 <1>         0.0571
      8 N1          4.4046   -0.5112    1.3961 N.2       1 <1>        -0.2394
      9 N2          6.5366    0.1170    1.3965 N.pl3     1 <1>        -0.3040
     10 H1          5.6730   -4.9893    1.3958 H         1 <1>         0.0623
     11 H2          8.0370   -4.2836    1.3962 H         1 <1>         0.0623
     12 H3          3.8434   -3.3072    1.3956 H         1 <1>         0.0646
     13 H4          8.6445   -1.8631    1.3967 H         1 <1>         0.0643
     14 H5          4.9453    1.5558    1.3972 H         1 <1>         0.1014
     15 H6          7.3438    0.7263    1.3971 H         1 <1>         0.1537
@<TRIPOS>BOND
     1    1    2 ar
     2    1    3 ar
     3    2    4 ar
     4    3    6 ar
     5    4    7 ar
     6    5    8 2
     7    5    9 1
     8    6    7 ar
     9    6    8 1
    10    7    9 1
    11    1   10 1
    12    2   11 1
    13    3   12 1
    14    4   13 1
    15    5   14 1
    16    9   15 1
@<TRIPOS>Similarity
1.2690
@<TRIPOS>ShapeSim
0.8025
@<TRIPOS>PharmSim
0.4665
# END
# Name:		DB07529
# Created and modified by SHAFTS on Mon Feb  6 15:41:12 2012

# 

@<TRIPOS>MOLECULE
DB07529
   22    23     0
SMALL
USER_CHARGE


@<TRIPOS>ATOM
      1 C1          7.5632   -3.0493    1.6974 C.ar      1 <1>         0.0000
      2 C2          6.7276   -4.1306    1.4547 C.ar      1 <1>         0.0000
      3 C3          7.0388   -1.7729    1.5964 C.ar      1 <1>         0.0000
      4 C4          5.4029   -3.9057    1.1209 C.ar      1 <1>         0.0000
      5 C5          5.6919   -1.6178    1.2550 C.ar      1 <1>         0.0000
      6 C6          3.8132   -0.1127    0.8121 C.2       1 <1>         0.0000
      7 C7          3.0293    1.1315    0.6436 C.2       1 <1>         0.0000
      8 C8          1.2043   -0.2581    0.1416 C.cat     1 <1>         0.0000
      9 C9          5.1177   -0.2685    1.1431 C.2       1 <1>         0.0000
     10 N1          4.9261   -2.6825    1.0302 N.ar      1 <1>         0.0000
     11 N2          1.7572    0.9957    0.3091 N.am      1 <1>         0.0000
     12 N3         -0.0215   -0.5668   -0.1781 N.pl3     1 <1>         0.0000
     13 O1          3.5342    2.2276    0.7956 O.2       1 <1>         0.0000
     14 S1          2.5746   -1.3544    0.4695 S.3       1 <1>         0.0000
     15 H1          8.5999   -3.2009    1.9590 H         1 <1>         0.0000
     16 H2          7.1078   -5.1390    1.5254 H         1 <1>         0.0000
     17 H3          7.6597   -0.9092    1.7829 H         1 <1>         0.0000
     18 H4          4.7515   -4.7462    0.9318 H         1 <1>         0.0000
     19 H5          5.7360    0.5983    1.3248 H         1 <1>         0.0000
     20 H6          1.2063    1.7844    0.1842 H         1 <1>         0.0000
     21 H7         -0.2807   -1.4975   -0.2637 H         1 <1>         0.0000
     22 H8         -0.6743    0.1345   -0.3302 H         1 <1>         0.0000
@<TRIPOS>BOND
     1    1    2 ar
     2    1    3 ar
     3    2    4 ar
     4    3    5 ar
     5    4   10 ar
     6    5    9 1
     7    5   10 ar
     8    6    7 1
     9    6    9 2
    10    6   14 1
    11    7   11 am
    12    7   13 2
    13    8   11 1
    14    8   12 2
    15    8   14 1
    16    1   15 1
    17    2   16 1
    18    3   17 1
    19    4   18 1
    20    9   19 1
    21   11   20 1
    22   12   21 1
    23   12   22 1
@<TRIPOS>Similarity
1.2673
@<TRIPOS>ShapeSim
0.8984
@<TRIPOS>PharmSim
0.3689
# END
# Name:		DB08777
# Created and modified by SHAFTS on Mon Feb  6 15:41:12 2012

# 

@<TRIPOS>MOLECULE
DB08777
   24    26     0
SMALL
USER_CHARGE


@<TRIPOS>ATOM
      1 C1          4.2031   -0.8250    0.6994 C.2       1 <1>         0.0740
      2 C2          5.1747   -1.8234    1.0242 C.2       1 <1>        -0.0228
      3 C3          6.2884   -1.2558    1.6164 C.2       1 <1>        -0.0046
      4 C4          4.6093    0.4472    1.0752 C.2       1 <1>         0.1149
      5 C5          2.7667    1.4535    0.3408 C.2       1 <1>         0.0880
      6 C6          2.9053   -0.9728    0.0514 C.2       1 <1>         0.2510
      7 C7          5.0891   -3.2974    0.7587 C.3       1 <1>        -0.0262
      8 C8          7.4919   -2.0091    2.0919 C.3       1 <1>        -0.0211
      9 C9          6.1449   -4.0895    1.5455 C.3       1 <1>        -0.0488
     10 C10         7.5226   -3.4177    1.4815 C.3       1 <1>        -0.0484
     11 N1          3.9189    1.6115    0.9144 N.2       1 <1>        -0.2332
     12 N2          2.2393    0.2444   -0.0882 N.am      1 <1>        -0.2719
     13 O1          2.4546   -2.0478   -0.3300 O.2       1 <1>        -0.2713
     14 S1          6.1553    0.4298    1.8019 S.3       1 <1>        -0.0734
     15 H1          2.0993    2.3070    0.1460 H         1 <1>         0.1015
     16 H2          4.0947   -3.6767    1.0192 H         1 <1>         0.0316
     17 H3          5.2349   -3.4663   -0.3153 H         1 <1>         0.0316
     18 H4          8.4161   -1.4806    1.8321 H         1 <1>         0.0321
     19 H5          7.4502   -2.0881    3.1853 H         1 <1>         0.0321
     20 H6          5.8349   -4.1718    2.5952 H         1 <1>         0.0270
     21 H7          6.2066   -5.1093    1.1495 H         1 <1>         0.0270
     22 H8          7.8445   -3.3581    0.4339 H         1 <1>         0.0270
     23 H9          8.2632   -4.0287    2.0096 H         1 <1>         0.0270
     24 H10         1.3223    0.2457   -0.5257 H         1 <1>         0.1569
@<TRIPOS>BOND
     1    1    2 1
     2    1    4 2
     3    1    6 1
     4    2    3 2
     5    2    7 1
     6    3    8 1
     7    3   14 1
     8    4   11 1
     9    4   14 1
    10    5   11 2
    11    5   12 1
    12    6   12 am
    13    6   13 2
    14    7    9 1
    15    8   10 1
    16    9   10 1
    17    5   15 1
    18    7   16 1
    19    7   17 1
    20    8   18 1
    21    8   19 1
    22    9   20 1
    23    9   21 1
    24   10   22 1
    25   10   23 1
    26   12   24 1
@<TRIPOS>Similarity
1.2659
@<TRIPOS>ShapeSim
0.8934
@<TRIPOS>PharmSim
0.3725
# END
# Name:		DB04745
# Created and modified by SHAFTS on Mon Feb  6 15:41:12 2012

# 

@<TRIPOS>MOLECULE
DB04745
   18    19     0
SMALL
USER_CHARGE


@<TRIPOS>ATOM
      1 C1          6.0699   -3.9211    1.3960 C.ar      1 <1>        -0.0615
      2 C2          7.3748   -3.4481    1.3967 C.ar      1 <1>        -0.0603
      3 C3          5.0153   -3.0523    1.3953 C.ar      1 <1>        -0.0531
      4 C4          7.6322   -2.0938    1.3965 C.ar      1 <1>        -0.0401
      5 C5          5.2526   -1.6741    1.3961 C.ar      1 <1>        -0.0040
      6 C6          6.5748   -1.1905    1.3963 C.ar      1 <1>         0.0400
      7 C7          4.1462   -0.7151    1.3964 C.2       1 <1>        -0.0478
      8 C8          4.4373    0.6094    1.4015 C.2       1 <1>         0.0016
      9 C9          5.7807    1.0421    1.3963 C.2       1 <1>         0.2400
     10 N1          6.8032    0.1691    1.3965 N.am      1 <1>        -0.2813
     11 O1          6.0198    2.2373    1.3965 O.2       1 <1>        -0.2722
     12 H1          5.8865   -4.9854    1.3958 H         1 <1>         0.0623
     13 H2          8.1970   -4.1482    1.3969 H         1 <1>         0.0623
     14 H3          4.0029   -3.4284    1.3947 H         1 <1>         0.0629
     15 H4          8.6510   -1.7357    1.3964 H         1 <1>         0.0642
     16 H5          3.1212   -1.0550    1.3949 H         1 <1>         0.0631
     17 H6          3.6380    1.3357    1.4019 H         1 <1>         0.0678
     18 H7          7.7148    0.5006    1.3966 H         1 <1>         0.1560
@<TRIPOS>BOND
     1    1    2 ar
     2    1    3 ar
     3    2    4 ar
     4    3    5 ar
     5    4    6 ar
     6    5    6 ar
     7    5    7 1
     8    6   10 1
     9    7    8 2
    10    8    9 1
    11    9   10 am
    12    9   11 2
    13    1   12 1
    14    2   13 1
    15    3   14 1
    16    4   15 1
    17    7   16 1
    18    8   17 1
    19   10   18 1
@<TRIPOS>Similarity
1.2614
@<TRIPOS>ShapeSim
0.8059
@<TRIPOS>PharmSim
0.4555
# END
# Name:		DB00724
# Created and modified by SHAFTS on Mon Feb  6 15:41:12 2012

# 

@<TRIPOS>MOLECULE
DB00724
   34    36     0
SMALL
USER_CHARGE


@<TRIPOS>ATOM
      1 C1          5.9276   -4.0316    1.0274 C.ar      1 <1>        -0.0614
      2 C2          7.1235   -3.7130    1.6654 C.ar      1 <1>        -0.0601
      3 C3          5.0157   -3.0246    0.7345 C.ar      1 <1>        -0.0508
      4 C4          7.4105   -2.3869    2.0126 C.ar      1 <1>        -0.0357
      5 C5          2.8414    0.7846    0.2553 C.2       1 <1>         0.0879
      6 C6          5.3211   -1.6966    1.0911 C.ar      1 <1>         0.0241
      7 C7          6.5246   -1.3499    1.7376 C.ar      1 <1>         0.0745
      8 C8          4.7588    0.6859    1.1842 C.ar      1 <1>         0.1265
      9 C9          4.4518   -0.6228    0.8297 C.ar      1 <1>         0.0729
     10 C10         5.9712    0.9370    1.8203 C.ar      1 <1>         0.1434
     11 C11         0.2119   -0.6500    0.5778 C.3       1 <1>        -0.0613
     12 C12         0.2048   -2.3037   -1.3013 C.3       1 <1>        -0.0613
     13 C13         2.4018   -1.5790   -0.3285 C.3       1 <1>         0.0199
     14 C14         0.9646   -1.1403   -0.6610 C.3       1 <1>        -0.0309
     15 N1          3.7499    1.5464    0.8211 N.2       1 <1>        -0.2355
     16 N2          6.8291   -0.0823    2.0845 N.ar      1 <1>        -0.2309
     17 N3          3.2174   -0.5294    0.2363 N.pl3     1 <1>        -0.2889
     18 N4          6.3174    2.2485    2.1938 N.pl3     1 <1>        -0.3414
     19 H1          5.7098   -5.0612    0.7605 H         1 <1>         0.0623
     20 H2          7.8386   -4.4975    1.8962 H         1 <1>         0.0623
     21 H3          4.0937   -3.3007    0.2377 H         1 <1>         0.0630
     22 H4          8.3557   -2.1728    2.5083 H         1 <1>         0.0645
     23 H5          1.9016    1.1264   -0.1568 H         1 <1>         0.1016
     24 H6          0.1561   -1.4395    1.3351 H         1 <1>         0.0234
     25 H7          0.7091    0.2154    1.0287 H         1 <1>         0.0234
     26 H8         -0.8151   -0.3634    0.3309 H         1 <1>         0.0234
     27 H9          0.1465   -3.1554   -0.6152 H         1 <1>         0.0234
     28 H10        -0.8192   -2.0082   -1.5524 H         1 <1>         0.0234
     29 H11         0.6957   -2.6419   -2.2202 H         1 <1>         0.0234
     30 H12         2.4018   -2.4253    0.3695 H         1 <1>         0.0476
     31 H13         2.9202   -1.9186   -1.2344 H         1 <1>         0.0476
     32 H14         0.9937   -0.3178   -1.3870 H         1 <1>         0.0313
     33 H15         5.7054    3.0050    1.9558 H         1 <1>         0.1442
     34 H16         7.2129    2.4210    2.6080 H         1 <1>         0.1442
@<TRIPOS>BOND
     1    1    2 ar
     2    1    3 ar
     3    2    4 ar
     4    3    6 ar
     5    4    7 ar
     6    5   15 2
     7    5   17 1
     8    6    7 ar
     9    6    9 ar
    10    7   16 ar
    11    8    9 ar
    12    8   10 ar
    13    8   15 1
    14    9   17 1
    15   10   16 ar
    16   10   18 1
    17   11   14 1
    18   12   14 1
    19   13   14 1
    20   13   17 1
    21    1   19 1
    22    2   20 1
    23    3   21 1
    24    4   22 1
    25    5   23 1
    26   11   24 1
    27   11   25 1
    28   11   26 1
    29   12   27 1
    30   12   28 1
    31   12   29 1
    32   13   30 1
    33   13   31 1
    34   14   32 1
    35   18   33 1
    36   18   34 1
@<TRIPOS>Similarity
1.2612
@<TRIPOS>ShapeSim
0.8164
@<TRIPOS>PharmSim
0.4448
# END
# Name:		DB08065
# Created and modified by SHAFTS on Mon Feb  6 15:41:12 2012

# 

@<TRIPOS>MOLECULE
DB08065
   22    24     0
SMALL
USER_CHARGE


@<TRIPOS>ATOM
      1 C1          6.9967   -4.1056    1.5344 C.ar      1 <1>        -0.0600
      2 C2          8.0227   -3.1921    1.7294 C.ar      1 <1>        -0.0602
      3 C3          5.7157   -3.6737    1.2765 C.ar      1 <1>        -0.0344
      4 C4          7.7736   -1.8371    1.6678 C.ar      1 <1>        -0.0385
      5 C5          2.2355    0.6196    0.5552 C.2       1 <1>        -0.0157
      6 C6          1.6903    1.8487    0.4350 C.2       1 <1>         0.0135
      7 C7          5.4450   -2.3034    1.2104 C.ar      1 <1>         0.0867
      8 C8          6.4888   -1.3820    1.4090 C.ar      1 <1>         0.0576
      9 C9          3.6113    0.7811    0.8200 C.2       1 <1>         0.1228
     10 C10         4.5921   -0.3067    1.0239 C.2       1 <1>         0.1501
     11 N1          4.3171   -1.5874    0.9807 N.2       1 <1>        -0.2291
     12 N2          3.8676    2.0736    0.8545 N.2       1 <1>        -0.1811
     13 N3          2.6708    2.7605    0.6143 N.pl3     1 <1>        -0.2451
     14 N4          5.9247   -0.1273    1.2801 N.pl3     1 <1>        -0.2960
     15 H1          7.2051   -5.1641    1.5856 H         1 <1>         0.0623
     16 H2          9.0234   -3.5447    1.9315 H         1 <1>         0.0623
     17 H3          4.9222   -4.3907    1.1260 H         1 <1>         0.0646
     18 H4          8.5770   -1.1316    1.8211 H         1 <1>         0.0643
     19 H5          1.7112   -0.3203    0.4653 H         1 <1>         0.0661
     20 H6          0.6528    2.0651    0.2272 H         1 <1>         0.0807
     21 H7          2.5645    3.7242    0.5820 H         1 <1>         0.1747
     22 H8          6.3865    0.7221    1.3586 H         1 <1>         0.1544
@<TRIPOS>BOND
     1    1    2 ar
     2    1    3 ar
     3    2    4 ar
     4    3    7 ar
     5    4    8 ar
     6    5    6 2
     7    5    9 1
     8    6   13 1
     9    7    8 ar
    10    7   11 1
    11    8   14 1
    12    9   10 1
    13    9   12 2
    14   10   11 2
    15   10   14 1
    16   12   13 1
    17    1   15 1
    18    2   16 1
    19    3   17 1
    20    4   18 1
    21    5   19 1
    22    6   20 1
    23   13   21 1
    24   14   22 1
@<TRIPOS>Similarity
1.2604
@<TRIPOS>ShapeSim
0.8843
@<TRIPOS>PharmSim
0.3762
# END
# Name:		DB01579
# Created and modified by SHAFTS on Mon Feb  6 15:41:12 2012

# 

@<TRIPOS>MOLECULE
DB01579
   32    33     0
SMALL
USER_CHARGE


@<TRIPOS>ATOM
      1 C1          7.1814   -1.2290    1.6249 C.ar      1 <1>        -0.0622
      2 C2          6.9420    0.1348    1.7931 C.ar      1 <1>        -0.0619
      3 C3          6.1293   -2.0878    1.3067 C.ar      1 <1>        -0.0619
      4 C4          5.6504    0.6399    1.6432 C.ar      1 <1>        -0.0565
      5 C5          4.8377   -1.5827    1.1570 C.ar      1 <1>        -0.0565
      6 C6          4.5983   -0.2189    1.3252 C.ar      1 <1>        -0.0209
      7 C7          1.1055    1.6608   -0.2600 C.3       1 <1>        -0.0666
      8 C8          2.0545    2.3324    0.7174 C.3       1 <1>         0.0328
      9 C9          3.2170    0.3204    1.1651 C.3       1 <1>         0.0704
     10 C10         2.3710   -0.4908    0.1599 C.3       1 <1>        -0.0504
     11 C11         2.9995   -0.6034   -1.2334 C.3       1 <1>        -0.0747
     12 C12        -0.0162   -0.5263   -0.7407 C.3       1 <1>        -0.1028
     13 N1          1.0048    0.1953    0.0942 N.4       1 <1>         0.3850
     14 O1          3.3259    1.6827    0.7273 O.3       1 <1>        -0.3770
     15 H1          8.1874   -1.6218    1.7402 H         1 <1>         0.0622
     16 H2          7.7614    0.8039    2.0396 H         1 <1>         0.0623
     17 H3          6.3155   -3.1495    1.1747 H         1 <1>         0.0623
     18 H4          5.4733    1.7039    1.7763 H         1 <1>         0.0626
     19 H5          4.0241   -2.2593    0.9093 H         1 <1>         0.0626
     20 H6          0.1011    2.0901   -0.1909 H         1 <1>         0.0082
     21 H7          1.4636    1.7281   -1.2916 H         1 <1>         0.0082
     22 H8          2.2162    3.3729    0.4187 H         1 <1>         0.0547
     23 H9          1.6428    2.3440    1.7337 H         1 <1>         0.0547
     24 H10         2.7515    0.3039    2.1588 H         1 <1>         0.0638
     25 H11         2.1889   -1.4972    0.5571 H         1 <1>         0.0122
     26 H12         3.1820    0.3915   -1.6316 H         1 <1>         0.0215
     27 H13         2.3235   -1.1385   -1.8953 H         1 <1>         0.0215
     28 H14         3.9407   -1.1431   -1.1654 H         1 <1>         0.0215
     29 H15         0.3313   -0.5165   -1.7754 H         1 <1>         0.0023
     30 H16        -0.0957   -1.5473   -0.3628 H         1 <1>         0.0023
     31 H17        -0.9651    0.0044   -0.6405 H         1 <1>         0.0023
     32 H18         0.6336    0.1588    1.0536 H         1 <1>        -0.0818
@<TRIPOS>BOND
     1    1    2 ar
     2    1    3 ar
     3    2    4 ar
     4    3    5 ar
     5    4    6 ar
     6    5    6 ar
     7    6    9 1
     8    7    8 1
     9    7   13 1
    10    8   14 1
    11    9   10 1
    12    9   14 1
    13   10   11 1
    14   10   13 1
    15   12   13 1
    16    1   15 1
    17    2   16 1
    18    3   17 1
    19    4   18 1
    20    5   19 1
    21    7   20 1
    22    7   21 1
    23    8   22 1
    24    8   23 1
    25    9   24 1
    26   10   25 1
    27   11   26 1
    28   11   27 1
    29   11   28 1
    30   12   29 1
    31   12   30 1
    32   12   31 1
    33   13   32 1
@<TRIPOS>Similarity
1.2587
@<TRIPOS>ShapeSim
0.7931
@<TRIPOS>PharmSim
0.4655
# END
# Name:		DB08718
# Created and modified by SHAFTS on Mon Feb  6 15:41:12 2012

# 

@<TRIPOS>MOLECULE
DB08718
   27    28     0
SMALL
USER_CHARGE


@<TRIPOS>ATOM
      1 C1          5.3127    0.2949   -0.2514 C.ar      1 <1>        -0.0510
      2 C2          4.5111    1.2831   -0.7847 C.ar      1 <1>        -0.0287
      3 C3          7.3316   -2.8962    2.1784 C.2       1 <1>        -0.0512
      4 C4          3.3460   -0.8980    0.4863 C.ar      1 <1>        -0.0210
      5 C5          6.8731   -4.1014    1.7549 C.2       1 <1>        -0.0238
      6 C6          4.7348   -0.8044    0.3856 C.ar      1 <1>        -0.0086
      7 C7          6.6853   -1.7500    1.7685 C.2       1 <1>        -0.0332
      8 C8          3.1314    1.1930   -0.6796 C.ar      1 <1>         0.1013
      9 C9          2.5484    0.0988   -0.0454 C.ar      1 <1>         0.1019
     10 C10         5.5921   -1.8670    0.9527 C.2       1 <1>         0.0222
     11 C11         6.3635    0.0515    3.4418 C.3       1 <1>        -0.0613
     12 C12         7.1663   -0.3944    2.2181 C.3       1 <1>        -0.0296
     13 O1          2.3457    2.1724   -1.2021 O.3       1 <1>        -0.3582
     14 O2          1.1947    0.0109    0.0515 O.3       1 <1>        -0.3582
     15 S1          5.4757   -3.6365    0.7457 S.3       1 <1>        -0.0971
     16 H1          6.3872    0.3696   -0.3307 H         1 <1>         0.0630
     17 H2          4.9597    2.1332   -1.2773 H         1 <1>         0.0651
     18 H3          8.1942   -2.8359    2.8255 H         1 <1>         0.0631
     19 H4          2.8951   -1.7470    0.9788 H         1 <1>         0.0658
     20 H5          7.2549   -5.0879    1.9726 H         1 <1>         0.0701
     21 H6          5.3065    0.1089    3.1817 H         1 <1>         0.0234
     22 H7          6.5005   -0.6686    4.2485 H         1 <1>         0.0234
     23 H8          6.7113    1.0320    3.7672 H         1 <1>         0.0234
     24 H9          8.2233   -0.4519    2.4783 H         1 <1>         0.0313
     25 H10         7.0293    0.3258    1.4116 H         1 <1>         0.0313
     26 H11         2.1527    1.9187   -2.1150 H         1 <1>         0.2183
     27 H12         0.8882   -0.4599   -0.7356 H         1 <1>         0.2183
@<TRIPOS>BOND
     1    1    2 ar
     2    1    6 ar
     3    2    8 ar
     4    3    5 2
     5    3    7 1
     6    4    6 ar
     7    4    9 ar
     8    5   15 1
     9    6   10 1
    10    7   10 2
    11    7   12 1
    12    8    9 ar
    13    8   13 1
    14    9   14 1
    15   10   15 1
    16   11   12 1
    17    1   16 1
    18    2   17 1
    19    3   18 1
    20    4   19 1
    21    5   20 1
    22   11   21 1
    23   11   22 1
    24   11   23 1
    25   12   24 1
    26   12   25 1
    27   13   26 1
    28   14   27 1
@<TRIPOS>Similarity
1.2578
@<TRIPOS>ShapeSim
0.7906
@<TRIPOS>PharmSim
0.4673
# END
# Name:		DB03972
# Created and modified by SHAFTS on Mon Feb  6 15:41:12 2012

# 

@<TRIPOS>MOLECULE
DB03972
   22    23     0
SMALL
USER_CHARGE


@<TRIPOS>ATOM
      1 C1          6.7306   -2.4446    1.7924 C.ar      1 <1>        -0.0617
      2 C2          5.9022   -3.2785    1.0641 C.ar      1 <1>        -0.0596
      3 C3          6.3511   -1.1378    2.0086 C.ar      1 <1>        -0.0529
      4 C4          4.7209   -2.7939    0.5565 C.ar      1 <1>        -0.0314
      5 C5          5.1497   -0.6453    1.5078 C.ar      1 <1>         0.0209
      6 C6          4.3289   -1.4609    0.7627 C.ar      1 <1>         0.0804
      7 C7          4.8335    0.7893    1.8669 C.3       1 <1>         0.1278
      8 C8          2.4600   -0.0983    0.8352 C.3       1 <1>         0.0776
      9 N1          1.1898    0.1624    0.1447 N.4       1 <1>         0.4029
     10 O1          3.1563   -1.1389    0.1772 O.3       1 <1>        -0.3506
     11 O2          4.4156    0.8585    3.2318 O.3       1 <1>        -0.3778
     12 S1          3.5002    1.3954    0.7930 S.3       1 <1>        -0.1136
     13 H1          7.6655   -2.8137    2.1874 H         1 <1>         0.0623
     14 H2          6.1828   -4.3077    0.8951 H         1 <1>         0.0623
     15 H3          6.9969   -0.4846    2.5766 H         1 <1>         0.0628
     16 H4          4.0804   -3.4516   -0.0124 H         1 <1>         0.0650
     17 H5          5.7223    1.4042    1.7261 H         1 <1>         0.0774
     18 H6          2.2650   -0.3818    1.8694 H         1 <1>         0.0506
     19 H7          1.3741    0.4143   -0.8148 H         1 <1>        -0.0848
     20 H8          0.7063    0.9194    0.6043 H         1 <1>        -0.0848
     21 H9          0.6165   -0.6676    0.1705 H         1 <1>        -0.0848
     22 H10         4.2244    1.7878    3.4187 H         1 <1>         0.2121
@<TRIPOS>BOND
     1    1    2 ar
     2    1    3 ar
     3    2    4 ar
     4    3    5 ar
     5    4    6 ar
     6    5    6 ar
     7    5    7 1
     8    6   10 1
     9    7   11 1
    10    7   12 1
    11    8    9 1
    12    8   10 1
    13    8   12 1
    14    1   13 1
    15    2   14 1
    16    3   15 1
    17    4   16 1
    18    7   17 1
    19    8   18 1
    20    9   19 1
    21    9   20 1
    22    9   21 1
    23   11   22 1
@<TRIPOS>Similarity
1.2547
@<TRIPOS>ShapeSim
0.8231
@<TRIPOS>PharmSim
0.4316
# END
# Name:		DB07604
# Created and modified by SHAFTS on Mon Feb  6 15:41:12 2012

# 

@<TRIPOS>MOLECULE
DB07604
   45    49     0
SMALL
USER_CHARGE


@<TRIPOS>ATOM
      1 C1          6.9480   -3.5677    1.8040 C.ar      1 <1>        -0.0601
      2 C2          5.7121   -3.8756    1.2361 C.ar      1 <1>        -0.0583
      3 C3          7.4376   -2.2772    1.9520 C.ar      1 <1>        -0.0402
      4 C4          5.5567    0.6309    0.8231 C.2       1 <1>        -0.0031
      5 C5          5.4006   -1.5864    0.9186 C.ar      1 <1>         0.0036
      6 C6          4.8999   -2.8867    0.7844 C.ar      1 <1>        -0.0383
      7 C7          4.7376   -0.3452    0.4786 C.2       1 <1>        -0.0225
      8 C8          6.6288   -1.2388    1.4918 C.ar      1 <1>         0.0378
      9 C9          1.3102    0.8672    2.1422 C.2       1 <1>         0.0703
     10 C10         0.4895    0.0920    1.3567 C.2       1 <1>         0.0641
     11 C11         2.5287    1.1897    1.3954 C.2       1 <1>         0.1546
     12 C12         1.0136    1.3007    3.5081 C.2       1 <1>         0.1633
     13 C13         3.5190   -3.0280    0.1867 C.3       1 <1>        -0.0251
     14 C14         3.4159   -0.5138   -0.1913 C.3       1 <1>        -0.0163
     15 C15         2.3556    0.5525    0.0365 C.3       1 <1>         0.0035
     16 C16         2.7648   -1.7544    0.4917 C.3       1 <1>        -0.0403
     17 C17         1.2972   -1.6351   -0.0068 C.3       1 <1>        -0.0586
     18 C18         2.0042    2.1516    4.2604 C.3       1 <1>        -0.0008
     19 C19         0.3528   -2.4275    0.8994 C.3       1 <1>        -0.0739
     20 C20         1.1793   -2.1077   -1.4572 C.3       1 <1>        -0.0739
     21 N1          6.6929    0.1205    1.4316 N.pl3     1 <1>        -0.3203
     22 N2          1.0537   -0.1657    0.1091 N.4       1 <1>         0.4192
     23 O1         -0.7100   -0.3620    1.7452 O.3       1 <1>        -0.2176
     24 O2          3.4775    1.8382    1.7853 O.2       1 <1>        -0.2957
     25 O3         -0.0300    0.9752    4.0348 O.2       1 <1>        -0.2943
     26 H1          7.5632   -4.3850    2.1504 H         1 <1>         0.0623
     27 H2          5.3996   -4.9063    1.1558 H         1 <1>         0.0626
     28 H3          8.4001   -2.0863    2.4030 H         1 <1>         0.0642
     29 H4          5.3681    1.6808    0.6539 H         1 <1>         0.0792
     30 H5          3.5941   -3.1653   -0.8921 H         1 <1>         0.0319
     31 H6          3.0062   -3.8790    0.6348 H         1 <1>         0.0319
     32 H7          3.5461   -0.6939   -1.2585 H         1 <1>         0.0343
     33 H8          2.3545    1.2976   -0.7590 H         1 <1>         0.0193
     34 H9          2.7704   -1.5958    1.5701 H         1 <1>         0.0298
     35 H10         1.7932    3.2048    4.0749 H         1 <1>         0.0314
     36 H11         1.9219    1.9472    5.3278 H         1 <1>         0.0314
     37 H12         3.0139    1.9184    3.9225 H         1 <1>         0.0314
     38 H13         0.4127   -2.0381    1.9157 H         1 <1>         0.0217
     39 H14        -0.6690   -2.3305    0.5327 H         1 <1>         0.0217
     40 H15         0.6421   -3.4784    0.8953 H         1 <1>         0.0217
     41 H16         1.4914   -3.1497   -1.5263 H         1 <1>         0.0217
     42 H17         0.1442   -2.0158   -1.7862 H         1 <1>         0.0217
     43 H18         1.8183   -1.4941   -2.0923 H         1 <1>         0.0217
     44 H19         7.4292    0.6555    1.7671 H         1 <1>         0.1522
     45 H20         0.4399    0.1490   -0.6273 H         1 <1>        -0.0693
@<TRIPOS>BOND
     1    1    2 ar
     2    1    3 ar
     3    2    6 ar
     4    3    8 ar
     5    4    7 2
     6    4   21 1
     7    5    6 ar
     8    5    7 1
     9    5    8 ar
    10    6   13 1
    11    7   14 1
    12    8   21 1
    13    9   10 2
    14    9   11 1
    15    9   12 1
    16   10   22 1
    17   10   23 1
    18   11   15 1
    19   11   24 2
    20   12   18 1
    21   12   25 2
    22   13   16 1
    23   14   15 1
    24   14   16 1
    25   15   22 1
    26   16   17 1
    27   17   19 1
    28   17   20 1
    29   17   22 1
    30    1   26 1
    31    2   27 1
    32    3   28 1
    33    4   29 1
    34   13   30 1
    35   13   31 1
    36   14   32 1
    37   15   33 1
    38   16   34 1
    39   18   35 1
    40   18   36 1
    41   18   37 1
    42   19   38 1
    43   19   39 1
    44   19   40 1
    45   20   41 1
    46   20   42 1
    47   20   43 1
    48   21   44 1
    49   22   45 1
@<TRIPOS>Similarity
1.2544
@<TRIPOS>ShapeSim
0.6740
@<TRIPOS>PharmSim
0.5804
# END
# Name:		DB07435
# Created and modified by SHAFTS on Mon Feb  6 15:41:12 2012

# 

@<TRIPOS>MOLECULE
DB07435
   39    43     0
SMALL
USER_CHARGE


@<TRIPOS>ATOM
      1 C1          9.7215   -3.0467    1.3885 C.ar      1 <1>        -0.0610
      2 C2          8.5725   -3.8061    1.4957 C.ar      1 <1>        -0.0543
      3 C3          9.6704   -1.6789    1.1987 C.ar      1 <1>        -0.0543
      4 C4          6.1173   -3.9371    1.5171 C.ar      1 <1>        -0.0537
      5 C5          8.3410    0.3699    0.9153 C.ar      1 <1>        -0.0537
      6 C6          4.9133   -3.3258    1.4344 C.ar      1 <1>        -0.0537
      7 C7          7.1365    0.9793    0.8327 C.ar      1 <1>        -0.0534
      8 C8          3.5940   -1.2701    1.1538 C.ar      1 <1>        -0.0481
      9 C9          7.3186   -3.1950    1.4127 C.ar      1 <1>        -0.0171
     10 C10         8.4367   -1.0297    1.1104 C.ar      1 <1>        -0.0171
     11 C11         4.8204   -1.9261    1.2415 C.ar      1 <1>        -0.0167
     12 C12         5.9365    0.2332    0.9402 C.ar      1 <1>        -0.0134
     13 C13         7.2548   -1.7969    1.2191 C.ar      1 <1>        -0.0027
     14 C14         6.0038   -1.1620    1.1337 C.ar      1 <1>        -0.0024
     15 C15         3.5325    0.1060    0.9658 C.ar      1 <1>        -0.0123
     16 C16         4.6818    0.8571    0.8548 C.ar      1 <1>        -0.0315
     17 C17         4.6609    2.3480    0.6376 C.3       1 <1>         0.0020
     18 C18         2.1581    0.7241    0.9004 C.3       1 <1>         0.1078
     19 C19         3.2954    2.9270    1.0003 C.3       1 <1>         0.0869
     20 C20         2.2195    2.1135    0.2712 C.3       1 <1>         0.1102
     21 O1          1.3038   -0.1104    0.1159 O.3       1 <1>        -0.3855
     22 O2          3.2270    4.2939    0.5895 O.3       1 <1>        -0.3899
     23 O3          2.5568    2.0006   -1.1128 O.3       1 <1>        -0.3873
     24 H1         10.6831   -3.5338    1.4551 H         1 <1>         0.0623
     25 H2          8.6435   -4.8741    1.6393 H         1 <1>         0.0629
     26 H3         10.5855   -1.1110    1.1188 H         1 <1>         0.0629
     27 H4          6.1628   -5.0061    1.6648 H         1 <1>         0.0629
     28 H5          9.2425    0.9587    0.8317 H         1 <1>         0.0629
     29 H6          4.0109   -3.9134    1.5161 H         1 <1>         0.0629
     30 H7          7.0885    2.0479    0.6834 H         1 <1>         0.0629
     31 H8          2.6790   -1.8383    1.2333 H         1 <1>         0.0633
     32 H9          5.4249    2.8124    1.2610 H         1 <1>         0.0344
     33 H10         4.8746    2.5613   -0.4098 H         1 <1>         0.0344
     34 H11         1.7525    0.8045    1.9090 H         1 <1>         0.0681
     35 H12         3.1414    2.8582    2.0772 H         1 <1>         0.0632
     36 H13         1.2529    2.6066    0.3751 H         1 <1>         0.0659
     37 H14         1.2742   -0.9716    0.5548 H         1 <1>         0.2110
     38 H15         3.9194    4.7658    1.0720 H         1 <1>         0.2106
     39 H16         1.8637    1.4683   -1.5269 H         1 <1>         0.2107
@<TRIPOS>BOND
     1    1    2 ar
     2    1    3 ar
     3    2    9 ar
     4    3   10 ar
     5    4    6 ar
     6    4    9 ar
     7    5    7 ar
     8    5   10 ar
     9    6   11 ar
    10    7   12 ar
    11    8   11 ar
    12    8   15 ar
    13    9   13 ar
    14   10   13 ar
    15   11   14 ar
    16   12   14 ar
    17   12   16 ar
    18   13   14 ar
    19   15   16 ar
    20   15   18 1
    21   16   17 1
    22   17   19 1
    23   18   20 1
    24   18   21 1
    25   19   20 1
    26   19   22 1
    27   20   23 1
    28    1   24 1
    29    2   25 1
    30    3   26 1
    31    4   27 1
    32    5   28 1
    33    6   29 1
    34    7   30 1
    35    8   31 1
    36   17   32 1
    37   17   33 1
    38   18   34 1
    39   19   35 1
    40   20   36 1
    41   21   37 1
    42   22   38 1
    43   23   39 1
@<TRIPOS>Similarity
1.2541
@<TRIPOS>ShapeSim
0.7944
@<TRIPOS>PharmSim
0.4598
# END
# Name:		DB08667
# Created and modified by SHAFTS on Mon Feb  6 15:41:12 2012

# 

@<TRIPOS>MOLECULE
DB08667
   25    26     0
SMALL
USER_CHARGE


@<TRIPOS>ATOM
      1 C1          7.1915   -1.7525    0.8394 C.ar      1 <1>         0.0000
      2 C2          5.0809   -2.7583    1.4721 C.ar      1 <1>         0.0000
      3 C3          7.8594   -2.8124    1.4114 C.ar      1 <1>         0.0000
      4 C4          5.7619   -3.8143    2.0360 C.ar      1 <1>         0.0000
      5 C5          5.7916   -1.7156    0.8645 C.ar      1 <1>         0.0000
      6 C6          7.1489   -3.8418    2.0120 C.ar      1 <1>         0.0000
      7 C7          3.1737    0.3975   -0.2326 C.2       1 <1>         0.0000
      8 C8          3.7041    1.4901   -0.8679 C.2       1 <1>         0.0000
      9 C9          1.6964    0.6115   -0.3046 C.cat     1 <1>         0.0000
     10 N1          2.7001    2.2748   -1.2717 N.2       1 <1>         0.0000
     11 N2          1.5475    1.8050   -0.9635 N.2       1 <1>         0.0000
     12 N3          5.1246   -0.6702    0.3012 N.2       1 <1>         0.0000
     13 N4          3.8352   -0.6392    0.3261 N.2       1 <1>         0.0000
     14 N5          0.7595   -0.1593    0.1620 N.pl3     1 <1>         0.0000
     15 N6          5.0657    1.7417   -1.0609 N.4       1 <1>         0.0000
     16 F1          7.8106   -4.8785    2.5712 F         1 <1>         0.0000
     17 H1          7.7457   -0.9515    0.3728 H         1 <1>         0.0000
     18 H2          4.0014   -2.7359    1.4954 H         1 <1>         0.0000
     19 H3          8.9388   -2.8423    1.3927 H         1 <1>         0.0000
     20 H4          5.2151   -4.6191    2.5048 H         1 <1>         0.0000
     21 H5         -0.1717    0.0925    0.0592 H         1 <1>         0.0000
     22 H6          0.9915   -0.9861    0.6129 H         1 <1>         0.0000
     23 H7          5.3621    1.3356   -1.9357 H         1 <1>         0.0000
     24 H8          5.2240    2.7380   -1.0818 H         1 <1>         0.0000
     25 H9          5.5937    1.3330   -0.3044 H         1 <1>         0.0000
@<TRIPOS>BOND
     1    1    3 ar
     2    1    5 ar
     3    2    4 ar
     4    2    5 ar
     5    3    6 ar
     6    4    6 ar
     7    5   12 1
     8    6   16 1
     9    7    8 2
    10    7    9 1
    11    7   13 1
    12    8   10 1
    13    8   15 1
    14    9   11 1
    15    9   14 2
    16   10   11 2
    17   12   13 2
    18    1   17 1
    19    2   18 1
    20    3   19 1
    21    4   20 1
    22   14   21 1
    23   14   22 1
    24   15   23 1
    25   15   24 1
    26   15   25 1
@<TRIPOS>Similarity
1.2518
@<TRIPOS>ShapeSim
0.7727
@<TRIPOS>PharmSim
0.4791
# END
# Name:		DB03100
# Created and modified by SHAFTS on Mon Feb  6 15:41:12 2012

# 

@<TRIPOS>MOLECULE
DB03100
   17    18     0
SMALL
USER_CHARGE


@<TRIPOS>ATOM
      1 C1          6.6864   -0.2634    2.0568 C.ar      1 <1>        -0.0493
      2 C2          5.6556    0.5185    1.6495 C.ar      1 <1>        -0.0327
      3 C3          4.4786   -1.3270    0.6509 C.ar      1 <1>        -0.0055
      4 C4          7.5160   -2.7057    2.0268 C.2       1 <1>         0.0207
      5 C5          6.6653   -1.6458    1.7732 C.ar      1 <1>         0.0173
      6 C6          5.5173   -2.2005    1.0390 C.ar      1 <1>         0.0918
      7 C7          4.5656   -0.0074    0.9521 C.ar      1 <1>         0.1198
      8 N1          5.7406   -3.4952    0.9048 N.2       1 <1>        -0.1841
      9 N2          6.9635   -3.8105    1.5080 N.pl3     1 <1>        -0.2446
     10 N3          3.4724    0.8994    0.5355 N.pl3     1 <1>         0.0921
     11 O1          2.5117    0.4575   -0.0691 O.2       1 <1>        -0.1380
     12 O2          3.5310    2.0865    0.8017 O.2       1 <1>        -0.1380
     13 H1          7.5176    0.1688    2.5941 H         1 <1>         0.0631
     14 H2          5.6783    1.5755    1.8701 H         1 <1>         0.0645
     15 H3          3.6214   -1.7067    0.1148 H         1 <1>         0.0669
     16 H4          8.4592   -2.6523    2.5502 H         1 <1>         0.0813
     17 H5          7.3538   -4.6979    1.5446 H         1 <1>         0.1747
@<TRIPOS>BOND
     1    1    2 ar
     2    1    5 ar
     3    2    7 ar
     4    3    6 ar
     5    3    7 ar
     6    4    5 2
     7    4    9 1
     8    5    6 ar
     9    6    8 2
    10    7   10 1
    11    8    9 1
    12   10   11 2
    13   10   12 2
    14    1   13 1
    15    2   14 1
    16    3   15 1
    17    4   16 1
    18    9   17 1
@<TRIPOS>Similarity
1.2487
@<TRIPOS>ShapeSim
0.8709
@<TRIPOS>PharmSim
0.3778
# END
# Name:		DB00730
# Created and modified by SHAFTS on Mon Feb  6 15:41:12 2012

# 

@<TRIPOS>MOLECULE
DB00730
   21    23     0
SMALL
USER_CHARGE


@<TRIPOS>ATOM
      1 C1          7.0075   -4.0797    1.5404 C.ar      1 <1>        -0.0600
      2 C2          8.0242   -3.1531    1.7199 C.ar      1 <1>        -0.0602
      3 C3          5.7192   -3.6643    1.2907 C.ar      1 <1>        -0.0344
      4 C4          7.7585   -1.8013    1.6510 C.ar      1 <1>        -0.0385
      5 C5          2.2404    0.4703    0.5800 C.2       1 <1>         0.0061
      6 C6          3.0375    2.9964    0.6849 C.2       1 <1>         0.0648
      7 C7          5.4321   -2.2979    1.2172 C.ar      1 <1>         0.0867
      8 C8          6.4665   -1.3634    1.3999 C.ar      1 <1>         0.0576
      9 C9          3.5601    0.7616    0.8199 C.2       1 <1>         0.1106
     10 C10         4.5537   -0.3117    1.0231 C.2       1 <1>         0.1490
     11 N1          3.9124    2.0389    0.8636 N.2       1 <1>        -0.2454
     12 N2          4.2923   -1.5968    0.9974 N.2       1 <1>        -0.2291
     13 N3          5.8857   -0.1150    1.2724 N.pl3     1 <1>        -0.2960
     14 S1          1.5633    2.1167    0.4262 S.3       1 <1>        -0.0836
     15 H1          7.2285   -5.1354    1.5974 H         1 <1>         0.0623
     16 H2          9.0307   -3.4925    1.9152 H         1 <1>         0.0623
     17 H3          4.9327   -4.3914    1.1523 H         1 <1>         0.0646
     18 H4          8.5548   -1.0854    1.7913 H         1 <1>         0.0643
     19 H5          1.7478   -0.4879    0.5054 H         1 <1>         0.0725
     20 H6          3.1936    4.0650    0.6953 H         1 <1>         0.0920
     21 H7          6.3376    0.7402    1.3455 H         1 <1>         0.1544
@<TRIPOS>BOND
     1    1    2 ar
     2    1    3 ar
     3    2    4 ar
     4    3    7 ar
     5    4    8 ar
     6    5    9 2
     7    5   14 1
     8    6   11 2
     9    6   14 1
    10    7    8 ar
    11    7   12 1
    12    8   13 1
    13    9   10 1
    14    9   11 1
    15   10   12 2
    16   10   13 1
    17    1   15 1
    18    2   16 1
    19    3   17 1
    20    4   18 1
    21    5   19 1
    22    6   20 1
    23   13   21 1
@<TRIPOS>Similarity
1.2476
@<TRIPOS>ShapeSim
0.8830
@<TRIPOS>PharmSim
0.3646
# END
# Name:		DB04840
# Created and modified by SHAFTS on Mon Feb  6 15:41:12 2012

# 

@<TRIPOS>MOLECULE
DB04840
   27    28     0
SMALL
USER_CHARGE


@<TRIPOS>ATOM
      1 C1          7.1426   -3.2491    1.8871 C.ar      1 <1>         0.0000
      2 C2          6.4364   -3.8777    0.8788 C.ar      1 <1>         0.0000
      3 C3          6.7621   -1.9926    2.3107 C.ar      1 <1>         0.0000
      4 C4          5.3580   -3.2410    0.2992 C.ar      1 <1>         0.0000
      5 C5          5.6745   -1.3506    1.7316 C.ar      1 <1>         0.0000
      6 C6          4.9778   -1.9744    0.7206 C.ar      1 <1>         0.0000
      7 C7          2.0780    0.1363    1.0212 C.cat     1 <1>         0.0000
      8 C8          5.3107    0.0146    2.2528 C.3       1 <1>         0.0000
      9 C9          3.8069   -1.3243    0.0274 C.3       1 <1>         0.0000
     10 C10         4.4608    0.7761    1.2370 C.3       1 <1>         0.0000
     11 N1          3.3964   -0.1272    0.7692 N.pl3     1 <1>         0.0000
     12 N2          1.1517   -0.1762    0.1165 N.pl3     1 <1>         0.0000
     13 N3          1.7206    0.7052    2.1712 N.pl3     1 <1>         0.0000
     14 H1          7.9899   -3.7404    2.3422 H         1 <1>         0.0000
     15 H2          6.7276   -4.8630    0.5458 H         1 <1>         0.0000
     16 H3          7.3146   -1.5035    3.0994 H         1 <1>         0.0000
     17 H4          4.8054   -3.7321   -0.4881 H         1 <1>         0.0000
     18 H5          6.2229    0.5776    2.4508 H         1 <1>         0.0000
     19 H6          4.7490   -0.0938    3.1807 H         1 <1>         0.0000
     20 H7          2.9750   -2.0272   -0.0158 H         1 <1>         0.0000
     21 H8          4.0957   -1.0423   -0.9851 H         1 <1>         0.0000
     22 H9          5.0803    1.0835    0.3944 H         1 <1>         0.0000
     23 H10         4.0186    1.6532    1.7097 H         1 <1>         0.0000
     24 H11         1.4160   -0.5449   -0.7409 H         1 <1>         0.0000
     25 H12         0.2128   -0.0349    0.3149 H         1 <1>         0.0000
     26 H13         0.7979    0.9665    2.3168 H         1 <1>         0.0000
     27 H14         2.3830    0.8583    2.8631 H         1 <1>         0.0000
@<TRIPOS>BOND
     1    1    2 ar
     2    1    3 ar
     3    2    4 ar
     4    3    5 ar
     5    4    6 ar
     6    5    6 ar
     7    5    8 1
     8    6    9 1
     9    7   11 1
    10    7   12 1
    11    7   13 2
    12    8   10 1
    13    9   11 1
    14   10   11 1
    15    1   14 1
    16    2   15 1
    17    3   16 1
    18    4   17 1
    19    8   18 1
    20    8   19 1
    21    9   20 1
    22    9   21 1
    23   10   22 1
    24   10   23 1
    25   12   24 1
    26   12   25 1
    27   13   26 1
    28   13   27 1
@<TRIPOS>Similarity
1.2403
@<TRIPOS>ShapeSim
0.7978
@<TRIPOS>PharmSim
0.4426
# END
# Name:		DB04235
# Created and modified by SHAFTS on Mon Feb  6 15:41:12 2012

# 

@<TRIPOS>MOLECULE
DB04235
   22    21     0
SMALL
USER_CHARGE


@<TRIPOS>ATOM
      1 C1          3.3339    1.4018   -0.2698 C.2       1 <1>         0.0000
      2 C2          6.6943   -3.6834    1.2489 C.3       1 <1>         0.0000
      3 C3          3.8528    0.0118   -0.5337 C.3       1 <1>         0.0000
      4 C4          6.0683   -2.3255    1.5732 C.3       1 <1>         0.0000
      5 C5          4.6457   -0.4755    0.6807 C.3       1 <1>         0.0000
      6 C6          5.1727   -1.8868    0.4129 C.3       1 <1>         0.0000
      7 N1          4.0420   -2.8162    0.2885 N.4       1 <1>         0.0000
      8 O1          2.6721    1.9766   -1.1173 O.co2     1 <1>        -0.5000
      9 O2          3.5757    1.9517    0.7912 O.co2     1 <1>        -0.5000
     10 H1          7.3324   -3.9960    2.0755 H         1 <1>         0.0000
     11 H2          5.9055   -4.4207    1.0998 H         1 <1>         0.0000
     12 H3          7.2909   -3.6008    0.3405 H         1 <1>         0.0000
     13 H4          4.5018    0.0265   -1.4092 H         1 <1>         0.0000
     14 H5          3.0144   -0.6609   -0.7140 H         1 <1>         0.0000
     15 H6          5.4716   -2.4081    2.4816 H         1 <1>         0.0000
     16 H7          6.8571   -1.5881    1.7223 H         1 <1>         0.0000
     17 H8          3.9967   -0.4901    1.5564 H         1 <1>         0.0000
     18 H9          5.4842    0.1972    0.8611 H         1 <1>         0.0000
     19 H10         5.7490   -1.8899   -0.5122 H         1 <1>         0.0000
     20 H11         3.5084   -2.8133    1.1449 H         1 <1>         0.0000
     21 H12         3.4514   -2.5268   -0.4767 H         1 <1>         0.0000
     22 H13         4.3894   -3.7469    0.1118 H         1 <1>         0.0000
@<TRIPOS>BOND
     1    1    3 1
     2    1    8 1
     3    1    9 2
     4    2    4 1
     5    3    5 1
     6    4    6 1
     7    5    6 1
     8    6    7 1
     9    2   10 1
    10    2   11 1
    11    2   12 1
    12    3   13 1
    13    3   14 1
    14    4   15 1
    15    4   16 1
    16    5   17 1
    17    5   18 1
    18    6   19 1
    19    7   20 1
    20    7   21 1
    21    7   22 1
@<TRIPOS>Similarity
1.2389
@<TRIPOS>ShapeSim
0.6741
@<TRIPOS>PharmSim
0.5649
# END
# Name:		DB00311
# Created and modified by SHAFTS on Mon Feb  6 15:41:12 2012

# 

@<TRIPOS>MOLECULE
DB00311
   26    27     0
SMALL
USER_CHARGE


@<TRIPOS>ATOM
      1 C1          4.6633   -3.1512    1.4144 C.ar      1 <1>        -0.0326
      2 C2          5.9195   -3.5851    1.8477 C.ar      1 <1>        -0.0296
      3 C3          6.7311   -1.3011    1.9046 C.ar      1 <1>        -0.0155
      4 C4          4.4269   -1.7730    1.2201 C.ar      1 <1>         0.0800
      5 C5          6.9385   -2.6704    2.0891 C.ar      1 <1>         0.0762
      6 C6          5.4668   -0.8723    1.4693 C.ar      1 <1>         0.0434
      7 C7          3.3789    0.1045    0.7268 C.2       1 <1>         0.1821
      8 C8          9.8316   -4.2940    1.2740 C.3       1 <1>        -0.0410
      9 C9          8.5572   -4.4128    2.0823 C.3       1 <1>         0.0505
     10 N1          3.2376   -1.1985    0.7958 N.2       1 <1>        -0.2246
     11 N2          0.8385    0.1691   -0.0776 N.pl3     1 <1>        -0.3018
     12 O1          1.7971    2.0639    1.3840 O.2       1 <1>        -0.4746
     13 O2          2.5466    1.8560   -1.0123 O.2       1 <1>        -0.4746
     14 O3          8.1565   -3.1133    2.5113 O.3       1 <1>        -0.3463
     15 S1          4.9122    0.7299    1.1557 S.3       1 <1>        -0.0511
     16 S2          2.1429    1.2279    0.2405 S.o2      1 <1>        -0.1468
     17 H1          3.8744   -3.8745    1.2286 H         1 <1>         0.0647
     18 H2          6.0931   -4.6484    1.9951 H         1 <1>         0.0651
     19 H3          7.5278   -0.5877    2.0934 H         1 <1>         0.0663
     20 H4          9.6768   -3.6675    0.3912 H         1 <1>         0.0254
     21 H5         10.6338   -3.8597    1.8795 H         1 <1>         0.0254
     22 H6         10.1764   -5.2816    0.9501 H         1 <1>         0.0254
     23 H7          8.7189   -5.0405    2.9637 H         1 <1>         0.0569
     24 H8          7.7565   -4.8461    1.4756 H         1 <1>         0.0569
     25 H9          0.0494    0.1636    0.5803 H         1 <1>         0.1602
     26 H10         0.5640    0.0212   -1.0564 H         1 <1>         0.1602
@<TRIPOS>BOND
     1    1    2 ar
     2    1    4 ar
     3    2    5 ar
     4    3    5 ar
     5    3    6 ar
     6    4    6 ar
     7    4   10 1
     8    5   14 1
     9    6   15 1
    10    7   10 2
    11    7   15 1
    12    7   16 1
    13    8    9 1
    14    9   14 1
    15   11   16 1
    16   12   16 2
    17   13   16 2
    18    1   17 1
    19    2   18 1
    20    3   19 1
    21    8   20 1
    22    8   21 1
    23    8   22 1
    24    9   23 1
    25    9   24 1
    26   11   25 1
    27   11   26 1
@<TRIPOS>Similarity
1.2375
@<TRIPOS>ShapeSim
0.8392
@<TRIPOS>PharmSim
0.3982
# END
# Name:		DB03177
# Created and modified by SHAFTS on Mon Feb  6 15:41:12 2012

# 

@<TRIPOS>MOLECULE
DB03177
   18    19     0
SMALL
USER_CHARGE


@<TRIPOS>ATOM
      1 C1          5.9156   -3.9298    1.3961 C.ar      1 <1>        -0.0570
      2 C2          4.8803   -2.9865    1.3960 C.ar      1 <1>        -0.0342
      3 C3          7.6065   -2.1758    1.3964 C.ar      1 <1>        -0.0356
      4 C4          5.2280    0.5131    1.3964 C.2       1 <1>         0.0851
      5 C5          7.2537   -3.5295    1.3964 C.ar      1 <1>        -0.0491
      6 C6          5.2165   -1.6222    1.3963 C.ar      1 <1>         0.0858
      7 C7          6.5589   -1.2541    1.3964 C.ar      1 <1>         0.0573
      8 C8          8.3302   -4.5648    1.3964 C.3       1 <1>        -0.0397
      9 N1          4.4046   -0.5112    1.3961 N.2       1 <1>        -0.2394
     10 N2          6.5366    0.1170    1.3965 N.pl3     1 <1>        -0.3040
     11 H1          5.6626   -4.9877    1.3958 H         1 <1>         0.0626
     12 H2          3.8436   -3.3076    1.3958 H         1 <1>         0.0646
     13 H3          8.6425   -1.8546    1.3967 H         1 <1>         0.0646
     14 H4          4.9453    1.5561    1.3963 H         1 <1>         0.1014
     15 H5          8.6040   -4.8280    0.3681 H         1 <1>         0.0280
     16 H6          9.2266   -4.2045    1.9157 H         1 <1>         0.0280
     17 H7          8.0046   -5.4749    1.9154 H         1 <1>         0.0280
     18 H8          7.3437    0.7263    1.3966 H         1 <1>         0.1537
@<TRIPOS>BOND
     1    1    2 ar
     2    1    5 ar
     3    2    6 ar
     4    3    5 ar
     5    3    7 ar
     6    4    9 2
     7    4   10 1
     8    5    8 1
     9    6    7 ar
    10    6    9 1
    11    7   10 1
    12    1   11 1
    13    2   12 1
    14    3   13 1
    15    4   14 1
    16    8   15 1
    17    8   16 1
    18    8   17 1
    19   10   18 1
@<TRIPOS>Similarity
1.2370
@<TRIPOS>ShapeSim
0.7964
@<TRIPOS>PharmSim
0.4406
# END
# Name:		DB02087
# Created and modified by SHAFTS on Mon Feb  6 15:41:12 2012

# 

@<TRIPOS>MOLECULE
DB02087
   17    17     0
SMALL
USER_CHARGE


@<TRIPOS>ATOM
      1 C1          5.9228   -0.8714    2.1369 C.ar      1 <1>         0.0097
      2 C2          4.3115    0.6886    1.2889 C.ar      1 <1>        -0.0035
      3 C3          4.4139   -1.5298    0.3936 C.ar      1 <1>        -0.0035
      4 C4          5.3501    0.3886    2.1543 C.ar      1 <1>         0.1275
      5 C5          5.4563   -1.8303    1.2541 C.ar      1 <1>         0.1275
      6 C6          3.8467   -0.2695    0.4081 C.ar      1 <1>         0.0598
      7 N1          1.1106   -0.2606    0.0831 N.pl3     1 <1>        -0.3036
      8 O1          2.6344   -0.8127   -1.7645 O.2       1 <1>        -0.4766
      9 O2          2.5304    1.5285   -0.8244 O.2       1 <1>        -0.4766
     10 F1          5.8047    1.3255    3.0149 F         1 <1>        -0.2068
     11 F2          6.0146   -3.0604    1.2357 F         1 <1>        -0.2068
     12 S1          2.5251    0.1136   -0.6925 S.o2      1 <1>        -0.1704
     13 H1          6.7331   -1.1062    2.8112 H         1 <1>         0.0684
     14 H2          3.8648    1.6718    1.3021 H         1 <1>         0.0673
     15 H3          4.0497   -2.2778   -0.2950 H         1 <1>         0.0673
     16 H4          0.5087   -0.9193   -0.2972 H         1 <1>         0.1601
     17 H5          0.8861    0.1760    0.9197 H         1 <1>         0.1601
@<TRIPOS>BOND
     1    1    4 ar
     2    1    5 ar
     3    2    4 ar
     4    2    6 ar
     5    3    5 ar
     6    3    6 ar
     7    4   10 1
     8    5   11 1
     9    6   12 1
    10    7   12 1
    11    8   12 2
    12    9   12 2
    13    1   13 1
    14    2   14 1
    15    3   15 1
    16    7   16 1
    17    7   17 1
@<TRIPOS>Similarity
1.2363
@<TRIPOS>ShapeSim
0.7326
@<TRIPOS>PharmSim
0.5037
# END
# Name:		DB01754
# Created and modified by SHAFTS on Mon Feb  6 15:41:12 2012

# 

@<TRIPOS>MOLECULE
DB01754
   22    23     0
SMALL
USER_CHARGE


@<TRIPOS>ATOM
      1 C1          6.1090   -3.8781    1.3206 C.ar      1 <1>        -0.0614
      2 C2          7.0532   -2.9007    1.5842 C.ar      1 <1>        -0.0603
      3 C3          4.8043   -3.5078    0.9946 C.ar      1 <1>        -0.0502
      4 C4          6.6907   -1.5567    1.5213 C.ar      1 <1>        -0.0398
      5 C5          4.4064   -2.1500    0.9228 C.ar      1 <1>         0.0326
      6 C6          5.3758   -1.1655    1.1934 C.ar      1 <1>         0.0456
      7 C7          2.9823   -1.7926    0.5656 C.2       1 <1>         0.1580
      8 C8          2.7310   -0.4622    0.5300 C.2       1 <1>         0.1700
      9 C9          3.7282    0.6110    0.8096 C.2       1 <1>         0.2755
     10 C10         6.0223    1.2326    1.4157 C.3       1 <1>         0.0084
     11 N1          5.0156    0.2118    1.1322 N.am      1 <1>        -0.2681
     12 O1          2.1341   -2.7065    0.3279 O.3       1 <1>        -0.1888
     13 O2          3.3580    1.7846    0.7397 O.2       1 <1>        -0.2688
     14 O3          1.4509   -0.0153    0.2110 O.3       1 <1>        -0.3540
     15 H1          6.3813   -4.9283    1.3669 H         1 <1>         0.0623
     16 H2          8.0714   -3.1785    1.8389 H         1 <1>         0.0623
     17 H3          4.1015   -4.3150    0.7963 H         1 <1>         0.0630
     18 H4          7.4668   -0.8277    1.7368 H         1 <1>         0.0643
     19 H5          6.5376    1.5180    0.4949 H         1 <1>         0.0437
     20 H6          6.7591    0.8496    2.1270 H         1 <1>         0.0437
     21 H7          5.5500    2.1206    1.8443 H         1 <1>         0.0437
     22 H8          0.8857   -0.7721    0.0493 H         1 <1>         0.2185
@<TRIPOS>BOND
     1    1    2 ar
     2    1    3 ar
     3    2    4 ar
     4    3    5 ar
     5    4    6 ar
     6    5    6 ar
     7    5    7 1
     8    6   11 1
     9    7    8 2
    10    7   12 1
    11    8    9 1
    12    8   14 1
    13    9   11 am
    14    9   13 2
    15   10   11 1
    16    1   15 1
    17    2   16 1
    18    3   17 1
    19    4   18 1
    20   10   19 1
    21   10   20 1
    22   10   21 1
    23   14   22 1
@<TRIPOS>Similarity
1.2352
@<TRIPOS>ShapeSim
0.8563
@<TRIPOS>PharmSim
0.3789
# END
# Name:		DB04720
# Created and modified by SHAFTS on Mon Feb  6 15:41:12 2012

# 

@<TRIPOS>MOLECULE
DB04720
   19    20     0
SMALL
USER_CHARGE


@<TRIPOS>ATOM
      1 C1          5.1366   -1.8311    1.1519 C.ar      1 <1>         0.1037
      2 C2          6.3593   -1.1812    1.3831 C.ar      1 <1>         0.0748
      3 C3          5.0872   -3.2284    1.1595 C.ar      1 <1>         0.0606
      4 C4          7.5069   -1.9253    1.6166 C.ar      1 <1>         0.0565
      5 C5          6.2363   -3.9529    1.3926 C.ar      1 <1>         0.0494
      6 C6          7.4428   -3.3049    1.6208 C.ar      1 <1>         0.0491
      7 C7          4.7595    0.3156    1.0515 C.2       1 <1>         0.1573
      8 C8          2.2380    1.2553    0.5541 C.3       1 <1>        -0.0109
      9 N1          4.2002   -0.8655    0.9566 N.2       1 <1>        -0.2236
     10 N2          6.0942    0.1772    1.3092 N.pl3     1 <1>        -0.2913
     11 S1          3.9178    1.8525    0.8667 S.3       1 <1>        -0.0940
     12 Br1         3.4491   -4.1213    0.8505 Br        1 <1>        -0.0471
     13 Br2         9.1553   -1.0524    1.9278 Br        1 <1>        -0.0474
     14 Br3         6.1689   -5.8426    1.4023 Br        1 <1>        -0.0482
     15 Br4         9.0080   -4.3174    1.9385 Br        1 <1>        -0.0482
     16 H1          1.8985    0.6638    1.4044 H         1 <1>         0.0348
     17 H2          1.5705    2.1054    0.4132 H         1 <1>         0.0348
     18 H3          2.2333    0.6370   -0.3436 H         1 <1>         0.0348
     19 H4          6.7355    0.8958    1.4246 H         1 <1>         0.1549
@<TRIPOS>BOND
     1    1    2 ar
     2    1    3 ar
     3    1    9 1
     4    2    4 ar
     5    2   10 1
     6    3    5 ar
     7    3   12 1
     8    4    6 ar
     9    4   13 1
    10    5    6 ar
    11    5   14 1
    12    6   15 1
    13    7    9 2
    14    7   10 1
    15    7   11 1
    16    8   11 1
    17    8   16 1
    18    8   17 1
    19    8   18 1
    20   10   19 1
@<TRIPOS>Similarity
1.2310
@<TRIPOS>ShapeSim
0.8220
@<TRIPOS>PharmSim
0.4090
# END
# Name:		DB07661
# Created and modified by SHAFTS on Mon Feb  6 15:41:12 2012

# 

@<TRIPOS>MOLECULE
DB07661
   20    21     0
SMALL
USER_CHARGE


@<TRIPOS>ATOM
      1 C1          6.1532   -4.0766    1.1312 C.ar      1 <1>        -0.0590
      2 C2          5.2002   -3.1088    0.8123 C.ar      1 <1>        -0.0541
      3 C3          6.8345   -0.0324    2.0949 C.ar      1 <1>        -0.0492
      4 C4          7.3336   -3.7082    1.7697 C.ar      1 <1>        -0.0314
      5 C5          5.8815    0.9353    1.7758 C.ar      1 <1>        -0.0313
      6 C6          4.4689   -0.7705    0.8153 C.ar      1 <1>        -0.0241
      7 C7          5.4171   -1.7578    1.1289 C.ar      1 <1>        -0.0132
      8 C8          6.6175   -1.3833    1.7782 C.ar      1 <1>         0.0119
      9 C9          4.7010    0.5671    1.1373 C.ar      1 <1>         0.0719
     10 C10         7.5657   -2.3708    2.0917 C.ar      1 <1>         0.0791
     11 O1          3.7719    1.5122    0.8266 O.3       1 <1>        -0.3609
     12 O2          8.7385   -2.0574    2.7178 O.3       1 <1>        -0.3602
     13 H1          5.9730   -5.1180    0.8807 H         1 <1>         0.0624
     14 H2          4.2847   -3.4196    0.3132 H         1 <1>         0.0629
     15 H3          7.7460    0.2892    2.5937 H         1 <1>         0.0631
     16 H4          8.0707   -4.4684    2.0146 H         1 <1>         0.0650
     17 H5          6.0672    1.9757    2.0289 H         1 <1>         0.0650
     18 H6          3.5406   -1.0421    0.3159 H         1 <1>         0.0657
     19 H7          3.0095    1.1027    0.3876 H         1 <1>         0.2182
     20 H8          9.2664   -2.8585    2.8533 H         1 <1>         0.2182
@<TRIPOS>BOND
     1    1    2 ar
     2    1    4 ar
     3    2    7 ar
     4    3    5 ar
     5    3    8 ar
     6    4   10 ar
     7    5    9 ar
     8    6    7 ar
     9    6    9 ar
    10    7    8 ar
    11    8   10 ar
    12    9   11 1
    13   10   12 1
    14    1   13 1
    15    2   14 1
    16    3   15 1
    17    4   16 1
    18    5   17 1
    19    6   18 1
    20   11   19 1
    21   12   20 1
@<TRIPOS>Similarity
1.2283
@<TRIPOS>ShapeSim
0.7920
@<TRIPOS>PharmSim
0.4363
# END
# Name:		DB03136
# Created and modified by SHAFTS on Mon Feb  6 15:41:12 2012

# 

@<TRIPOS>MOLECULE
DB03136
   21    22     0
SMALL
USER_CHARGE


@<TRIPOS>ATOM
      1 C1          7.0354   -0.1332    1.7892 C.ar      1 <1>         0.0000
      2 C2          6.0755    0.8410    1.5085 C.ar      1 <1>         0.0000
      3 C3          6.7167   -1.4818    1.7158 C.ar      1 <1>         0.0000
      4 C4          3.0573   -1.0833    0.6851 C.2       1 <1>         0.0000
      5 C5          4.4309   -0.9198    1.0683 C.ar      1 <1>         0.0000
      6 C6          4.7761    0.4328    1.1490 C.ar      1 <1>         0.0000
      7 C7          5.4267   -1.8834    1.3589 C.ar      1 <1>         0.0000
      8 C8          2.4103    0.1137    0.4895 C.2       1 <1>         0.0000
      9 C9          1.0403    0.2310    0.1037 C.cat     1 <1>         0.0000
     10 N1          0.2747   -0.8659   -0.0984 N.pl3     1 <1>         0.0000
     11 N2          0.4642    1.4426   -0.0703 N.pl3     1 <1>         0.0000
     12 S1          3.4367    1.4471    0.7612 S.3       1 <1>         0.0000
     13 I1          5.0381   -3.9421    1.2810 I         1 <1>         0.0000
     14 H1          8.0412    0.1696    2.0679 H         1 <1>         0.0000
     15 H2          6.3342    1.8943    1.5681 H         1 <1>         0.0000
     16 H3          7.4902   -2.2115    1.9430 H         1 <1>         0.0000
     17 H4          2.5598   -2.0369    0.5569 H         1 <1>         0.0000
     18 H5          0.6741   -1.7906    0.0180 H         1 <1>         0.0000
     19 H6         -0.6976   -0.7995   -0.3790 H         1 <1>         0.0000
     20 H7          1.0059    2.2868    0.0783 H         1 <1>         0.0000
     21 H8         -0.5086    1.5426   -0.3391 H         1 <1>         0.0000
@<TRIPOS>BOND
     1    1    2 ar
     2    1    3 ar
     3    2    6 ar
     4    3    7 ar
     5    4    5 1
     6    4    8 2
     7    5    6 ar
     8    5    7 ar
     9    6   12 1
    10    7   13 1
    11    8    9 1
    12    8   12 1
    13    9   10 1
    14    9   11 2
    15    1   14 1
    16    2   15 1
    17    3   16 1
    18    4   17 1
    19   10   18 1
    20   10   19 1
    21   11   20 1
    22   11   21 1
@<TRIPOS>Similarity
1.2249
@<TRIPOS>ShapeSim
0.8413
@<TRIPOS>PharmSim
0.3836
# END
# Name:		DB08771
# Created and modified by SHAFTS on Mon Feb  6 15:41:12 2012

# 

@<TRIPOS>MOLECULE
DB08771
   31    32     0
SMALL
USER_CHARGE


@<TRIPOS>ATOM
      1 C1          5.7014   -3.7302    1.4097 C.ar      1 <1>         0.0000
      2 C2          6.9660   -4.0681    1.8558 C.ar      1 <1>         0.0000
      3 C3          5.3871   -2.4098    1.1525 C.ar      1 <1>         0.0000
      4 C4          7.9207   -3.0864    2.0466 C.ar      1 <1>         0.0000
      5 C5          6.3422   -1.4204    1.3420 C.ar      1 <1>         0.0000
      6 C6          7.6131   -1.7624    1.7911 C.ar      1 <1>         0.0000
      7 C7          3.0651    1.4684   -0.2964 C.2       1 <1>         0.0000
      8 C8          4.7411    0.2720    0.7882 C.cat     1 <1>         0.0000
      9 C9          2.0621    0.6543    0.5115 C.3       1 <1>         0.0000
     10 C10         0.2387    0.6883    2.2193 C.3       1 <1>         0.0000
     11 C11         2.1533    2.2829    2.4041 C.3       1 <1>         0.0000
     12 C12         1.2284    1.5487    1.4312 C.3       1 <1>         0.0000
     13 N1          4.3202    1.1900   -0.0719 N.am      1 <1>         0.0000
     14 N2          6.0264   -0.0814    1.0827 N.pl3     1 <1>         0.0000
     15 O1          2.7203    2.3178   -1.0948 O.2       1 <1>         0.0000
     16 F1          8.5457   -0.8029    1.9779 F         1 <1>         0.0000
     17 S1          3.2286   -0.3987    1.4654 S.3       1 <1>         0.0000
     18 H1          4.9596   -4.5003    1.2580 H         1 <1>         0.0000
     19 H2          7.2084   -5.1014    2.0559 H         1 <1>         0.0000
     20 H3          4.3992   -2.1476    0.8035 H         1 <1>         0.0000
     21 H4          8.9072   -3.3535    2.3957 H         1 <1>         0.0000
     22 H5          1.4260    0.0507   -0.1359 H         1 <1>         0.0000
     23 H6         -0.3552    1.3254    2.8745 H         1 <1>         0.0000
     24 H7         -0.4202    0.1652    1.5262 H         1 <1>         0.0000
     25 H8          0.7866   -0.0389    2.8187 H         1 <1>         0.0000
     26 H9          2.8583    2.8959    1.8426 H         1 <1>         0.0000
     27 H10         1.5593    2.9200    3.0593 H         1 <1>         0.0000
     28 H11         2.7010    1.5557    3.0034 H         1 <1>         0.0000
     29 H12         0.6805    2.2759    0.8319 H         1 <1>         0.0000
     30 H13         4.9899    1.6873   -0.5672 H         1 <1>         0.0000
     31 H14         6.7209    0.5951    1.1121 H         1 <1>         0.0000
@<TRIPOS>BOND
     1    1    2 ar
     2    1    3 ar
     3    2    4 ar
     4    3    5 ar
     5    4    6 ar
     6    5    6 ar
     7    5   14 1
     8    6   16 1
     9    7    9 1
    10    7   13 am
    11    7   15 2
    12    8   13 1
    13    8   14 1
    14    8   17 1
    15    9   12 1
    16    9   17 1
    17   10   12 1
    18   11   12 1
    19    1   18 1
    20    2   19 1
    21    3   20 1
    22    4   21 1
    23    9   22 1
    24   10   23 1
    25   10   24 1
    26   10   25 1
    27   11   26 1
    28   11   27 1
    29   11   28 1
    30   12   29 1
    31   13   30 1
    32   14   31 1
@<TRIPOS>Similarity
1.2249
@<TRIPOS>ShapeSim
0.8339
@<TRIPOS>PharmSim
0.3910
# END
# Name:		DB01275
# Created and modified by SHAFTS on Mon Feb  6 15:41:12 2012

# 

@<TRIPOS>MOLECULE
DB01275
   20    21     0
SMALL
USER_CHARGE


@<TRIPOS>ATOM
      1 C1          6.6359   -1.8162    1.9076 C.ar      1 <1>        -0.0615
      2 C2          5.4795   -2.5270    1.5964 C.ar      1 <1>        -0.0615
      3 C3          6.6608   -0.4538    1.8511 C.ar      1 <1>        -0.0526
      4 C4          4.3371   -1.8828    1.2211 C.ar      1 <1>        -0.0507
      5 C5          5.4552    1.6429    1.3768 C.ar      1 <1>         0.0576
      6 C6          5.5070    0.2389    1.4642 C.ar      1 <1>         0.0054
      7 C7          4.3289   -0.4864    1.1477 C.ar      1 <1>         0.0266
      8 C8          3.1888    0.2523    0.7559 C.ar      1 <1>         0.1616
      9 N1          4.3352    2.2185    1.0057 N.ar      1 <1>        -0.1565
     10 N2          3.2697    1.5705    0.7135 N.ar      1 <1>        -0.1335
     11 N3          0.9143    0.3334    0.0516 N.3       1 <1>        -0.2562
     12 N4          2.0081   -0.3931    0.4285 N.pl3     1 <1>        -0.2664
     13 H1          7.5260   -2.3521    2.2021 H         1 <1>         0.0623
     14 H2          5.4873   -3.6055    1.6535 H         1 <1>         0.0623
     15 H3          7.5643    0.0852    2.0950 H         1 <1>         0.0630
     16 H4          3.4470   -2.4461    0.9832 H         1 <1>         0.0630
     17 H5          6.3250    2.2384    1.6116 H         1 <1>         0.0866
     18 H6          1.1455    0.7701   -0.8281 H         1 <1>         0.1410
     19 H7          0.1776   -0.3293   -0.1384 H         1 <1>         0.1410
     20 H8          1.9565   -1.3609    0.4705 H         1 <1>         0.1684
@<TRIPOS>BOND
     1    1    2 ar
     2    1    3 ar
     3    2    4 ar
     4    3    6 ar
     5    4    7 ar
     6    5    6 ar
     7    5    9 ar
     8    6    7 ar
     9    7    8 ar
    10    8   10 ar
    11    8   12 1
    12    9   10 ar
    13   11   12 1
    14    1   13 1
    15    2   14 1
    16    3   15 1
    17    4   16 1
    18    5   17 1
    19   11   18 1
    20   11   19 1
    21   12   20 1
@<TRIPOS>Similarity
1.2248
@<TRIPOS>ShapeSim
0.8261
@<TRIPOS>PharmSim
0.3987
# END
# Name:		DB04582
# Created and modified by SHAFTS on Mon Feb  6 15:41:12 2012

# 

@<TRIPOS>MOLECULE
DB04582
   40    42     0
SMALL
USER_CHARGE


@<TRIPOS>ATOM
      1 C1          7.3433   -3.5302    1.8559 C.ar      1 <1>         0.0000
      2 C2          6.3557   -4.2979    1.2427 C.ar      1 <1>         0.0000
      3 C3          7.2077   -2.1797    1.9708 C.ar      1 <1>         0.0000
      4 C4          5.2279   -3.7227    0.7416 C.ar      1 <1>         0.0000
      5 C5          5.8862   -0.1595    1.5674 C.ar      1 <1>         0.0000
      6 C6          6.0579   -1.5512    1.4650 C.ar      1 <1>         0.0000
      7 C7          4.7266    0.3966    1.0396 C.ar      1 <1>         0.0000
      8 C8          5.0497   -2.3313    0.8402 C.ar      1 <1>         0.0000
      9 C9          3.7642   -0.4486    0.4356 C.ar      1 <1>         0.0000
     10 C10         1.2496    1.5221   -1.3445 C.2       1 <1>         0.0000
     11 C11         2.5248    0.1437   -0.1216 C.cat     1 <1>         0.0000
     12 C12         4.4953    1.8501    1.1194 C.2       1 <1>         0.0000
     13 C13         0.3748    0.5561   -0.5701 C.3       1 <1>         0.0000
     14 C14        -0.5422    1.3150    0.3913 C.3       1 <1>         0.0000
     15 C15        -1.4558    0.5748   -2.2705 C.3       1 <1>         0.0000
     16 C16         0.4812   -0.9806   -2.5373 C.3       1 <1>         0.0000
     17 C17        -0.4499   -0.3066   -1.5275 C.3       1 <1>         0.0000
     18 N1          3.9507   -1.7482    0.3544 N.ar      1 <1>         0.0000
     19 N2          2.5156    1.1950   -1.0093 N.am      1 <1>         0.0000
     20 N3          1.3354   -0.2732    0.1747 N.pl3     1 <1>         0.0000
     21 O1          3.4211    2.3185    0.7690 O.co2     1 <1>        -0.5000
     22 O2          0.8901    2.3985   -2.1014 O.2       1 <1>         0.0000
     23 O3          5.3774    2.5879    1.5360 O.co2     1 <1>        -0.5000
     24 H1          8.2277   -4.0122    2.2456 H         1 <1>         0.0000
     25 H2          6.4865   -5.3671    1.1638 H         1 <1>         0.0000
     26 H3          7.9804   -1.5952    2.4480 H         1 <1>         0.0000
     27 H4          4.4722   -4.3332    0.2700 H         1 <1>         0.0000
     28 H5          6.6355    0.4598    2.0376 H         1 <1>         0.0000
     29 H6         -1.1288    0.6031    0.9719 H         1 <1>         0.0000
     30 H7          0.0613    1.9234    1.0648 H         1 <1>         0.0000
     31 H8         -1.2123    1.9591   -0.1781 H         1 <1>         0.0000
     32 H9         -2.1190    1.0550   -1.5511 H         1 <1>         0.0000
     33 H10        -0.9215    1.3374   -2.8373 H         1 <1>         0.0000
     34 H11        -2.0432   -0.0398   -2.9526 H         1 <1>         0.0000
     35 H12         1.0155   -0.2180   -3.1040 H         1 <1>         0.0000
     36 H13         1.1978   -1.6086   -2.0079 H         1 <1>         0.0000
     37 H14        -0.1063   -1.5952   -3.2193 H         1 <1>         0.0000
     38 H15        -0.9842   -1.0692   -0.9608 H         1 <1>         0.0000
     39 H16         3.3088    1.6395   -1.3470 H         1 <1>         0.0000
     40 H17         1.1171   -1.0006    0.7780 H         1 <1>         0.0000
@<TRIPOS>BOND
     1    1    2 ar
     2    1    3 ar
     3    2    4 ar
     4    3    6 ar
     5    4    8 ar
     6    5    6 ar
     7    5    7 ar
     8    6    8 ar
     9    7    9 ar
    10    7   12 1
    11    8   18 ar
    12    9   11 1
    13    9   18 ar
    14   10   13 1
    15   10   19 am
    16   10   22 2
    17   11   19 1
    18   11   20 1
    19   12   21 1
    20   12   23 2
    21   13   14 1
    22   13   17 1
    23   13   20 1
    24   15   17 1
    25   16   17 1
    26    1   24 1
    27    2   25 1
    28    3   26 1
    29    4   27 1
    30    5   28 1
    31   14   29 1
    32   14   30 1
    33   14   31 1
    34   15   32 1
    35   15   33 1
    36   15   34 1
    37   16   35 1
    38   16   36 1
    39   16   37 1
    40   17   38 1
    41   19   39 1
    42   20   40 1
@<TRIPOS>Similarity
1.2222
@<TRIPOS>ShapeSim
0.7543
@<TRIPOS>PharmSim
0.4679
# END
# Name:		DB07610
# Created and modified by SHAFTS on Mon Feb  6 15:41:12 2012

# 

@<TRIPOS>MOLECULE
DB07610
   20    21     0
SMALL
USER_CHARGE


@<TRIPOS>ATOM
      1 C1          7.1034   -3.7842    1.6462 C.ar      1 <1>        -0.0616
      2 C2          5.9029   -4.0904    1.0076 C.ar      1 <1>        -0.0615
      3 C3          7.4068   -2.5033    1.9912 C.ar      1 <1>        -0.0543
      4 C4          4.9984   -3.1172    0.7124 C.ar      1 <1>        -0.0516
      5 C5          6.7773   -0.1381    2.0485 C.ar      1 <1>        -0.0516
      6 C6          5.8787    0.8426    1.7589 C.ar      1 <1>        -0.0287
      7 C7          6.4970   -1.4708    1.7036 C.ar      1 <1>        -0.0156
      8 C8          5.2760   -1.7830    1.0546 C.ar      1 <1>         0.0144
      9 C9          4.6734    0.5473    1.1202 C.ar      1 <1>         0.1019
     10 C10         4.3608   -0.7514    0.7710 C.ar      1 <1>         0.1092
     11 O1          3.7951    1.5487    0.8437 O.3       1 <1>        -0.3582
     12 O2          3.1845   -1.0301    0.1492 O.3       1 <1>        -0.3577
     13 H1          7.8037   -4.5754    1.8698 H         1 <1>         0.0623
     14 H2          5.6870   -5.1152    0.7435 H         1 <1>         0.0623
     15 H3          8.3413   -2.2812    2.4851 H         1 <1>         0.0629
     16 H4          4.0718   -3.3691    0.2180 H         1 <1>         0.0630
     17 H5          7.7054    0.1083    2.5428 H         1 <1>         0.0630
     18 H6          6.1020    1.8646    2.0271 H         1 <1>         0.0651
     19 H7          3.2127    1.6294    1.6114 H         1 <1>         0.2183
     20 H8          2.5390   -1.2193    0.8440 H         1 <1>         0.2184
@<TRIPOS>BOND
     1    1    2 ar
     2    1    3 ar
     3    2    4 ar
     4    3    7 ar
     5    4    8 ar
     6    5    6 ar
     7    5    7 ar
     8    6    9 ar
     9    7    8 ar
    10    8   10 ar
    11    9   10 ar
    12    9   11 1
    13   10   12 1
    14    1   13 1
    15    2   14 1
    16    3   15 1
    17    4   16 1
    18    5   17 1
    19    6   18 1
    20   11   19 1
    21   12   20 1
@<TRIPOS>Similarity
1.2215
@<TRIPOS>ShapeSim
0.8244
@<TRIPOS>PharmSim
0.3971
# END
# Name:		DB04487
# Created and modified by SHAFTS on Mon Feb  6 15:41:12 2012

# 

@<TRIPOS>MOLECULE
DB04487
   25    24     0
SMALL
USER_CHARGE


@<TRIPOS>ATOM
      1 C1          2.8713    1.5362    0.0276 C.2       1 <1>         0.0000
      2 C2          4.5150   -0.7323    2.4847 C.3       1 <1>         0.0000
      3 C3          5.6973   -1.7003    0.5080 C.3       1 <1>         0.0000
      4 C4          0.0832    0.9342    0.5986 C.3       1 <1>         0.0000
      5 C5          3.3467   -0.8842    0.2815 C.3       1 <1>         0.0000
      6 C6          2.3815    0.2481    0.6376 C.3       1 <1>         0.0000
      7 C7          4.6926   -0.6420    0.9678 C.3       1 <1>         0.0000
      8 N1          1.0451   -0.0646    0.1139 N.4       1 <1>         0.0000
      9 O1          3.9670    1.9767    0.3312 O.co2     1 <1>        -0.5000
     10 O2          2.1720    2.1379   -0.7696 O.co2     1 <1>        -0.5000
     11 H1          4.0602   -1.6892    2.7410 H         1 <1>         0.0000
     12 H2          5.4877   -0.6508    2.9699 H         1 <1>         0.0000
     13 H3          3.8706    0.0786    2.8241 H         1 <1>         0.0000
     14 H4          5.8237   -1.6359   -0.5727 H         1 <1>         0.0000
     15 H5          6.6560   -1.5278    0.9969 H         1 <1>         0.0000
     16 H6          5.3278   -2.6912    0.7722 H         1 <1>         0.0000
     17 H7          0.3845    1.9245    0.2573 H         1 <1>         0.0000
     18 H8         -0.9084    0.7022    0.2100 H         1 <1>         0.0000
     19 H9          0.0595    0.9170    1.6882 H         1 <1>         0.0000
     20 H10         2.9325   -1.8343    0.6191 H         1 <1>         0.0000
     21 H11         3.4898   -0.9135   -0.7986 H         1 <1>         0.0000
     22 H12         2.3311    0.3555    1.7211 H         1 <1>         0.0000
     23 H13         5.0620    0.3488    0.7035 H         1 <1>         0.0000
     24 H14         0.7661   -0.9813    0.4299 H         1 <1>         0.0000
     25 H15         1.0670   -0.0486   -0.8947 H         1 <1>         0.0000
@<TRIPOS>BOND
     1    1    6 1
     2    1    9 1
     3    1   10 2
     4    2    7 1
     5    3    7 1
     6    4    8 1
     7    5    6 1
     8    5    7 1
     9    6    8 1
    10    2   11 1
    11    2   12 1
    12    2   13 1
    13    3   14 1
    14    3   15 1
    15    3   16 1
    16    4   17 1
    17    4   18 1
    18    4   19 1
    19    5   20 1
    20    5   21 1
    21    6   22 1
    22    7   23 1
    23    8   24 1
    24    8   25 1
@<TRIPOS>Similarity
1.2206
@<TRIPOS>ShapeSim
0.6845
@<TRIPOS>PharmSim
0.5361
# END
# Name:		DB08048
# Created and modified by SHAFTS on Mon Feb  6 15:41:12 2012

# 

@<TRIPOS>MOLECULE
DB08048
   28    30     0
SMALL
USER_CHARGE


@<TRIPOS>ATOM
      1 C1          4.8308   -2.8787    1.3960 C.ar      1 <1>        -0.0482
      2 C2          2.3884   -0.5190    2.4530 C.ar      1 <1>        -0.0475
      3 C3          5.8227   -3.8675    1.3958 C.ar      1 <1>        -0.0313
      4 C4          1.0124   -0.2916    2.4742 C.ar      1 <1>        -0.0312
      5 C5          7.5867   -2.1893    1.3965 C.ar      1 <1>        -0.0085
      6 C6          1.1785    0.9078    0.3835 C.ar      1 <1>        -0.0013
      7 C7          5.2271   -1.5308    1.3962 C.ar      1 <1>         0.0255
      8 C8          3.1596   -0.0330    1.3971 C.ar      1 <1>         0.0326
      9 C9          6.5821   -1.2192    1.3964 C.ar      1 <1>         0.0595
     10 C10         7.1767   -3.5267    1.3960 C.ar      1 <1>         0.0733
     11 C11         0.4074    0.4219    1.4395 C.ar      1 <1>         0.0739
     12 C12         2.5545    0.6803    0.3624 C.ar      1 <1>         0.0834
     13 C13         4.5797   -0.2766    1.3965 C.2       1 <1>         0.1001
     14 N1          5.4351    0.7482    1.3966 N.2       1 <1>        -0.1828
     15 N2          6.6373    0.1485    1.3965 N.pl3     1 <1>        -0.2372
     16 O1          8.1170   -4.5143    1.3962 O.3       1 <1>        -0.3608
     17 O2         -0.9355    0.6427    1.4592 O.3       1 <1>        -0.3608
     18 O3          3.2842    1.1681   -0.6817 O.3       1 <1>        -0.3601
     19 H1          3.7818   -3.1587    1.3959 H         1 <1>         0.0631
     20 H2          2.8439   -1.0762    3.2685 H         1 <1>         0.0631
     21 H3          5.5261   -4.9140    1.3957 H         1 <1>         0.0650
     22 H4          0.4167   -0.6724    3.2993 H         1 <1>         0.0650
     23 H5          8.6370   -1.9172    1.3967 H         1 <1>         0.0671
     24 H6          0.7066    1.4651   -0.4220 H         1 <1>         0.0678
     25 H7          7.4633    0.7338    1.3975 H         1 <1>         0.1755
     26 H8          7.6877   -5.3836    1.3961 H         1 <1>         0.2182
     27 H9         -1.3301    0.2449    2.2517 H         1 <1>         0.2182
     28 H10         2.7055    1.6353   -1.3036 H         1 <1>         0.2182
@<TRIPOS>BOND
     1    1    3 ar
     2    1    7 ar
     3    2    4 ar
     4    2    8 ar
     5    3   10 ar
     6    4   11 ar
     7    5    9 ar
     8    5   10 ar
     9    6   11 ar
    10    6   12 ar
    11    7    9 ar
    12    7   13 1
    13    8   12 ar
    14    8   13 1
    15    9   15 1
    16   10   16 1
    17   11   17 1
    18   12   18 1
    19   13   14 2
    20   14   15 1
    21    1   19 1
    22    2   20 1
    23    3   21 1
    24    4   22 1
    25    5   23 1
    26    6   24 1
    27   15   25 1
    28   16   26 1
    29   17   27 1
    30   18   28 1
@<TRIPOS>Similarity
1.2205
@<TRIPOS>ShapeSim
0.8532
@<TRIPOS>PharmSim
0.3673
# END
# Name:		DB04446
# Created and modified by SHAFTS on Mon Feb  6 15:41:12 2012

# 

@<TRIPOS>MOLECULE
DB04446
   21    22     0
SMALL
USER_CHARGE


@<TRIPOS>ATOM
      1 C1          6.2325   -2.0224    1.8023 C.ar      1 <1>         0.0000
      2 C2          6.8006   -0.7590    1.9146 C.ar      1 <1>         0.0000
      3 C3          4.9423   -2.1909    1.4142 C.ar      1 <1>         0.0000
      4 C4          6.0409    0.3560    1.6247 C.ar      1 <1>         0.0000
      5 C5          2.7781   -1.0640    0.6996 C.2       1 <1>         0.0000
      6 C6          4.1248   -1.0729    1.1072 C.ar      1 <1>         0.0000
      7 C7          4.7293    0.2005    1.2297 C.ar      1 <1>         0.0000
      8 C8          2.1549    0.1155    0.4434 C.2       1 <1>         0.0000
      9 C9          0.7682    0.3441    0.0062 C.cat     1 <1>         0.0000
     10 N1          0.1424   -0.5726   -0.7346 N.pl3     1 <1>         0.0000
     11 N2          0.1347    1.4656    0.3554 N.pl3     1 <1>         0.0000
     12 S1          3.4290    1.3201    0.7749 S.3       1 <1>         0.0000
     13 H1          6.8320   -2.8915    2.0298 H         1 <1>         0.0000
     14 H2          7.8290   -0.6507    2.2260 H         1 <1>         0.0000
     15 H3          4.5336   -3.1878    1.3385 H         1 <1>         0.0000
     16 H4          6.4705    1.3434    1.7077 H         1 <1>         0.0000
     17 H5          2.2429   -1.9946    0.5822 H         1 <1>         0.0000
     18 H6          0.6028   -1.3878   -0.9884 H         1 <1>         0.0000
     19 H7         -0.7729   -0.4238   -1.0194 H         1 <1>         0.0000
     20 H8          0.5882    2.1302    0.8972 H         1 <1>         0.0000
     21 H9         -0.7793    1.6162    0.0673 H         1 <1>         0.0000
@<TRIPOS>BOND
     1    1    2 ar
     2    1    3 ar
     3    2    4 ar
     4    3    6 ar
     5    4    7 ar
     6    5    6 1
     7    5    8 2
     8    6    7 ar
     9    7   12 1
    10    8    9 1
    11    8   12 1
    12    9   10 1
    13    9   11 2
    14    1   13 1
    15    2   14 1
    16    3   15 1
    17    4   16 1
    18    5   17 1
    19   10   18 1
    20   10   19 1
    21   11   20 1
    22   11   21 1
@<TRIPOS>Similarity
1.2194
@<TRIPOS>ShapeSim
0.7988
@<TRIPOS>PharmSim
0.4207
# END
# Name:		DB02018
# Created and modified by SHAFTS on Mon Feb  6 15:41:12 2012

# 

@<TRIPOS>MOLECULE
DB02018
   25    25     0
SMALL
USER_CHARGE


@<TRIPOS>ATOM
      1 C1          7.5675   -2.7798    0.7249 C.ar      1 <1>         0.0000
      2 C2          5.5981   -3.8390    1.6316 C.ar      1 <1>         0.0000
      3 C3          6.9423   -1.5533    0.8176 C.ar      1 <1>         0.0000
      4 C4          4.9860   -2.6060    1.7247 C.ar      1 <1>         0.0000
      5 C5          6.8984   -3.9332    1.1349 C.ar      1 <1>         0.0000
      6 C6          5.6547   -1.4659    1.3160 C.ar      1 <1>         0.0000
      7 C7          7.5628   -5.2518    1.0377 C.cat     1 <1>         0.0000
      8 C8          4.2331    0.1592    0.1351 C.2       1 <1>         0.0000
      9 C9          3.4738    1.4358   -0.0209 C.2       1 <1>         0.0000
     10 C10         4.9779   -0.1231    1.4145 C.3       1 <1>         0.0000
     11 N1          7.2545   -6.2179    1.9004 N.pl3     1 <1>         0.0000
     12 N2          8.4691   -5.4722    0.0875 N.pl3     1 <1>         0.0000
     13 O1          3.4565    2.2505    0.8877 O.co2     1 <1>        -0.5000
     14 O2          4.2502   -0.6470   -0.7639 O.2       1 <1>         0.0000
     15 O3          2.8707    1.6644   -1.0570 O.co2     1 <1>        -0.5000
     16 H1          8.5728   -2.8466    0.3360 H         1 <1>         0.0000
     17 H2          5.0749   -4.7284    1.9507 H         1 <1>         0.0000
     18 H3          7.4593   -0.6596    0.5008 H         1 <1>         0.0000
     19 H4          3.9810   -2.5312    2.1133 H         1 <1>         0.0000
     20 H5          4.2767   -0.1300    2.2491 H         1 <1>         0.0000
     21 H6          5.7280    0.6509    1.5766 H         1 <1>         0.0000
     22 H7          7.6900   -7.0823    1.8367 H         1 <1>         0.0000
     23 H8          6.5943   -6.0574    2.5927 H         1 <1>         0.0000
     24 H9          8.6938   -4.7683   -0.5410 H         1 <1>         0.0000
     25 H10         8.9076   -6.3352    0.0262 H         1 <1>         0.0000
@<TRIPOS>BOND
     1    1    3 ar
     2    1    5 ar
     3    2    4 ar
     4    2    5 ar
     5    3    6 ar
     6    4    6 ar
     7    5    7 1
     8    6   10 1
     9    7   11 1
    10    7   12 2
    11    8    9 1
    12    8   10 1
    13    8   14 2
    14    9   13 1
    15    9   15 2
    16    1   16 1
    17    2   17 1
    18    3   18 1
    19    4   19 1
    20   10   20 1
    21   10   21 1
    22   11   22 1
    23   11   23 1
    24   12   24 1
    25   12   25 1
@<TRIPOS>Similarity
1.2182
@<TRIPOS>ShapeSim
0.7731
@<TRIPOS>PharmSim
0.4452
# END
# Name:		DB08671
# Created and modified by SHAFTS on Mon Feb  6 15:41:12 2012

# 

@<TRIPOS>MOLECULE
DB08671
   28    29     0
SMALL
USER_CHARGE


@<TRIPOS>ATOM
      1 C1          7.1489   -3.8425    2.0106 C.ar      1 <1>         0.0000
      2 C2          5.7654   -3.8108    2.0437 C.ar      1 <1>         0.0000
      3 C3          7.8585   -2.8181    1.4067 C.ar      1 <1>         0.0000
      4 C4          5.0826   -2.7569    1.4750 C.ar      1 <1>         0.0000
      5 C5          7.1910   -1.7572    0.8336 C.ar      1 <1>         0.0000
      6 C6          5.7922   -1.7143    0.8682 C.ar      1 <1>         0.0000
      7 C7          3.1734    0.3985   -0.2318 C.2       1 <1>         0.0000
      8 C8          3.7038    1.4909   -0.8672 C.2       1 <1>         0.0000
      9 C9          1.6961    0.6119   -0.3047 C.cat     1 <1>         0.0000
     10 C10         7.9651   -0.6434    0.1769 C.3       1 <1>         0.0000
     11 N1          2.6994    2.2754   -1.2721 N.2       1 <1>         0.0000
     12 N2          1.5469    1.8052   -0.9641 N.2       1 <1>         0.0000
     13 N3          5.1245   -0.6685    0.3035 N.2       1 <1>         0.0000
     14 N4          3.8351   -0.6379    0.3277 N.2       1 <1>         0.0000
     15 N5          0.7594   -0.1591    0.1619 N.pl3     1 <1>         0.0000
     16 N6          5.0655    1.7426   -1.0598 N.4       1 <1>         0.0000
     17 F1          9.3354   -0.9103    0.2691 F         1 <1>         0.0000
     18 F2          7.6811    0.5652    0.8218 F         1 <1>         0.0000
     19 F3          7.5976   -0.5510   -1.1698 F         1 <1>         0.0000
     20 H1          7.6780   -4.6711    2.4580 H         1 <1>         0.0000
     21 H2          5.2195   -4.6141    2.5160 H         1 <1>         0.0000
     22 H3          8.9377   -2.8507    1.3845 H         1 <1>         0.0000
     23 H4          4.0031   -2.7335    1.5017 H         1 <1>         0.0000
     24 H5         -0.1717    0.0922    0.0587 H         1 <1>         0.0000
     25 H6          0.9916   -0.9857    0.6132 H         1 <1>         0.0000
     26 H7          5.3622    1.3363   -1.9343 H         1 <1>         0.0000
     27 H8          5.2236    2.7389   -1.0808 H         1 <1>         0.0000
     28 H9          5.5933    1.3342   -0.3029 H         1 <1>         0.0000
@<TRIPOS>BOND
     1    1    2 ar
     2    1    3 ar
     3    2    4 ar
     4    3    5 ar
     5    4    6 ar
     6    5    6 ar
     7    5   10 1
     8    6   13 1
     9    7    8 2
    10    7    9 1
    11    7   14 1
    12    8   11 1
    13    8   16 1
    14    9   12 1
    15    9   15 2
    16   10   17 1
    17   10   18 1
    18   10   19 1
    19   11   12 2
    20   13   14 2
    21    1   20 1
    22    2   21 1
    23    3   22 1
    24    4   23 1
    25   15   24 1
    26   15   25 1
    27   16   26 1
    28   16   27 1
    29   16   28 1
@<TRIPOS>Similarity
1.2174
@<TRIPOS>ShapeSim
0.7384
@<TRIPOS>PharmSim
0.4789
# END
# Name:		DB03750
# Created and modified by SHAFTS on Mon Feb  6 15:41:12 2012

# 

@<TRIPOS>MOLECULE
DB03750
   16    15     0
SMALL
USER_CHARGE


@<TRIPOS>ATOM
      1 C1          3.2745    1.3601   -0.1085 C.2       1 <1>         0.0000
      2 C2          4.4410   -2.0316    1.2264 C.3       1 <1>         0.0000
      3 C3          5.6219    0.1697    1.2711 C.3       1 <1>         0.0000
      4 C4          3.5680   -0.1181   -0.1220 C.3       1 <1>         0.0000
      5 C5          4.2555   -0.5134    1.1863 C.3       1 <1>         0.0000
      6 O1          2.7252    1.8813   -1.0641 O.co2     1 <1>        -0.5000
      7 O2          3.5864    2.0347    0.8580 O.co2     1 <1>        -0.5000
      8 H1          4.9310   -2.3133    2.1585 H         1 <1>         0.0000
      9 H2          3.4676   -2.5183    1.1660 H         1 <1>         0.0000
     10 H3          5.0568   -2.3448    0.3832 H         1 <1>         0.0000
     11 H4          5.4898    1.2513    1.2424 H         1 <1>         0.0000
     12 H5          6.1118   -0.1120    2.2032 H         1 <1>         0.0000
     13 H6          6.2376   -0.1434    0.4279 H         1 <1>         0.0000
     14 H7          4.2230   -0.3507   -0.9616 H         1 <1>         0.0000
     15 H8          2.6352   -0.6727   -0.2243 H         1 <1>         0.0000
     16 H9          3.6398   -0.2002    2.0295 H         1 <1>         0.0000
@<TRIPOS>BOND
     1    1    4 1
     2    1    6 1
     3    1    7 2
     4    2    5 1
     5    3    5 1
     6    4    5 1
     7    2    8 1
     8    2    9 1
     9    2   10 1
    10    3   11 1
    11    3   12 1
    12    3   13 1
    13    4   14 1
    14    4   15 1
    15    5   16 1
@<TRIPOS>Similarity
1.2174
@<TRIPOS>ShapeSim
0.6347
@<TRIPOS>PharmSim
0.5826
# END
# Name:		DB07718
# Created and modified by SHAFTS on Mon Feb  6 15:41:12 2012

# 

@<TRIPOS>MOLECULE
DB07718
   20    20     0
SMALL
USER_CHARGE


@<TRIPOS>ATOM
      1 C1          4.9867   -2.6074    1.7214 C.ar      1 <1>         0.0000
      2 C2          6.9395   -1.5546    0.8157 C.ar      1 <1>         0.0000
      3 C3          5.6061   -3.8391    1.6322 C.ar      1 <1>         0.0000
      4 C4          7.5651   -2.7833    0.7294 C.ar      1 <1>         0.0000
      5 C5          5.6537   -1.4660    1.3165 C.ar      1 <1>         0.0000
      6 C6          6.8981   -3.9300    1.1354 C.ar      1 <1>         0.0000
      7 C7          4.2278    0.1567    0.1376 C.2       1 <1>         0.0000
      8 C8          3.4722    1.4353   -0.0202 C.2       1 <1>         0.0000
      9 C9          4.9759   -0.1236    1.4154 C.3       1 <1>         0.0000
     10 O1          3.4563    2.2508    0.8876 O.co2     1 <1>        -0.5000
     11 O2          4.2436   -0.6502   -0.7609 O.2       1 <1>         0.0000
     12 O3          2.8706    1.6646   -1.0571 O.co2     1 <1>        -0.5000
     13 O4          7.5097   -5.1404    1.0471 O.3       1 <1>         0.0000
     14 H1          3.9808   -2.5361    2.1081 H         1 <1>         0.0000
     15 H2          7.4581   -0.6617    0.4995 H         1 <1>         0.0000
     16 H3          5.0849   -4.7302    1.9492 H         1 <1>         0.0000
     17 H4          8.5711   -2.8515    0.3423 H         1 <1>         0.0000
     18 H5          5.7257    0.6512    1.5750 H         1 <1>         0.0000
     19 H6          4.2767   -0.1304    2.2516 H         1 <1>         0.0000
     20 H7          7.2990   -5.4969    0.1732 H         1 <1>         0.0000
@<TRIPOS>BOND
     1    1    3 ar
     2    1    5 ar
     3    2    4 ar
     4    2    5 ar
     5    3    6 ar
     6    4    6 ar
     7    5    9 1
     8    6   13 1
     9    7    8 1
    10    7    9 1
    11    7   11 2
    12    8   10 1
    13    8   12 2
    14    1   14 1
    15    2   15 1
    16    3   16 1
    17    4   17 1
    18    9   18 1
    19    9   19 1
    20   13   20 1
@<TRIPOS>Similarity
1.2167
@<TRIPOS>ShapeSim
0.8186
@<TRIPOS>PharmSim
0.3981
# END
# Name:		DB08075
# Created and modified by SHAFTS on Mon Feb  6 15:41:12 2012

# 

@<TRIPOS>MOLECULE
DB08075
   20    21     0
SMALL
USER_CHARGE


@<TRIPOS>ATOM
      1 C1          5.1025   -2.9708    1.0654 C.ar      1 <1>        -0.0155
      2 C2          6.0246   -3.9779    1.2766 C.ar      1 <1>         0.0329
      3 C3          4.9845    0.7686    1.1308 C.2       1 <1>         0.0067
      4 C4          5.5208   -1.6431    1.2098 C.ar      1 <1>         0.0946
      5 C5          4.5714   -0.5282    0.9946 C.2       1 <1>         0.0983
      6 C6          7.6372   -2.3947    1.7368 C.ar      1 <1>         0.2115
      7 C7          2.4456    0.2064    0.4696 C.2       1 <1>         0.1548
      8 N1          7.2675   -3.6604    1.6068 N.ar      1 <1>        -0.2238
      9 N2          6.7885   -1.3983    1.5386 N.ar      1 <1>        -0.2136
     10 N3          3.3029   -0.7760    0.6710 N.2       1 <1>        -0.2242
     11 N4          8.9460   -2.1067    2.0832 N.pl3     1 <1>        -0.3273
     12 N5          1.1052    0.1420    0.1260 N.pl3     1 <1>        -0.3375
     13 S1          3.4681    1.6420    0.7647 S.3       1 <1>        -0.0605
     14 H1          4.0829   -3.2027    0.7957 H         1 <1>         0.0662
     15 H2          5.7349   -5.0133    1.1739 H         1 <1>         0.0842
     16 H3          5.9585    1.1578    1.3883 H         1 <1>         0.0725
     17 H4          9.5793   -2.8271    2.2274 H         1 <1>         0.1457
     18 H5          9.2299   -1.1843    2.1817 H         1 <1>         0.1457
     19 H6          0.6774   -0.7196    0.0013 H         1 <1>         0.1447
     20 H7          0.5934    0.9583    0.0140 H         1 <1>         0.1447
@<TRIPOS>BOND
     1    1    2 ar
     2    1    4 ar
     3    2    8 ar
     4    3    5 2
     5    3   13 1
     6    4    5 1
     7    4    9 ar
     8    5   10 1
     9    6    8 ar
    10    6    9 ar
    11    6   11 1
    12    7   10 2
    13    7   12 1
    14    7   13 1
    15    1   14 1
    16    2   15 1
    17    3   16 1
    18   11   17 1
    19   11   18 1
    20   12   19 1
    21   12   20 1
@<TRIPOS>Similarity
1.2145
@<TRIPOS>ShapeSim
0.9093
@<TRIPOS>PharmSim
0.3052
# END
# Name:		DB04130
# Created and modified by SHAFTS on Mon Feb  6 15:41:12 2012

# 

@<TRIPOS>MOLECULE
DB04130
   19    20     0
SMALL
USER_CHARGE


@<TRIPOS>ATOM
      1 C1          7.5372   -2.2870    1.3964 C.ar      1 <1>        -0.0360
      2 C2          7.1369   -3.6274    1.3964 C.ar      1 <1>        -0.0298
      3 C3          4.7841   -3.0010    1.3960 C.ar      1 <1>        -0.0040
      4 C4          5.2551    0.4842    1.3964 C.2       1 <1>         0.0851
      5 C5          5.1682   -1.6493    1.3962 C.ar      1 <1>         0.0884
      6 C6          6.5229   -1.3289    1.3964 C.ar      1 <1>         0.0573
      7 C7          5.7854   -3.9802    1.3960 C.ar      1 <1>         0.0769
      8 C8          6.4960   -6.2497    1.3946 C.3       1 <1>         0.0422
      9 N1          4.3961   -0.5103    1.3961 N.2       1 <1>        -0.2393
     10 N2          6.5489    0.0421    1.3965 N.pl3     1 <1>        -0.3040
     11 O1          5.4348   -5.2976    1.3952 O.3       1 <1>        -0.3492
     12 H1          8.5856   -2.0112    1.3967 H         1 <1>         0.0644
     13 H2          7.8982   -4.4043    1.3965 H         1 <1>         0.0651
     14 H3          3.7347   -3.2790    1.3954 H         1 <1>         0.0674
     15 H4          5.0093    1.5366    1.3962 H         1 <1>         0.1014
     16 H5          6.0799   -7.2602    1.3939 H         1 <1>         0.0535
     17 H6          7.1200   -6.1018    2.2795 H         1 <1>         0.0535
     18 H7          7.1013   -6.1069    0.4964 H         1 <1>         0.0535
     19 H8          7.3770    0.6226    1.3984 H         1 <1>         0.1537
@<TRIPOS>BOND
     1    1    2 ar
     2    1    6 ar
     3    2    7 ar
     4    3    5 ar
     5    3    7 ar
     6    4    9 2
     7    4   10 1
     8    5    6 ar
     9    5    9 1
    10    6   10 1
    11    7   11 1
    12    8   11 1
    13    1   12 1
    14    2   13 1
    15    3   14 1
    16    4   15 1
    17    8   16 1
    18    8   17 1
    19    8   18 1
    20   10   19 1
@<TRIPOS>Similarity
1.2134
@<TRIPOS>ShapeSim
0.7719
@<TRIPOS>PharmSim
0.4415
# END
# Name:		DB03876
# Created and modified by SHAFTS on Mon Feb  6 15:41:12 2012

# 

@<TRIPOS>MOLECULE
DB03876
   20    21     0
SMALL
USER_CHARGE


@<TRIPOS>ATOM
      1 C1          6.7091   -1.4043    1.7129 C.ar      1 <1>         0.0000
      2 C2          5.4490   -1.8803    1.3650 C.ar      1 <1>         0.0000
      3 C3          3.0599   -1.1102    0.6859 C.2       1 <1>         0.0000
      4 C4          6.9053   -0.0352    1.7518 C.ar      1 <1>         0.0000
      5 C5          4.4306   -0.9518    1.0683 C.ar      1 <1>         0.0000
      6 C6          2.4217    0.0952    0.4926 C.2       1 <1>         0.0000
      7 C7          4.7682    0.3953    1.1471 C.ar      1 <1>         0.0000
      8 C8          1.0528    0.2257    0.1073 C.cat     1 <1>         0.0000
      9 N1          5.9736    0.9033    1.4793 N.ar      1 <1>         0.0000
     10 N2          0.2772   -0.8637   -0.0971 N.pl3     1 <1>         0.0000
     11 N3          0.4877    1.4429   -0.0637 N.pl3     1 <1>         0.0000
     12 S1          3.4618    1.4239    0.7685 S.3       1 <1>         0.0000
     13 H1          7.5159   -2.0896    1.9473 H         1 <1>         0.0000
     14 H2          5.2593   -2.9488    1.3243 H         1 <1>         0.0000
     15 H3          2.5718   -2.0695    0.5607 H         1 <1>         0.0000
     16 H4          7.8798    0.3640    2.0203 H         1 <1>         0.0000
     17 H5          0.6684   -1.7923    0.0171 H         1 <1>         0.0000
     18 H6         -0.6945   -0.7878   -0.3775 H         1 <1>         0.0000
     19 H7          1.0369    2.2818    0.0867 H         1 <1>         0.0000
     20 H8         -0.4843    1.5522   -0.3321 H         1 <1>         0.0000
@<TRIPOS>BOND
     1    1    2 ar
     2    1    4 ar
     3    2    5 ar
     4    3    5 1
     5    3    6 2
     6    4    9 ar
     7    5    7 ar
     8    6    8 1
     9    6   12 1
    10    7    9 ar
    11    7   12 1
    12    8   10 1
    13    8   11 2
    14    1   13 1
    15    2   14 1
    16    3   15 1
    17    4   16 1
    18   10   17 1
    19   10   18 1
    20   11   19 1
    21   11   20 1
@<TRIPOS>Similarity
1.2127
@<TRIPOS>ShapeSim
0.7923
@<TRIPOS>PharmSim
0.4204
# END
# Name:		DB02891
# Created and modified by SHAFTS on Mon Feb  6 15:41:12 2012

# 

@<TRIPOS>MOLECULE
DB02891
   21    23     0
SMALL
USER_CHARGE


@<TRIPOS>ATOM
      1 C1          6.9791   -0.3912    1.7783 C.ar      1 <1>         0.0000
      2 C2          6.4466   -1.6626    1.6435 C.ar      1 <1>         0.0000
      3 C3          6.1716    0.7064    1.5385 C.ar      1 <1>         0.0000
      4 C4          5.1355   -1.8517    1.2775 C.ar      1 <1>         0.0000
      5 C5          4.2943   -0.7561    1.0224 C.ar      1 <1>         0.0000
      6 C6          4.8594    0.5157    1.1719 C.ar      1 <1>         0.0000
      7 C7          1.9913   -1.7686    0.3844 C.2       1 <1>         0.0000
      8 C8          2.2840    0.3752    0.4515 C.cat     1 <1>         0.0000
      9 C9          4.5951   -3.2521    1.1424 C.3       1 <1>         0.0000
     10 N1          0.8851   -1.1585    0.0703 N.2       1 <1>         0.0000
     11 N2          1.0569    0.1166    0.1097 N.pl3     1 <1>         0.0000
     12 N3          2.9479   -0.8040    0.6456 N.pl3     1 <1>         0.0000
     13 S1          3.5159    1.6107    0.7815 S.3       1 <1>         0.0000
     14 H1          8.0111   -0.2582    2.0673 H         1 <1>         0.0000
     15 H2          7.0738   -2.5219    1.8297 H         1 <1>         0.0000
     16 H3          6.5685    1.7058    1.6388 H         1 <1>         0.0000
     17 H4          2.1367   -2.8377    0.4321 H         1 <1>         0.0000
     18 H5          4.7469   -3.6032    0.1218 H         1 <1>         0.0000
     19 H6          5.1179   -3.9116    1.8351 H         1 <1>         0.0000
     20 H7          3.5297   -3.2542    1.3727 H         1 <1>         0.0000
     21 H8          0.3770    0.7806   -0.0849 H         1 <1>         0.0000
@<TRIPOS>BOND
     1    1    2 ar
     2    1    3 ar
     3    2    4 ar
     4    3    6 ar
     5    4    5 ar
     6    4    9 1
     7    5    6 ar
     8    5   12 1
     9    6   13 1
    10    7   10 2
    11    7   12 1
    12    8   11 1
    13    8   12 1
    14    8   13 1
    15   10   11 1
    16    1   14 1
    17    2   15 1
    18    3   16 1
    19    7   17 1
    20    9   18 1
    21    9   19 1
    22    9   20 1
    23   11   21 1
@<TRIPOS>Similarity
1.2121
@<TRIPOS>ShapeSim
0.8191
@<TRIPOS>PharmSim
0.3930
# END
# Name:		DB04641
# Created and modified by SHAFTS on Mon Feb  6 15:41:12 2012

# 

@<TRIPOS>MOLECULE
DB04641
   22    23     0
SMALL
USER_CHARGE


@<TRIPOS>ATOM
      1 C1          7.5867   -2.6836    2.0468 C.ar      1 <1>         0.0000
      2 C2          7.4478   -4.0094    1.7777 C.ar      1 <1>         0.0000
      3 C3          4.3765   -1.3929    0.6870 C.ar      1 <1>         0.0000
      4 C4          6.6850   -0.4123    1.9531 C.ar      1 <1>         0.0000
      5 C5          5.2897   -3.6580    0.7794 C.ar      1 <1>         0.0000
      6 C6          6.5658   -1.7863    1.6860 C.ar      1 <1>         0.0000
      7 C7          5.4006   -2.2806    1.0436 C.ar      1 <1>         0.0000
      8 C8          4.5205   -0.0392    0.9562 C.ar      1 <1>         0.0000
      9 C9          6.3008   -4.4991    1.1444 C.ar      1 <1>         0.0000
     10 C10         5.6840    0.4418    1.5955 C.ar      1 <1>         0.0000
     11 C11         3.4515    0.9001    0.5786 C.2       1 <1>         0.0000
     12 O1          3.5728    2.0935    0.8188 O.co2     1 <1>        -0.5000
     13 O2          2.4399    0.4864    0.0290 O.co2     1 <1>        -0.5000
     14 O3          6.1919   -5.8295    0.8888 O.3       1 <1>         0.0000
     15 O4          5.8074    1.7681    1.8564 O.3       1 <1>         0.0000
     16 H1          8.4788   -2.3207    2.5357 H         1 <1>         0.0000
     17 H2          8.2348   -4.6943    2.0569 H         1 <1>         0.0000
     18 H3          3.4839   -1.7589    0.2014 H         1 <1>         0.0000
     19 H4          7.5701   -0.0321    2.4416 H         1 <1>         0.0000
     20 H5          4.4089   -4.0479    0.2909 H         1 <1>         0.0000
     21 H6          5.7679   -6.2286    1.6608 H         1 <1>         0.0000
     22 H7          5.4313    1.9163    2.7348 H         1 <1>         0.0000
@<TRIPOS>BOND
     1    1    2 ar
     2    1    6 ar
     3    2    9 ar
     4    3    7 ar
     5    3    8 ar
     6    4    6 ar
     7    4   10 ar
     8    5    7 ar
     9    5    9 ar
    10    6    7 ar
    11    8   10 ar
    12    8   11 1
    13    9   14 1
    14   10   15 1
    15   11   12 1
    16   11   13 2
    17    1   16 1
    18    2   17 1
    19    3   18 1
    20    4   19 1
    21    5   20 1
    22   14   21 1
    23   15   22 1
@<TRIPOS>Similarity
1.2098
@<TRIPOS>ShapeSim
0.8581
@<TRIPOS>PharmSim
0.3517
# END
# Name:		DB00370
# Created and modified by SHAFTS on Mon Feb  6 15:41:12 2012

# 

@<TRIPOS>MOLECULE
DB00370
   40    43     0
SMALL
USER_CHARGE


@<TRIPOS>ATOM
      1 C1          6.6139   -4.0063    1.1044 C.ar      1 <1>        -0.0619
      2 C2          7.7053   -3.1918    0.8663 C.ar      1 <1>        -0.0619
      3 C3          1.9431    0.6464   -0.1636 C.ar      1 <1>        -0.0434
      4 C4          5.4237   -3.4371    1.4954 C.ar      1 <1>        -0.0583
      5 C5          7.5811   -1.8316    1.0207 C.ar      1 <1>        -0.0569
      6 C6          2.3464   -0.4885    0.5293 C.ar      1 <1>        -0.0537
      7 C7          2.6776    1.8078   -0.0284 C.ar      1 <1>         0.0291
      8 C8          5.2977   -2.0554    1.6576 C.ar      1 <1>        -0.0385
      9 C9          6.3720   -1.2458    1.4165 C.ar      1 <1>        -0.0259
     10 C10         3.4746   -0.4000    1.3257 C.ar      1 <1>        -0.0032
     11 C11         4.1742    0.7804    1.4099 C.ar      1 <1>         0.1238
     12 C12         3.9441   -1.5894    2.1062 C.3       1 <1>         0.0012
     13 C13         5.5612    2.3543    2.2225 C.3       1 <1>        -0.0013
     14 C14         6.8605    2.6639    2.9612 C.3       1 <1>        -0.0750
     15 C15         7.7624    0.5955    2.2051 C.3       1 <1>        -0.0678
     16 C16         6.4274    0.2533    1.5260 C.3       1 <1>         0.0349
     17 C17         9.2449    2.3550    2.8875 C.3       1 <1>        -0.1033
     18 N1          3.7496    1.8510    0.7357 N.ar      1 <1>        -0.2411
     19 N2          5.3230    0.9022    2.1697 N.pl3     1 <1>        -0.3121
     20 N3          7.9727    2.0459    2.2211 N.4       1 <1>         0.3824
     21 H1          6.6946   -5.0766    0.9851 H         1 <1>         0.0623
     22 H2          8.6483   -3.6209    0.5617 H         1 <1>         0.0623
     23 H3          1.0690    0.6206   -0.7974 H         1 <1>         0.0639
     24 H4          4.5696   -4.0717    1.6810 H         1 <1>         0.0626
     25 H5          8.4362   -1.1995    0.8323 H         1 <1>         0.0626
     26 H6          1.7949   -1.4136    0.4484 H         1 <1>         0.0627
     27 H7          2.3674    2.6964   -0.5580 H         1 <1>         0.0840
     28 H8          3.2289   -2.4020    1.9786 H         1 <1>         0.0367
     29 H9          3.9923   -1.3240    3.1623 H         1 <1>         0.0367
     30 H10         5.6244    2.7446    1.2068 H         1 <1>         0.0450
     31 H11         4.7311    2.8353    2.7398 H         1 <1>         0.0450
     32 H12         6.8168    2.2523    3.9696 H         1 <1>         0.0075
     33 H13         7.0067    3.7430    3.0106 H         1 <1>         0.0075
     34 H14         7.7522    0.2216    3.2289 H         1 <1>         0.0081
     35 H15         8.5768    0.1194    1.6591 H         1 <1>         0.0081
     36 H16         6.4807    0.6395    0.5081 H         1 <1>         0.0537
     37 H17        10.0629    1.8773    2.3482 H         1 <1>         0.0022
     38 H18         9.3972    3.4342    2.8972 H         1 <1>         0.0022
     39 H19         9.2184    1.9825    3.9116 H         1 <1>         0.0022
     40 H20         7.9895    2.3979    1.2756 H         1 <1>        -0.0823
@<TRIPOS>BOND
     1    1    2 ar
     2    1    4 ar
     3    2    5 ar
     4    3    6 ar
     5    3    7 ar
     6    4    8 ar
     7    5    9 ar
     8    6   10 ar
     9    7   18 ar
    10    8    9 ar
    11    8   12 1
    12    9   16 1
    13   10   11 ar
    14   10   12 1
    15   11   18 ar
    16   11   19 1
    17   13   14 1
    18   13   19 1
    19   14   20 1
    20   15   16 1
    21   15   20 1
    22   16   19 1
    23   17   20 1
    24    1   21 1
    25    2   22 1
    26    3   23 1
    27    4   24 1
    28    5   25 1
    29    6   26 1
    30    7   27 1
    31   12   28 1
    32   12   29 1
    33   13   30 1
    34   13   31 1
    35   14   32 1
    36   14   33 1
    37   15   34 1
    38   15   35 1
    39   16   36 1
    40   17   37 1
    41   17   38 1
    42   17   39 1
    43   20   40 1
@<TRIPOS>Similarity
1.2094
@<TRIPOS>ShapeSim
0.8270
@<TRIPOS>PharmSim
0.3824
# END
# Name:		DB03506
# Created and modified by SHAFTS on Mon Feb  6 15:41:12 2012

# 

@<TRIPOS>MOLECULE
DB03506
   16    17     0
SMALL
USER_CHARGE


@<TRIPOS>ATOM
      1 C1          4.4266   -0.6457    1.3970 C.2       1 <1>        -0.0204
      2 C2          5.2300    0.4346    1.3923 C.2       1 <1>        -0.0048
      3 C3          6.1052   -3.9728    1.3973 C.ar      1 <1>         0.1180
      4 C4          5.2909   -1.8213    1.3966 C.ar      1 <1>         0.0909
      5 C5          6.6090   -1.3322    1.3992 C.ar      1 <1>         0.0966
      6 C6          7.6566   -2.2599    1.3917 C.ar      1 <1>         0.1404
      7 N1          5.0868   -3.1414    1.3985 N.ar      1 <1>        -0.2348
      8 N2          7.3591   -3.5555    1.3937 N.ar      1 <1>        -0.2199
      9 N3          6.5360    0.0412    1.3965 N.pl3     1 <1>        -0.3164
     10 N4          8.9760   -1.8370    1.3881 N.pl3     1 <1>        -0.3416
     11 H1          3.3466   -0.6427    1.3954 H         1 <1>         0.0659
     12 H2          4.8908    1.4599    1.3896 H         1 <1>         0.0790
     13 H3          5.9102   -5.0350    1.3988 H         1 <1>         0.1063
     14 H4          7.2989    0.6402    1.3980 H         1 <1>         0.1524
     15 H5          9.1816   -0.8891    1.3907 H         1 <1>         0.1442
     16 H6          9.6943   -2.4891    1.3869 H         1 <1>         0.1442
@<TRIPOS>BOND
     1    1    2 2
     2    1    4 1
     3    2    9 1
     4    3    7 ar
     5    3    8 ar
     6    4    5 ar
     7    4    7 ar
     8    5    6 ar
     9    5    9 1
    10    6    8 ar
    11    6   10 1
    12    1   11 1
    13    2   12 1
    14    3   13 1
    15    9   14 1
    16   10   15 1
    17   10   16 1
@<TRIPOS>Similarity
1.2057
@<TRIPOS>ShapeSim
0.7964
@<TRIPOS>PharmSim
0.4093
# END
# Name:		DB08666
# Created and modified by SHAFTS on Mon Feb  6 15:41:12 2012

# 

@<TRIPOS>MOLECULE
DB08666
   28    29     0
SMALL
USER_CHARGE


@<TRIPOS>ATOM
      1 C1          5.7652   -3.8138    2.0383 C.ar      1 <1>         0.0000
      2 C2          7.1489   -3.8434    2.0091 C.ar      1 <1>         0.0000
      3 C3          5.0824   -2.7590    1.4711 C.ar      1 <1>         0.0000
      4 C4          7.1914   -1.7514    0.8439 C.ar      1 <1>         0.0000
      5 C5          7.8586   -2.8157    1.4110 C.ar      1 <1>         0.0000
      6 C6          5.7921   -1.7164    0.8645 C.ar      1 <1>         0.0000
      7 C7          3.1734    0.3981   -0.2326 C.2       1 <1>         0.0000
      8 C8          3.7038    1.4907   -0.8677 C.2       1 <1>         0.0000
      9 C9          1.6962    0.6120   -0.3045 C.cat     1 <1>         0.0000
     10 C10         9.3648   -2.8582    1.3855 C.3       1 <1>         0.0000
     11 N1          2.6994    2.2754   -1.2721 N.2       1 <1>         0.0000
     12 N2          1.5470    1.8052   -0.9642 N.2       1 <1>         0.0000
     13 N3          5.1244   -0.6699    0.3010 N.2       1 <1>         0.0000
     14 N4          3.8350   -0.6390    0.3259 N.2       1 <1>         0.0000
     15 N5          0.7594   -0.1591    0.1619 N.pl3     1 <1>         0.0000
     16 N6          5.0655    1.7425   -1.0598 N.4       1 <1>         0.0000
     17 F1          9.8684   -2.2331    2.5313 F         1 <1>         0.0000
     18 F2          9.8309   -2.1912    0.2474 F         1 <1>         0.0000
     19 F3          9.7933   -4.1895    1.3540 F         1 <1>         0.0000
     20 H1          5.2191   -4.6194    2.5064 H         1 <1>         0.0000
     21 H2          7.6779   -4.6727    2.4550 H         1 <1>         0.0000
     22 H3          4.0028   -2.7376    1.4944 H         1 <1>         0.0000
     23 H4          7.7463   -0.9507    0.3778 H         1 <1>         0.0000
     24 H5         -0.1718    0.0920    0.0583 H         1 <1>         0.0000
     25 H6          0.9916   -0.9855    0.6135 H         1 <1>         0.0000
     26 H7          5.3625    1.3365   -1.9344 H         1 <1>         0.0000
     27 H8          5.2235    2.7388   -1.0806 H         1 <1>         0.0000
     28 H9          5.5931    1.3341   -0.3030 H         1 <1>         0.0000
@<TRIPOS>BOND
     1    1    2 ar
     2    1    3 ar
     3    2    5 ar
     4    3    6 ar
     5    4    5 ar
     6    4    6 ar
     7    5   10 1
     8    6   13 1
     9    7    8 2
    10    7    9 1
    11    7   14 1
    12    8   11 1
    13    8   16 1
    14    9   12 1
    15    9   15 2
    16   10   17 1
    17   10   18 1
    18   10   19 1
    19   11   12 2
    20   13   14 2
    21    1   20 1
    22    2   21 1
    23    3   22 1
    24    4   23 1
    25   15   24 1
    26   15   25 1
    27   16   26 1
    28   16   27 1
    29   16   28 1
@<TRIPOS>Similarity
1.2054
@<TRIPOS>ShapeSim
0.7263
@<TRIPOS>PharmSim
0.4791
# END
# Name:		DB02591
# Created and modified by SHAFTS on Mon Feb  6 15:41:12 2012

# 

@<TRIPOS>MOLECULE
DB02591
   21    22     0
SMALL
USER_CHARGE


@<TRIPOS>ATOM
      1 C1          4.8803   -2.9865    1.3960 C.ar      1 <1>        -0.0312
      2 C2          7.6065   -2.1758    1.3964 C.ar      1 <1>        -0.0354
      3 C3          5.2280    0.5131    1.3964 C.2       1 <1>         0.0851
      4 C4          5.9156   -3.9298    1.3961 C.ar      1 <1>        -0.0459
      5 C5          7.2537   -3.5295    1.3964 C.ar      1 <1>        -0.0462
      6 C6          5.2165   -1.6222    1.3963 C.ar      1 <1>         0.0861
      7 C7          6.5589   -1.2541    1.3964 C.ar      1 <1>         0.0574
      8 C8          5.5554   -5.3813    1.3961 C.3       1 <1>        -0.0394
      9 C9          8.3498   -4.5476    1.3971 C.3       1 <1>        -0.0394
     10 N1          4.4046   -0.5112    1.3961 N.2       1 <1>        -0.2394
     11 N2          6.5366    0.1170    1.3965 N.pl3     1 <1>        -0.3040
     12 H1          3.8401   -3.2978    1.3947 H         1 <1>         0.0649
     13 H2          8.6422   -1.8535    1.3969 H         1 <1>         0.0646
     14 H3          4.9455    1.5564    1.3957 H         1 <1>         0.1014
     15 H4          5.4645   -5.7481    0.3679 H         1 <1>         0.0280
     16 H5          6.3159   -5.9762    1.9154 H         1 <1>         0.0280
     17 H6          4.6050   -5.5517    1.9154 H         1 <1>         0.0280
     18 H7          8.6257   -4.8042    2.4255 H         1 <1>         0.0280
     19 H8          8.0390   -5.4614    0.8778 H         1 <1>         0.0280
     20 H9          9.2386   -4.1696    0.8783 H         1 <1>         0.0280
     21 H10         7.3435    0.7266    1.3973 H         1 <1>         0.1537
@<TRIPOS>BOND
     1    1    4 ar
     2    1    6 ar
     3    2    5 ar
     4    2    7 ar
     5    3   10 2
     6    3   11 1
     7    4    5 ar
     8    4    8 1
     9    5    9 1
    10    6    7 ar
    11    6   10 1
    12    7   11 1
    13    1   12 1
    14    2   13 1
    15    3   14 1
    16    8   15 1
    17    8   16 1
    18    8   17 1
    19    9   18 1
    20    9   19 1
    21    9   20 1
    22   11   21 1
@<TRIPOS>Similarity
1.2050
@<TRIPOS>ShapeSim
0.7876
@<TRIPOS>PharmSim
0.4174
# END
# Name:		DB04114
# Created and modified by SHAFTS on Mon Feb  6 15:41:12 2012

# 

@<TRIPOS>MOLECULE
DB04114
   41    44     0
SMALL
USER_CHARGE


@<TRIPOS>ATOM
      1 C1          5.2774   -3.4823    1.3970 C.ar      1 <1>        -0.0495
      2 C2          6.4605   -4.1576    1.3891 C.ar      1 <1>        -0.0427
      3 C3          7.7103   -2.1095    1.3982 C.ar      1 <1>        -0.0192
      4 C4          5.2795   -2.0806    1.3983 C.ar      1 <1>         0.0192
      5 C5          4.1570    0.0517    1.3944 C.ar      1 <1>        -0.0037
      6 C6          6.5093   -1.3796    1.3979 C.ar      1 <1>         0.0489
      7 C7          4.0781   -1.3382    1.3993 C.ar      1 <1>         0.0381
      8 C8          7.6739   -3.4714    1.3964 C.ar      1 <1>         0.0427
      9 C9          5.3965    0.6665    1.3943 C.ar      1 <1>         0.0212
     10 C10         3.9944    2.5254   -0.5090 C.2       1 <1>        -0.0818
     11 C11         3.1443    1.6477   -0.9378 C.2       1 <1>        -0.0735
     12 C12         5.5429    2.1688    1.3943 C.3       1 <1>        -0.0059
     13 C13         2.2819    0.8138   -0.0340 C.3       1 <1>        -0.0249
     14 C14         3.0989    2.2755    1.8002 C.3       1 <1>        -0.0392
     15 C15         2.8635    0.8215    1.3836 C.3       1 <1>        -0.0083
     16 C16         4.2402    2.8266    0.9387 C.3       1 <1>        -0.0170
     17 C17         3.9013    0.2892   -2.8693 C.3       1 <1>        -0.0616
     18 C18         3.0121    1.4529   -2.4263 C.3       1 <1>        -0.0348
     19 N1          6.5105   -0.0456    1.3965 N.ar      1 <1>        -0.3580
     20 N2          2.8486   -1.9789    1.4039 N.pl3     1 <1>        -0.3574
     21 Cl1         9.1616   -4.3662    1.3962 Cl        1 <1>        -0.0842
     22 H1          4.3430   -4.0239    1.3970 H         1 <1>         0.0631
     23 H2          6.4583   -5.2376    1.3876 H         1 <1>         0.0638
     24 H3          8.6586   -1.5927    1.4001 H         1 <1>         0.0660
     25 H4          4.5641    3.0763   -1.2426 H         1 <1>         0.0578
     26 H5          5.7858    2.5080    2.4012 H         1 <1>         0.0337
     27 H6          6.3473    2.4531    0.7160 H         1 <1>         0.0337
     28 H7          2.2493   -0.2100   -0.4068 H         1 <1>         0.0319
     29 H8          1.2725    1.2248   -0.0150 H         1 <1>         0.0319
     30 H9          2.1939    2.8592    1.6323 H         1 <1>         0.0279
     31 H10         3.3770    2.3178    2.8533 H         1 <1>         0.0279
     32 H11         2.1566    0.3547    2.0695 H         1 <1>         0.0357
     33 H12         4.3108    3.9055    1.0770 H         1 <1>         0.0350
     34 H13         3.8057    0.1483   -3.9459 H         1 <1>         0.0234
     35 H14         4.9395    0.5109   -2.6227 H         1 <1>         0.0234
     36 H15         3.5919   -0.6206   -2.3549 H         1 <1>         0.0234
     37 H16         1.9738    1.2312   -2.6730 H         1 <1>         0.0310
     38 H17         3.3214    2.3628   -2.9407 H         1 <1>         0.0310
     39 H18         7.3615    0.4199    1.3966 H         1 <1>         0.1662
     40 H19         2.0303   -1.4579    1.4038 H         1 <1>         0.1427
     41 H20         2.8065   -2.9480    1.4073 H         1 <1>         0.1427
@<TRIPOS>BOND
     1    1    2 ar
     2    1    4 ar
     3    2    8 ar
     4    3    6 ar
     5    3    8 ar
     6    4    6 ar
     7    4    7 ar
     8    5    7 ar
     9    5    9 ar
    10    5   15 1
    11    6   19 ar
    12    7   20 1
    13    8   21 1
    14    9   12 1
    15    9   19 ar
    16   10   11 2
    17   10   16 1
    18   11   13 1
    19   11   18 1
    20   12   16 1
    21   13   15 1
    22   14   15 1
    23   14   16 1
    24   17   18 1
    25    1   22 1
    26    2   23 1
    27    3   24 1
    28   10   25 1
    29   12   26 1
    30   12   27 1
    31   13   28 1
    32   13   29 1
    33   14   30 1
    34   14   31 1
    35   15   32 1
    36   16   33 1
    37   17   34 1
    38   17   35 1
    39   17   36 1
    40   18   37 1
    41   18   38 1
    42   19   39 1
    43   20   40 1
    44   20   41 1
@<TRIPOS>Similarity
1.2047
@<TRIPOS>ShapeSim
0.8291
@<TRIPOS>PharmSim
0.3756
# END
# Name:		DB00749
# Created and modified by SHAFTS on Mon Feb  6 15:41:12 2012

# 

@<TRIPOS>MOLECULE
DB00749
   41    43     0
SMALL
USER_CHARGE


@<TRIPOS>ATOM
      1 C1          6.1128   -4.0963    1.3581 C.ar      1 <1>         0.0000
      2 C2          5.0821   -3.1954    1.0667 C.ar      1 <1>         0.0000
      3 C3          7.3873   -3.6396    1.6869 C.ar      1 <1>         0.0000
      4 C4          5.3448   -1.8116    1.1088 C.ar      1 <1>         0.0000
      5 C5          4.5704   -0.6436    0.8785 C.2       1 <1>         0.0000
      6 C6          7.6725   -2.2721    1.7357 C.ar      1 <1>         0.0000
      7 C7          6.6335   -1.3813    1.4430 C.ar      1 <1>         0.0000
      8 C8          5.3835    0.4505    1.0827 C.2       1 <1>         0.0000
      9 C9          5.0689    1.9566    3.5023 C.2       1 <1>         0.0000
     10 C10         3.1466   -0.4673    0.4990 C.3       1 <1>         0.0000
     11 C11         2.9522    0.9428   -0.0770 C.3       1 <1>         0.0000
     12 C12         4.9763    1.8844    0.9296 C.3       1 <1>         0.0000
     13 C13         9.8446   -1.3664    0.8707 C.3       1 <1>         0.0000
     14 C14         5.2241    3.9580   -0.4443 C.3       1 <1>         0.0000
     15 C15         9.0490   -1.8191    2.0919 C.3       1 <1>         0.0000
     16 C16         5.3024    2.6937    2.1881 C.3       1 <1>         0.0000
     17 C17         5.6314    2.5304   -0.2944 C.3       1 <1>         0.0000
     18 N1          6.6300   -0.0025    1.4148 N.pl3     1 <1>         0.0000
     19 O1          3.8904    1.5807    3.7497 O.co2     1 <1>        -0.5000
     20 O2          6.1182    1.8122    4.1943 O.co2     1 <1>        -0.5000
     21 O3          3.5306    1.9326    0.7911 O.3       1 <1>         0.0000
     22 H1          5.9151   -5.1644    1.3265 H         1 <1>         0.0000
     23 H2          4.0936   -3.5666    0.8114 H         1 <1>         0.0000
     24 H3          8.1668   -4.3657    1.9075 H         1 <1>         0.0000
     25 H4          2.8288   -1.2201   -0.2292 H         1 <1>         0.0000
     26 H5          2.5325   -0.5815    1.4004 H         1 <1>         0.0000
     27 H6          3.3836    1.0309   -1.0801 H         1 <1>         0.0000
     28 H7          1.8826    1.1603   -0.1621 H         1 <1>         0.0000
     29 H8          9.9089   -2.1659    0.1249 H         1 <1>         0.0000
     30 H9         10.8636   -1.0854    1.1551 H         1 <1>         0.0000
     31 H10         9.3740   -0.4996    0.3943 H         1 <1>         0.0000
     32 H11         4.1343    4.0178   -0.5481 H         1 <1>         0.0000
     33 H12         5.6752    4.4027   -1.3377 H         1 <1>         0.0000
     34 H13         5.5142    4.5426    0.4351 H         1 <1>         0.0000
     35 H14         9.0044   -0.9932    2.8194 H         1 <1>         0.0000
     36 H15         9.5986   -2.6269    2.6009 H         1 <1>         0.0000
     37 H16         4.6902    3.5975    2.1819 H         1 <1>         0.0000
     38 H17         6.3504    2.9956    2.1392 H         1 <1>         0.0000
     39 H18         6.7163    2.4645   -0.1905 H         1 <1>         0.0000
     40 H19         5.3451    1.9689   -1.1859 H         1 <1>         0.0000
     41 H20         7.4308    0.5825    1.6101 H         1 <1>         0.0000
@<TRIPOS>BOND
     1    1    2 ar
     2    1    3 ar
     3    2    4 ar
     4    3    6 ar
     5    4    5 1
     6    4    7 ar
     7    5    8 2
     8    5   10 1
     9    6    7 ar
    10    6   15 1
    11    7   18 1
    12    8   12 1
    13    8   18 1
    14    9   16 1
    15    9   19 1
    16    9   20 2
    17   10   11 1
    18   11   21 1
    19   12   16 1
    20   12   17 1
    21   12   21 1
    22   13   15 1
    23   14   17 1
    24    1   22 1
    25    2   23 1
    26    3   24 1
    27   10   25 1
    28   10   26 1
    29   11   27 1
    30   11   28 1
    31   13   29 1
    32   13   30 1
    33   13   31 1
    34   14   32 1
    35   14   33 1
    36   14   34 1
    37   15   35 1
    38   15   36 1
    39   16   37 1
    40   16   38 1
    41   17   39 1
    42   17   40 1
    43   18   41 1
@<TRIPOS>Similarity
1.2032
@<TRIPOS>ShapeSim
0.7484
@<TRIPOS>PharmSim
0.4548
# END
# Name:		DB02292
# Created and modified by SHAFTS on Mon Feb  6 15:41:12 2012

# 

@<TRIPOS>MOLECULE
DB02292
   36    38     0
SMALL
USER_CHARGE


@<TRIPOS>ATOM
      1 C1          4.4136   -1.7992    2.3146 C.ar      1 <1>        -0.0493
      2 C2          3.8053   -0.6528    1.8902 C.ar      1 <1>        -0.0286
      3 C3          5.5384   -0.2998    0.2480 C.ar      1 <1>         0.0023
      4 C4          5.6048   -2.2164    1.7101 C.ar      1 <1>         0.0093
      5 C5          6.1721   -1.4576    0.6720 C.ar      1 <1>         0.0959
      6 C6          4.3618    0.1023    0.8600 C.ar      1 <1>         0.1063
      7 C7          6.2748   -3.4502    2.1480 C.2       1 <1>        -0.0288
      8 C8          7.4317   -3.7931    1.5501 C.2       1 <1>         0.0288
      9 C9          7.9444   -2.9821    0.5058 C.2       1 <1>         0.2940
     10 C10         5.6103   -4.2667    3.2257 C.3       1 <1>        -0.0267
     11 C11         8.2302   -5.0039    1.9523 C.3       1 <1>        -0.0215
     12 C12         6.6369   -5.0383    4.0550 C.3       1 <1>        -0.0492
     13 C13         7.3466   -6.2530    1.9927 C.3       1 <1>        -0.0490
     14 C14         6.8326   -6.4177    3.4207 C.3       1 <1>        -0.0527
     15 N1          1.4812    0.0974    0.0659 N.pl3     1 <1>        -0.2849
     16 O1          8.9841   -3.3092   -0.0377 O.2       1 <1>        -0.2606
     17 O2          2.2748    2.0547   -1.1910 O.2       1 <1>        -0.4579
     18 O3          3.4360   -0.1780   -1.3982 O.2       1 <1>        -0.4579
     19 O4          7.3230   -1.8680    0.0980 O.3       1 <1>        -0.2738
     20 O5          3.7434    1.2385    0.4485 O.3       1 <1>        -0.2266
     21 S1          2.7754    0.8373   -0.6553 S.o2      1 <1>        -0.0775
     22 H1          3.9778   -2.3809    3.1132 H         1 <1>         0.0631
     23 H2          2.8866   -0.3290    2.3565 H         1 <1>         0.0651
     24 H3          5.9641    0.2905   -0.5500 H         1 <1>         0.0679
     25 H4          5.0494   -3.6015    3.8821 H         1 <1>         0.0316
     26 H5          4.9215   -4.9738    2.7636 H         1 <1>         0.0316
     27 H6          9.0352   -5.1574    1.2335 H         1 <1>         0.0318
     28 H7          8.6599   -4.8368    2.9400 H         1 <1>         0.0318
     29 H8          7.5842   -4.4991    4.0604 H         1 <1>         0.0270
     30 H9          6.2730   -5.1522    5.0760 H         1 <1>         0.0270
     31 H10         7.9313   -7.1277    1.7078 H         1 <1>         0.0270
     32 H11         6.5059   -6.1319    1.3097 H         1 <1>         0.0270
     33 H12         7.5568   -6.9864    4.0042 H         1 <1>         0.0267
     34 H13         5.8809   -6.9489    3.4054 H         1 <1>         0.0267
     35 H14         1.4886   -0.8622    0.2082 H         1 <1>         0.1621
     36 H15         0.7160    0.6234    0.3461 H         1 <1>         0.1621
@<TRIPOS>BOND
     1    1    2 ar
     2    1    4 ar
     3    2    6 ar
     4    3    5 ar
     5    3    6 ar
     6    4    5 ar
     7    4    7 1
     8    5   19 1
     9    6   20 1
    10    7    8 2
    11    7   10 1
    12    8    9 1
    13    8   11 1
    14    9   16 2
    15    9   19 1
    16   10   12 1
    17   11   13 1
    18   12   14 1
    19   13   14 1
    20   15   21 1
    21   17   21 2
    22   18   21 2
    23   20   21 1
    24    1   22 1
    25    2   23 1
    26    3   24 1
    27   10   25 1
    28   10   26 1
    29   11   27 1
    30   11   28 1
    31   12   29 1
    32   12   30 1
    33   13   31 1
    34   13   32 1
    35   14   33 1
    36   14   34 1
    37   15   35 1
    38   15   36 1
@<TRIPOS>Similarity
1.2024
@<TRIPOS>ShapeSim
0.7175
@<TRIPOS>PharmSim
0.4849
# END
# Name:		DB06952
# Created and modified by SHAFTS on Mon Feb  6 15:41:12 2012

# 

@<TRIPOS>MOLECULE
DB06952
   21    22     0
SMALL
USER_CHARGE


@<TRIPOS>ATOM
      1 C1          6.9054   -0.4027    1.7199 C.ar      1 <1>         0.0000
      2 C2          6.5677   -1.4425    0.8717 C.ar      1 <1>         0.0000
      3 C3          5.9245    0.4388    2.2097 C.ar      1 <1>         0.0000
      4 C4          5.2511   -1.6566    0.5085 C.ar      1 <1>         0.0000
      5 C5          4.6001    0.2325    1.8449 C.ar      1 <1>         0.0000
      6 C6          4.2539   -0.8252    0.9936 C.ar      1 <1>         0.0000
      7 C7          3.5211    1.1259    2.3292 C.2       1 <1>         0.0000
      8 C8          2.3904    1.1110    1.6147 C.2       1 <1>         0.0000
      9 C9          3.0060    0.8946   -0.7522 C.2       1 <1>         0.0000
     10 C10         2.3248    0.2131    0.4064 C.3       1 <1>         0.0000
     11 O1          2.6498    2.0075   -1.0999 O.co2     1 <1>        -0.5000
     12 O2          3.9102    0.3310   -1.3450 O.co2     1 <1>        -0.5000
     13 O3          2.9613   -1.0325    0.6526 O.3       1 <1>         0.0000
     14 O4          0.9554   -0.0209    0.0715 O.3       1 <1>         0.0000
     15 H1          7.9371   -0.2483    1.9993 H         1 <1>         0.0000
     16 H2          7.3403   -2.0931    0.4896 H         1 <1>         0.0000
     17 H3          6.1860    1.2515    2.8713 H         1 <1>         0.0000
     18 H4          4.9995   -2.4718   -0.1537 H         1 <1>         0.0000
     19 H5          3.6403    1.7491    3.2032 H         1 <1>         0.0000
     20 H6          1.5481    1.7259    1.8957 H         1 <1>         0.0000
     21 H7          0.9522   -0.5864   -0.7130 H         1 <1>         0.0000
@<TRIPOS>BOND
     1    1    2 ar
     2    1    3 ar
     3    2    4 ar
     4    3    5 ar
     5    4    6 ar
     6    5    6 ar
     7    5    7 1
     8    6   13 1
     9    7    8 2
    10    8   10 1
    11    9   10 1
    12    9   11 1
    13    9   12 2
    14   10   13 1
    15   10   14 1
    16    1   15 1
    17    2   16 1
    18    3   17 1
    19    4   18 1
    20    7   19 1
    21    8   20 1
    22   14   21 1
@<TRIPOS>Similarity
1.2000
@<TRIPOS>ShapeSim
0.7617
@<TRIPOS>PharmSim
0.4384
# END
