@<TRIPOS>MOLECULE
AE-473/30080045
   29    30     0
SMALL
USER_CHARGE


@<TRIPOS>ATOM
      1 C1          6.6749   -3.9675    1.4848 C.ar      1 <1>        -0.0988
      2 C2          7.8755   -3.2665    1.3909 C.ar      1 <1>        -0.0951
      3 C3          5.4501   -3.2904    1.5082 C.ar      1 <1>        -0.0922
      4 C4          7.8915   -1.8707    1.3176 C.ar      1 <1>        -0.0869
      5 C5          5.0196    0.3356    1.3406 C.2       1 <1>        -0.0665
      6 C6          5.4412   -1.8832    1.4354 C.ar      1 <1>        -0.0846
      7 C7          4.4154   -0.8970    1.4332 C.2       1 <1>        -0.0906
      8 C8          6.6596   -1.2072    1.3420 C.ar      1 <1>        -0.0714
      9 C9          2.2857    0.9144    0.2015 C.2       1 <1>        -0.0565
     10 C10         1.8663    1.7547    1.3846 C.3       1 <1>        -0.0123
     11 C11         2.9608   -1.1405    1.5167 C.3       1 <1>        -0.0233
     12 C12         2.1601   -0.5941    0.3204 C.3       1 <1>        -0.0123
     13 N1          2.7790    1.4005   -0.8965 N.2       1 <1>        -0.3700
     14 N2          6.3733    0.1383    1.2859 N.pl3     1 <1>        -0.3679
     15 O1          3.0721    0.3849   -1.8087 O.3       1 <1>        -0.4000
     16 H1          6.6880   -5.0526    1.5400 H         1 <1>         0.1099
     17 H2          8.8153   -3.8125    1.3745 H         1 <1>         0.1190
     18 H3          4.5227   -3.8512    1.5806 H         1 <1>         0.1247
     19 H4          8.8268   -1.3259    1.2457 H         1 <1>         0.1236
     20 H5          4.6088    1.3353    1.3071 H         1 <1>         0.1791
     21 H6          2.7252    1.9061    2.0441 H         1 <1>         0.0912
     22 H7          1.4908    2.7226    1.0420 H         1 <1>         0.0914
     23 H8          1.0725    1.2567    1.9473 H         1 <1>         0.0879
     24 H9          2.7607   -2.2266    1.5821 H         1 <1>         0.0747
     25 H10         2.5398   -0.7220    2.4501 H         1 <1>         0.0773
     26 H11         2.5011   -1.0586   -0.6126 H         1 <1>         0.0871
     27 H12         1.0960   -0.8334    0.4310 H         1 <1>         0.0887
     28 H13         7.0632    0.8733    1.2146 H         1 <1>         0.2949
     29 H14         3.4239    0.8925   -2.5594 H         1 <1>         0.3790
@<TRIPOS>BOND
     1    1    2 ar
     2    1    3 ar
     3    2    4 ar
     4    3    6 ar
     5    4    8 ar
     6    5    7 2
     7    5   14 1
     8    6    7 1
     9    6    8 ar
    10    7   11 1
    11    8   14 1
    12    9   10 1
    13    9   12 1
    14    9   13 2
    15   11   12 1
    16   13   15 1
    17    1   16 1
    18    2   17 1
    19    3   18 1
    20    4   19 1
    21    5   20 1
    22   10   21 1
    23   10   22 1
    24   10   23 1
    25   11   24 1
    26   11   25 1
    27   12   26 1
    28   12   27 1
    29   14   28 1
    30   15   29 1
