@<TRIPOS>MOLECULE
AE-641/00364007
   26    27     0
SMALL
USER_CHARGE


@<TRIPOS>ATOM
      1 C1          6.2401   -3.9921    1.2384 C.ar      1 <1>        -0.1689
      2 C2          7.5491   -3.5182    1.2967 C.ar      1 <1>        -0.1213
      3 C3          5.1564   -3.1063    1.2490 C.ar      1 <1>        -0.0624
      4 C4          7.8173   -2.1482    1.3671 C.ar      1 <1>        -0.1342
      5 C5          5.4021   -1.7207    1.3196 C.ar      1 <1>        -0.1000
      6 C6          4.5702   -0.5665    1.3497 C.2       1 <1>        -0.1286
      7 C7          6.7242   -1.2745    1.3770 C.ar      1 <1>         0.0780
      8 C8          5.3882    0.5374    1.4236 C.2       1 <1>         0.0295
      9 C9          4.9482    1.9993    1.4805 C.2       1 <1>         0.5409
     10 C10         2.9621    0.1885   -1.1801 C.2       1 <1>         0.4969
     11 C11         3.0924   -0.5581    1.3095 C.3       1 <1>        -0.0204
     12 C12         2.5260   -0.8034   -0.0968 C.3       1 <1>        -0.1608
     13 N1          6.6856    0.1003    1.4394 N.pl3     1 <1>        -0.5695
     14 O1          5.8666    2.8623    1.5462 O.co2     1 <1>        -0.5000
     15 O2          2.5945    1.3800   -0.9655 O.co2     1 <1>        -0.5000
     16 O3          3.7053    2.2155    1.4574 O.co2     1 <1>        -0.5000
     17 O4          3.6259   -0.2813   -2.1443 O.co2     1 <1>        -0.5000
     18 H1          6.0565   -5.0618    1.1842 H         1 <1>         0.1092
     19 H2          8.3763   -4.2241    1.2880 H         1 <1>         0.1103
     20 H3          4.1417   -3.4913    1.2034 H         1 <1>         0.1177
     21 H4          8.8372   -1.7808    1.4123 H         1 <1>         0.1074
     22 H5          2.6794   -1.3201    1.9960 H         1 <1>         0.0921
     23 H6          2.6973    0.4023    1.6886 H         1 <1>         0.0465
     24 H7          1.4292   -0.7843   -0.0542 H         1 <1>         0.0399
     25 H8          2.8129   -1.8080   -0.4333 H         1 <1>         0.0583
     26 H9          7.4988    0.6984    1.4887 H         1 <1>         0.4129
@<TRIPOS>BOND
     1    1    2 ar
     2    1    3 ar
     3    2    4 ar
     4    3    5 ar
     5    4    7 ar
     6    5    6 1
     7    5    7 ar
     8    6    8 2
     9    6   11 1
    10    7   13 1
    11    8    9 1
    12    8   13 1
    13    9   14 1
    14    9   16 2
    15   10   12 1
    16   10   15 1
    17   10   17 2
    18   11   12 1
    19    1   18 1
    20    2   19 1
    21    3   20 1
    22    4   21 1
    23   11   22 1
    24   11   23 1
    25   12   24 1
    26   12   25 1
    27   13   26 1
