@<TRIPOS>MOLECULE
ZINC13123192
   29    31     0
SMALL
USER_CHARGE


@<TRIPOS>ATOM
      1 C1          6.8136   -4.0126    1.0951 C.ar      1 <1>        -0.0961
      2 C2          7.9935   -3.2923    0.9217 C.ar      1 <1>        -0.0924
      3 C3          5.6045   -3.3564    1.3515 C.ar      1 <1>        -0.0857
      4 C4          8.0044   -1.8967    0.9998 C.ar      1 <1>        -0.0801
      5 C5          5.5891   -1.9497    1.4313 C.ar      1 <1>        -0.0721
      6 C6          4.5854   -0.9755    1.6716 C.2       1 <1>        -0.0732
      7 C7          6.7892   -1.2516    1.2562 C.ar      1 <1>        -0.0584
      8 C8          5.1760    0.2672    1.6254 C.2       1 <1>        -0.0430
      9 C9          4.4244    1.4750    1.8331 C.2       1 <1>        -0.0539
     10 C10         2.4265    0.2081    1.4782 C.3       1 <1>        -0.0070
     11 C11         3.1268   -1.0868    1.9588 C.3       1 <1>        -0.0199
     12 C12         5.1591    2.7626    2.0807 C.3       1 <1>        -0.0071
     13 C13         2.8693   -1.3273    3.4481 C.3       1 <1>        -0.0522
     14 N1          3.1303    1.4662    1.8332 N.2       1 <1>        -0.4340
     15 N2          6.5102    0.0932    1.3900 N.pl3     1 <1>        -0.3500
     16 H1          6.8307   -5.0974    1.0308 H         1 <1>         0.1103
     17 H2          8.9216   -3.8230    0.7248 H         1 <1>         0.1198
     18 H3          4.6929   -3.9313    1.4858 H         1 <1>         0.1333
     19 H4          8.9250   -1.3383    0.8665 H         1 <1>         0.1332
     20 H5          2.3253    0.1855    0.3852 H         1 <1>         0.1030
     21 H6          1.4091    0.2555    1.8830 H         1 <1>         0.1124
     22 H7          2.7052   -1.9319    1.4004 H         1 <1>         0.0868
     23 H8          5.3520    3.2552    1.1316 H         1 <1>         0.0990
     24 H9          6.0998    2.5502    2.5820 H         1 <1>         0.0956
     25 H10         4.5531    3.4071    2.7124 H         1 <1>         0.0943
     26 H11         3.2778   -0.5028    4.0280 H         1 <1>         0.0391
     27 H12         3.3467   -2.2546    3.7568 H         1 <1>         0.0438
     28 H13         1.7988   -1.3972    3.6276 H         1 <1>         0.0423
     29 H14         7.1937    0.8338    1.3138 H         1 <1>         0.3121
@<TRIPOS>BOND
     1    1    2 ar
     2    1    3 ar
     3    2    4 ar
     4    3    5 ar
     5    4    7 ar
     6    5    6 1
     7    5    7 ar
     8    6    8 2
     9    6   11 1
    10    7   15 1
    11    8    9 1
    12    8   15 1
    13    9   12 1
    14    9   14 2
    15   10   11 1
    16   10   14 1
    17   11   13 1
    18    1   16 1
    19    2   17 1
    20    3   18 1
    21    4   19 1
    22   10   20 1
    23   10   21 1
    24   11   22 1
    25   12   23 1
    26   12   24 1
    27   12   25 1
    28   13   26 1
    29   13   27 1
    30   13   28 1
    31   15   29 1
