@<TRIPOS>MOLECULE
AN-858/37395001
   38    40     0
SMALL
USER_CHARGE


@<TRIPOS>ATOM
      1 C1          6.7756   -3.9592    1.0657 C.ar      1 <1>        -0.0963
      2 C2          7.9663   -3.2372    1.1005 C.ar      1 <1>        -0.0938
      3 C3          5.5399   -3.3049    1.1209 C.ar      1 <1>        -0.0888
      4 C4          7.9604   -1.8427    1.1905 C.ar      1 <1>        -0.0846
      5 C5          5.5058   -1.8982    1.2136 C.ar      1 <1>        -0.0814
      6 C6          4.4629   -0.9279    1.2898 C.2       1 <1>        -0.0854
      7 C7          6.7180   -1.2005    1.2452 C.ar      1 <1>        -0.0708
      8 C8          5.0638    0.3124    1.3495 C.2       1 <1>        -0.0797
      9 C9          2.1647    0.4851   -0.4694 C.2       1 <1>         0.0487
     10 C10         4.3833    1.6310    1.3797 C.3       1 <1>        -0.0131
     11 C11         2.8903    1.4501    1.7080 C.3       1 <1>        -0.0077
     12 C12         2.9709   -1.1113    1.3024 C.3       1 <1>        -0.0047
     13 C13         2.2417    0.2331    1.0111 C.3       1 <1>         0.0400
     14 C14         2.5061   -1.6863    2.6460 C.3       1 <1>        -0.0434
     15 C15         3.0488   -1.8221   -2.4085 C.3       1 <1>        -0.0286
     16 C16         1.9130   -0.8214   -2.4223 C.3       1 <1>         0.0175
     17 N1          6.4183    0.1415    1.3307 N.pl3     1 <1>        -0.3729
     18 O1          2.6233    1.4767   -1.0204 O.2       1 <1>        -0.5315
     19 O2          1.5147   -0.5495   -1.0749 O.3       1 <1>        -0.4370
     20 H1          6.8048   -5.0433    0.9949 H         1 <1>         0.1095
     21 H2          8.9152   -3.7654    1.0564 H         1 <1>         0.1173
     22 H3          4.6202   -3.8826    1.0918 H         1 <1>         0.1315
     23 H4          8.8886   -1.2817    1.2159 H         1 <1>         0.1307
     24 H5          4.8458    2.2942    2.1191 H         1 <1>         0.0947
     25 H6          4.4879    2.1098    0.3987 H         1 <1>         0.0956
     26 H7          2.7807    1.3277    2.7936 H         1 <1>         0.0921
     27 H8          2.3554    2.3707    1.4443 H         1 <1>         0.0875
     28 H9          2.7074   -1.8355    0.5195 H         1 <1>         0.1038
     29 H10         1.1979    0.1612    1.3432 H         1 <1>         0.1629
     30 H11         2.7532   -0.9905    3.4432 H         1 <1>         0.0518
     31 H12         3.0045   -2.6349    2.8264 H         1 <1>         0.0509
     32 H13         1.4309   -1.8415    2.6217 H         1 <1>         0.0474
     33 H14         3.9103   -1.4269   -1.8630 H         1 <1>         0.0655
     34 H15         2.7321   -2.7590   -1.9385 H         1 <1>         0.0655
     35 H16         3.3593   -2.0674   -3.4296 H         1 <1>         0.0705
     36 H17         1.0546   -1.2227   -2.9692 H         1 <1>         0.1312
     37 H18         2.2311    0.1144   -2.8914 H         1 <1>         0.1312
     38 H19         7.1019    0.8858    1.3592 H         1 <1>         0.2737
@<TRIPOS>BOND
     1    1    2 ar
     2    1    3 ar
     3    2    4 ar
     4    3    5 ar
     5    4    7 ar
     6    5    6 1
     7    5    7 ar
     8    6    8 2
     9    6   12 1
    10    7   17 1
    11    8   10 1
    12    8   17 1
    13    9   13 1
    14    9   18 2
    15    9   19 1
    16   10   11 1
    17   11   13 1
    18   12   13 1
    19   12   14 1
    20   15   16 1
    21   16   19 1
    22    1   20 1
    23    2   21 1
    24    3   22 1
    25    4   23 1
    26   10   24 1
    27   10   25 1
    28   11   26 1
    29   11   27 1
    30   12   28 1
    31   13   29 1
    32   14   30 1
    33   14   31 1
    34   14   32 1
    35   15   33 1
    36   15   34 1
    37   15   35 1
    38   16   36 1
    39   16   37 1
    40   17   38 1
