@<TRIPOS>MOLECULE
AI-942/13331877
   29    30     0
SMALL
USER_CHARGE


@<TRIPOS>ATOM
      1 C1          8.3663   -2.9845    1.1782 C.ar      1 <1>        -0.0965
      2 C2          7.4270   -4.0015    1.3213 C.ar      1 <1>        -0.0949
      3 C3          7.9514   -1.6537    1.1204 C.ar      1 <1>        -0.0913
      4 C4          6.0695   -3.6918    1.4071 C.ar      1 <1>        -0.0881
      5 C5          6.1535    0.0106    1.1488 C.ar      1 <1>        -0.0779
      6 C6          4.7959    0.3204    1.2345 C.ar      1 <1>        -0.0680
      7 C7          4.2716   -2.0275    1.4353 C.ar      1 <1>        -0.0637
      8 C8          6.5889   -1.3235    1.2052 C.ar      1 <1>        -0.0823
      9 C9          5.6340   -2.3578    1.3505 C.ar      1 <1>        -0.0769
     10 C10         3.8568   -0.6967    1.3775 C.ar      1 <1>        -0.0517
     11 C11         0.4816    0.5464    0.6463 C.3       1 <1>        -0.0322
     12 C12         2.1361   -0.5617   -0.8915 C.3       1 <1>         0.0081
     13 C13         1.9533    0.2959    0.3541 C.3       1 <1>         0.0073
     14 O1          1.5820    0.1233   -2.0098 O.3       1 <1>        -0.4719
     15 O2          2.5328   -0.3928    1.4612 O.3       1 <1>        -0.4789
     16 H1          9.4228   -3.2265    1.1108 H         1 <1>         0.1139
     17 H2          7.7505   -5.0376    1.3667 H         1 <1>         0.1179
     18 H3          8.7023   -0.8743    1.0078 H         1 <1>         0.1246
     19 H4          5.3531   -4.5031    1.5180 H         1 <1>         0.1269
     20 H5          6.8701    0.8217    1.0365 H         1 <1>         0.1383
     21 H6          4.4784    1.3585    1.1882 H         1 <1>         0.1397
     22 H7          3.5242   -2.8111    1.5477 H         1 <1>         0.1528
     23 H8         -0.0539   -0.4024    0.7592 H         1 <1>         0.0610
     24 H9          0.3520    1.1291    1.5636 H         1 <1>         0.0644
     25 H10         0.0027    1.0812   -0.1813 H         1 <1>         0.0672
     26 H11         3.1965   -0.7397   -1.0983 H         1 <1>         0.1190
     27 H12         1.6177   -1.5202   -0.7896 H         1 <1>         0.1148
     28 H13         2.4891    1.2448    0.2414 H         1 <1>         0.1402
     29 H14         1.7160   -0.4499   -2.7810 H         1 <1>         0.2784
@<TRIPOS>BOND
     1    1    2 ar
     2    1    3 ar
     3    2    4 ar
     4    3    8 ar
     5    4    9 ar
     6    5    6 ar
     7    5    8 ar
     8    6   10 ar
     9    7    9 ar
    10    7   10 ar
    11    8    9 ar
    12   10   15 1
    13   11   13 1
    14   12   13 1
    15   12   14 1
    16   13   15 1
    17    1   16 1
    18    2   17 1
    19    3   18 1
    20    4   19 1
    21    5   20 1
    22    6   21 1
    23    7   22 1
    24   11   23 1
    25   11   24 1
    26   11   25 1
    27   12   26 1
    28   12   27 1
    29   13   28 1
    30   14   29 1
