@<TRIPOS>MOLECULE
AN-829/13156517
   21    21     0
SMALL
USER_CHARGE


@<TRIPOS>ATOM
      1 C1          5.2990   -2.4670    1.9136 C.ar      1 <1>        -0.1491
      2 C2          6.8845   -1.1228    0.6822 C.ar      1 <1>        -0.1986
      3 C3          5.9905   -3.6207    1.5447 C.ar      1 <1>        -0.0725
      4 C4          7.5762   -2.2767    0.3133 C.ar      1 <1>        -0.0673
      5 C5          5.7458   -1.2180    1.4824 C.ar      1 <1>         0.1485
      6 C6          7.1292   -3.5256    0.7446 C.ar      1 <1>        -0.0832
      7 C7          3.1291    1.3360    0.0518 C.2       1 <1>         0.4673
      8 C8          2.9368   -0.0237    0.7348 C.3       1 <1>        -0.1571
      9 C9          3.6654   -0.2174    2.0535 C.3       1 <1>         0.0756
     10 O1          2.5534    1.4994   -1.0583 O.co2     1 <1>        -0.5000
     11 O2          3.8577    2.1402    0.7027 O.co2     1 <1>        -0.5000
     12 O3          5.0709   -0.0921    1.8417 O.3       1 <1>        -0.3164
     13 Cl1         7.9817   -4.9490    0.2882 Cl        1 <1>        -0.0826
     14 H1          4.4127   -2.5482    2.5366 H         1 <1>         0.1385
     15 H2          7.2373   -0.1528    0.3429 H         1 <1>         0.1435
     16 H3          5.6304   -4.5877    1.8872 H         1 <1>         0.1359
     17 H4          8.4614   -2.1876   -0.3114 H         1 <1>         0.1336
     18 H5          1.8603   -0.1456    0.9057 H         1 <1>         0.0768
     19 H6          3.2558   -0.7946    0.0225 H         1 <1>         0.0767
     20 H7          3.3527    0.5163    2.8031 H         1 <1>         0.0668
     21 H8          3.4713   -1.2217    2.4430 H         1 <1>         0.0667
@<TRIPOS>BOND
     1    1    3 ar
     2    1    5 ar
     3    2    4 ar
     4    2    5 ar
     5    3    6 ar
     6    4    6 ar
     7    5   12 1
     8    6   13 1
     9    7    8 1
    10    7   10 1
    11    7   11 2
    12    8    9 1
    13    9   12 1
    14    1   14 1
    15    2   15 1
    16    3   16 1
    17    4   17 1
    18    8   18 1
    19    8   19 1
    20    9   20 1
    21    9   21 1
