@<TRIPOS>MOLECULE
AI-204/31682040
   30    31     0
SMALL
USER_CHARGE


@<TRIPOS>ATOM
      1 C1          6.8820   -4.0770    1.0465 C.ar      1 <1>        -0.0848
      2 C2          5.6361   -3.4553    1.1360 C.ar      1 <1>        -0.0656
      3 C3          7.9671   -1.9324    1.2606 C.ar      1 <1>        -0.0677
      4 C4          8.0466   -3.3165    1.1117 C.ar      1 <1>        -0.0942
      5 C5          6.7192   -1.3006    1.3274 C.ar      1 <1>        -0.0245
      6 C6          5.5478   -2.0646    1.2743 C.ar      1 <1>        -0.0324
      7 C7          5.5787    0.9062    1.4287 C.2       1 <1>         0.0638
      8 C8          2.0615    0.8932   -0.1054 C.2       1 <1>         0.0713
      9 C9          4.3427    0.3096    0.7730 C.3       1 <1>         0.0980
     10 C10         9.3783   -3.9825    1.0282 C.3       1 <1>        -0.0349
     11 C11         1.3469    1.4458   -2.2922 C.3       1 <1>         0.0316
     12 C12         3.1275    1.2204    0.9105 C.3       1 <1>         0.0870
     13 N1          6.6941    0.0957    1.5087 N.am      1 <1>        -0.3046
     14 O1          5.6248    2.0912    1.7670 O.2       1 <1>        -0.5345
     15 O2          1.1540    0.0885    0.0530 O.2       1 <1>        -0.5205
     16 O3          2.2812    1.6432   -1.2260 O.3       1 <1>        -0.4267
     17 S1          3.9497   -1.3107    1.4781 S.3       1 <1>        -0.1588
     18 H1          6.9339   -5.1570    0.9365 H         1 <1>         0.1292
     19 H2          4.7403   -4.0712    1.1026 H         1 <1>         0.1507
     20 H3          8.8811   -1.3447    1.3185 H         1 <1>         0.1448
     21 H4          4.5648    0.1821   -0.2934 H         1 <1>         0.2305
     22 H5          9.7081   -4.0479   -0.0160 H         1 <1>         0.0686
     23 H6         10.1367   -3.4303    1.5984 H         1 <1>         0.0659
     24 H7          9.3434   -4.9972    1.4461 H         1 <1>         0.0669
     25 H8          1.6126    2.0896   -3.1343 H         1 <1>         0.1517
     26 H9          0.3387    1.6822   -1.9430 H         1 <1>         0.1369
     27 H10         1.3850    0.4009   -2.6093 H         1 <1>         0.1374
     28 H11         3.4419    2.2576    0.7679 H         1 <1>         0.1939
     29 H12         2.7061    1.1023    1.9121 H         1 <1>         0.1983
     30 H13         7.5744    0.5415    1.7540 H         1 <1>         0.3237
@<TRIPOS>BOND
     1    1    2 ar
     2    1    4 ar
     3    2    6 ar
     4    3    4 ar
     5    3    5 ar
     6    4   10 1
     7    5    6 ar
     8    5   13 1
     9    6   17 1
    10    7    9 1
    11    7   13 am
    12    7   14 2
    13    8   12 1
    14    8   15 2
    15    8   16 1
    16    9   12 1
    17    9   17 1
    18   11   16 1
    19    1   18 1
    20    2   19 1
    21    3   20 1
    22    9   21 1
    23   10   22 1
    24   10   23 1
    25   10   24 1
    26   11   25 1
    27   11   26 1
    28   11   27 1
    29   12   28 1
    30   12   29 1
    31   13   30 1
