@<TRIPOS>MOLECULE
AQ-360/14045179
   28    29     0
SMALL
USER_CHARGE


@<TRIPOS>ATOM
      1 C1          8.0761   -3.2153    0.7024 C.ar      1 <1>        -0.0793
      2 C2          7.0290   -4.0622    1.0565 C.ar      1 <1>        -0.0804
      3 C3          7.9207   -1.8337    0.8090 C.ar      1 <1>        -0.0635
      4 C4          5.8269   -3.5291    1.5229 C.ar      1 <1>        -0.0652
      5 C5          6.7085   -1.2923    1.2542 C.ar      1 <1>        -0.0243
      6 C6          5.6591   -2.1424    1.6220 C.ar      1 <1>        -0.0329
      7 C7          5.4621    0.8260    1.6282 C.2       1 <1>         0.0599
      8 C8          1.6419    0.4439    1.3491 C.2       1 <1>         0.0245
      9 C9          4.1415    0.0947    1.4413 C.3       1 <1>         0.0903
     10 C10         0.2139   -1.5946    1.2540 C.3       1 <1>        -0.0000
     11 C11         2.9569    0.9209    1.9305 C.3       1 <1>         0.0647
     12 N1          6.6137    0.1077    1.3728 N.am      1 <1>        -0.3060
     13 N2          1.3987   -0.8823    1.6753 N.am      1 <1>        -0.3488
     14 O1          5.5047    2.0325    1.8808 O.2       1 <1>        -0.5367
     15 O2          0.9001    1.1574    0.6794 O.2       1 <1>        -0.5606
     16 S1          4.1501   -1.4957    2.3062 S.3       1 <1>        -0.1615
     17 H1          9.0153   -3.6307    0.3488 H         1 <1>         0.1342
     18 H2          7.1519   -5.1386    0.9801 H         1 <1>         0.1298
     19 H3          8.7505   -1.1862    0.5355 H         1 <1>         0.1451
     20 H4          5.0296   -4.2101    1.8119 H         1 <1>         0.1491
     21 H5          4.0178   -0.0927    0.3676 H         1 <1>         0.2256
     22 H6         -0.5778   -1.4810    1.9989 H         1 <1>         0.1051
     23 H7          0.4350   -2.6588    1.1351 H         1 <1>         0.0994
     24 H8         -0.1431   -1.2021    0.2981 H         1 <1>         0.0998
     25 H9          3.1070    1.9672    1.6491 H         1 <1>         0.1694
     26 H10         2.9025    0.8619    3.0211 H         1 <1>         0.1736
     27 H11         7.4806    0.6333    1.2955 H         1 <1>         0.3215
     28 H12         2.0859   -1.3762    2.2371 H         1 <1>         0.2674
@<TRIPOS>BOND
     1    1    2 ar
     2    1    3 ar
     3    2    4 ar
     4    3    5 ar
     5    4    6 ar
     6    5    6 ar
     7    5   12 1
     8    6   16 1
     9    7    9 1
    10    7   12 am
    11    7   14 2
    12    8   11 1
    13    8   13 am
    14    8   15 2
    15    9   11 1
    16    9   16 1
    17   10   13 1
    18    1   17 1
    19    2   18 1
    20    3   19 1
    21    4   20 1
    22    9   21 1
    23   10   22 1
    24   10   23 1
    25   10   24 1
    26   11   25 1
    27   11   26 1
    28   12   27 1
    29   13   28 1
