@<TRIPOS>MOLECULE
Building
   28    30     0
SMALL
USER_CHARGE


@<TRIPOS>ATOM
      1 C1          7.9389   -2.8377    1.4470 C.ar      1 <1>        -0.1388
      2 C2          7.3374   -4.0682    1.1914 C.ar      1 <1>        -0.0845
      3 C3          7.1739   -1.6685    1.5227 C.ar      1 <1>        -0.0636
      4 C4          5.9562   -4.1701    1.0041 C.ar      1 <1>        -0.1316
      5 C5          5.7788   -1.7439    1.3362 C.ar      1 <1>        -0.0984
      6 C6          4.7206   -0.7930    1.3425 C.2       1 <1>        -0.1430
      7 C7          5.2015   -2.9938    1.0823 C.ar      1 <1>         0.1098
      8 C8          3.5505   -1.4795    1.1022 C.2       1 <1>         0.0158
      9 C9          3.5482    1.6042   -0.4291 C.2       1 <1>         0.4572
     10 C10         4.7371    0.6830    1.5726 C.3       1 <1>        -0.0497
     11 C11         2.2051   -0.8764    1.0058 C.3       1 <1>         0.0790
     12 C12         3.4472    1.3594    1.0653 C.3       1 <1>        -0.0142
     13 N1          3.8428   -2.8019    0.9429 N.pl3     1 <1>        -0.5742
     14 N2          2.2346    0.5576    1.4911 N.4       1 <1>        -0.4927
     15 O1          2.4510    1.5906   -1.0529 O.co2     1 <1>        -0.5000
     16 O2          4.7218    1.7905   -0.8572 O.co2     1 <1>        -0.5000
     17 H1          9.0150   -2.7837    1.5893 H         1 <1>         0.1293
     18 H2          7.9511   -4.9638    1.1357 H         1 <1>         0.1315
     19 H3          7.6573   -0.7167    1.7240 H         1 <1>         0.1286
     20 H4          5.4897   -5.1291    0.8049 H         1 <1>         0.1246
     21 H5          4.8611    0.8908    2.6447 H         1 <1>         0.1196
     22 H6          5.6184    1.1054    1.0673 H         1 <1>         0.0975
     23 H7          1.8311   -0.8473   -0.0225 H         1 <1>         0.1403
     24 H8          1.4877   -1.4046    1.6433 H         1 <1>         0.1365
     25 H9          3.3170    2.3609    1.5716 H         1 <1>         0.1393
     26 H10         3.1708   -3.5330    0.7528 H         1 <1>         0.4198
     27 H11         1.3818    1.0411    1.1585 H         1 <1>         0.4408
     28 H12         2.1608    0.5647    2.5232 H         1 <1>         0.4349
@<TRIPOS>BOND
     1    1    2 ar
     2    1    3 ar
     3    2    4 ar
     4    3    5 ar
     5    4    7 ar
     6    5    6 1
     7    5    7 ar
     8    6    8 2
     9    6   10 1
    10    7   13 1
    11    8   11 1
    12    8   13 1
    13    9   12 1
    14    9   15 1
    15    9   16 2
    16   10   12 1
    17   11   14 1
    18   12   14 1
    19    1   17 1
    20    2   18 1
    21    3   19 1
    22    4   20 1
    23   10   21 1
    24   10   22 1
    25   11   23 1
    26   11   24 1
    27   12   25 1
    28   13   26 1
    29   14   27 1
    30   14   28 1
