@<TRIPOS>MOLECULE
AI-204/31730045
   24    25     0
SMALL
USER_CHARGE


@<TRIPOS>ATOM
      1 C1          2.3007   -0.1605    1.3787 C.1       1 <1>        -0.0350
      2 C2          6.8100   -4.0104    1.0920 C.ar      1 <1>        -0.0937
      3 C3          7.9938   -3.2938    0.9283 C.ar      1 <1>        -0.0909
      4 C4          5.6017   -3.3500    1.3424 C.ar      1 <1>        -0.0829
      5 C5          8.0087   -1.8983    1.0092 C.ar      1 <1>        -0.0809
      6 C6          5.5920   -1.9436    1.4282 C.ar      1 <1>        -0.0594
      7 C7          4.5796   -0.9716    1.6631 C.2       1 <1>        -0.0294
      8 C8          6.7933   -1.2516    1.2600 C.ar      1 <1>        -0.0574
      9 C9          5.1748    0.2685    1.6338 C.2       1 <1>        -0.0306
     10 C10         4.7451    2.0945    3.6323 C.3       1 <1>        -0.0076
     11 C11         3.1467   -1.2519    1.8980 C.3       1 <1>         0.0908
     12 N1          1.6423    0.7026    0.9685 N.1       1 <1>        -0.4235
     13 N2          6.5100    0.0894    1.3898 N.pl3     1 <1>        -0.3509
     14 S1          4.5629    1.8701    1.8392 S.3       1 <1>        -0.1989
     15 H1          6.8241   -5.0952    1.0257 H         1 <1>         0.1156
     16 H2          8.9214   -3.8269    0.7360 H         1 <1>         0.1234
     17 H3          4.6876   -3.9235    1.4681 H         1 <1>         0.1312
     18 H4          8.9310   -1.3420    0.8825 H         1 <1>         0.1282
     19 H5          4.3904    3.0870    3.9207 H         1 <1>         0.1031
     20 H6          5.7964    1.9961    3.9137 H         1 <1>         0.0850
     21 H7          4.1609    1.3382    4.1622 H         1 <1>         0.0856
     22 H8          2.9384   -1.3869    2.9727 H         1 <1>         0.1890
     23 H9          2.8427   -2.1993    1.4219 H         1 <1>         0.1867
     24 H10         7.1891    0.8341    1.3156 H         1 <1>         0.3027
@<TRIPOS>BOND
     1    1   11 1
     2    1   12 3
     3    2    3 ar
     4    2    4 ar
     5    3    5 ar
     6    4    6 ar
     7    5    8 ar
     8    6    7 1
     9    6    8 ar
    10    7    9 2
    11    7   11 1
    12    8   13 1
    13    9   13 1
    14    9   14 1
    15   10   14 1
    16    2   15 1
    17    3   16 1
    18    4   17 1
    19    5   18 1
    20   10   19 1
    21   10   20 1
    22   10   21 1
    23   11   22 1
    24   11   23 1
    25   13   24 1
