@<TRIPOS>MOLECULE
AI-204/31682059
   23    24     0
SMALL
USER_CHARGE


@<TRIPOS>ATOM
      1 C1          7.8098   -3.0983    0.4153 C.ar      1 <1>        -0.0991
      2 C2          6.9477   -3.9816    1.0593 C.ar      1 <1>        -0.1150
      3 C3          7.5823   -1.7248    0.4903 C.ar      1 <1>        -0.1245
      4 C4          5.8601   -3.4923    1.7840 C.ar      1 <1>        -0.0647
      5 C5          6.4798   -1.2299    1.1978 C.ar      1 <1>         0.1146
      6 C6          5.6179   -2.1144    1.8559 C.ar      1 <1>        -0.1174
      7 C7          5.2181    0.8186    1.7718 C.2       1 <1>         0.2822
      8 C8          2.3838    0.9994    0.1998 C.2       1 <1>         0.4726
      9 C9          3.9345    0.0450    2.0212 C.3       1 <1>        -0.0375
     10 C10         3.1748   -0.1986    0.7164 C.3       1 <1>        -0.1485
     11 N1          6.3106    0.1662    1.2623 N.pl3     1 <1>        -0.5813
     12 O1          1.4632    1.4417    0.9401 O.co2     1 <1>        -0.5000
     13 O2          2.7647    1.4066   -0.9359 O.co2     1 <1>        -0.5000
     14 S1          5.2671    2.4849    1.9971 S.2       1 <1>        -0.4276
     15 S2          4.2706   -1.5293    2.8612 S.3       1 <1>        -0.0407
     16 H1          8.6613   -3.4782   -0.1415 H         1 <1>         0.1314
     17 H2          7.1275   -5.0514    1.0065 H         1 <1>         0.1328
     18 H3          8.2690   -1.0479   -0.0123 H         1 <1>         0.1308
     19 H4          5.2115   -4.2009    2.2941 H         1 <1>         0.1390
     20 H5          3.2825    0.6162    2.6925 H         1 <1>         0.1606
     21 H6          2.4836   -1.0302    0.8706 H         1 <1>         0.0862
     22 H7          3.8934   -0.4966   -0.0502 H         1 <1>         0.0676
     23 H8          7.0856    0.7376    0.9358 H         1 <1>         0.4208
@<TRIPOS>BOND
     1    1    2 ar
     2    1    3 ar
     3    2    4 ar
     4    3    5 ar
     5    4    6 ar
     6    5    6 ar
     7    5   11 1
     8    6   15 1
     9    7    9 1
    10    7   11 1
    11    7   14 2
    12    8   10 1
    13    8   12 1
    14    8   13 2
    15    9   10 1
    16    9   15 1
    17    1   16 1
    18    2   17 1
    19    3   18 1
    20    4   19 1
    21    9   20 1
    22   10   21 1
    23   10   22 1
    24   11   23 1
