@<TRIPOS>MOLECULE
ZINC00054337
   35    37     0
SMALL
USER_CHARGE


@<TRIPOS>ATOM
      1 C1          6.5241   -3.9466    1.4032 C.ar      1 <1>        -0.0972
      2 C2          7.7991   -3.5039    1.0566 C.ar      1 <1>        -0.0931
      3 C3          5.4669   -3.0413    1.5505 C.ar      1 <1>        -0.0913
      4 C4          8.0586   -2.1465    0.8467 C.ar      1 <1>        -0.0848
      5 C5          5.6879    0.5796    1.1012 C.2       1 <1>        -0.0615
      6 C6          5.7044   -1.6678    1.3440 C.ar      1 <1>        -0.0811
      7 C7          4.8922   -0.5009    1.4055 C.2       1 <1>        -0.0768
      8 C8          6.9922   -1.2529    0.9977 C.ar      1 <1>        -0.0692
      9 C9          2.5980    1.7143    0.7533 C.2       1 <1>         0.1100
     10 C10         0.4370    1.0603    0.9257 C.2       1 <1>        -0.0142
     11 C11        -0.1661    4.3138    3.1968 C.2       1 <1>        -0.1116
     12 C12         0.9041    3.8830    2.5197 C.2       1 <1>        -0.0969
     13 C13         2.6087    0.1958    0.6395 C.3       1 <1>         0.0955
     14 C14         3.4232   -0.4457    1.7438 C.3       1 <1>         0.0177
     15 C15         0.8850    3.5292    1.0686 C.3       1 <1>         0.0356
     16 N1          6.9526    0.1160    0.8565 N.pl3     1 <1>        -0.3653
     17 N2          1.2030   -0.0878    0.7626 N.pl3     1 <1>        -0.3140
     18 N3          1.2945    2.1402    0.9201 N.am      1 <1>        -0.3075
     19 O1          3.6084    2.4045    0.7035 O.2       1 <1>        -0.4704
     20 S1         -1.2197    1.0365    1.0863 S.2       1 <1>        -0.2519
     21 H1          6.3469   -5.0071    1.5606 H         1 <1>         0.1130
     22 H2          8.6057   -4.2244    0.9476 H         1 <1>         0.1219
     23 H3          4.4785   -3.4022    1.8200 H         1 <1>         0.1254
     24 H4          9.0517   -1.8026    0.5782 H         1 <1>         0.1265
     25 H5          5.4681    1.6362    1.0352 H         1 <1>         0.1834
     26 H6         -0.0864    4.5611    4.2497 H         1 <1>         0.0946
     27 H7         -1.1331    4.4260    2.7188 H         1 <1>         0.0927
     28 H8          1.8513    3.7945    3.0462 H         1 <1>         0.0958
     29 H9          2.9419   -0.1058   -0.3573 H         1 <1>         0.2077
     30 H10         3.0556   -1.4624    1.9408 H         1 <1>         0.1057
     31 H11         3.2857    0.1078    2.6833 H         1 <1>         0.1150
     32 H12         1.5882    4.1658    0.5229 H         1 <1>         0.1559
     33 H13        -0.1070    3.6539    0.6226 H         1 <1>         0.1497
     34 H14         7.7433    0.6943    0.6082 H         1 <1>         0.2994
     35 H15         0.8065   -1.0204    0.7032 H         1 <1>         0.3413
@<TRIPOS>BOND
     1    1    2 ar
     2    1    3 ar
     3    2    4 ar
     4    3    6 ar
     5    4    8 ar
     6    5    7 2
     7    5   16 1
     8    6    7 1
     9    6    8 ar
    10    7   14 1
    11    8   16 1
    12    9   13 1
    13    9   18 am
    14    9   19 2
    15   10   17 1
    16   10   18 1
    17   10   20 2
    18   11   12 2
    19   12   15 1
    20   13   14 1
    21   13   17 1
    22   15   18 1
    23    1   21 1
    24    2   22 1
    25    3   23 1
    26    4   24 1
    27    5   25 1
    28   11   26 1
    29   11   27 1
    30   12   28 1
    31   13   29 1
    32   14   30 1
    33   14   31 1
    34   15   32 1
    35   15   33 1
    36   16   34 1
    37   17   35 1
