@<TRIPOS>MOLECULE
ZINC13123191
   29    31     0
SMALL
USER_CHARGE


@<TRIPOS>ATOM
      1 C1          6.8122   -4.0122    1.0873 C.ar      1 <1>        -0.0961
      2 C2          7.9959   -3.2932    0.9348 C.ar      1 <1>        -0.0924
      3 C3          5.6010   -3.3550    1.3317 C.ar      1 <1>        -0.0857
      4 C4          8.0080   -1.8980    1.0201 C.ar      1 <1>        -0.0801
      5 C5          5.5881   -1.9493    1.4255 C.ar      1 <1>        -0.0721
      6 C6          4.5821   -0.9744    1.6529 C.2       1 <1>        -0.0732
      7 C7          6.7909   -1.2521    1.2653 C.ar      1 <1>        -0.0584
      8 C8          5.1788    0.2663    1.6407 C.2       1 <1>        -0.0430
      9 C9          4.4256    1.4746    1.8408 C.2       1 <1>        -0.0539
     10 C10         2.6409    0.1344    2.7018 C.3       1 <1>        -0.0070
     11 C11         3.1105   -1.0811    1.8653 C.3       1 <1>        -0.0199
     12 C12         5.0594    2.7971    1.5113 C.3       1 <1>        -0.0071
     13 C13         2.3591   -1.1520    0.5341 C.3       1 <1>        -0.0522
     14 N1          3.2080    1.4395    2.2778 N.2       1 <1>        -0.4340
     15 N2          6.5102    0.0932    1.3900 N.pl3     1 <1>        -0.3500
     16 H1          6.8277   -5.0965    1.0146 H         1 <1>         0.1103
     17 H2          8.9250   -3.8243    0.7436 H         1 <1>         0.1198
     18 H3          4.6859   -3.9287    1.4465 H         1 <1>         0.1333
     19 H4          8.9303   -1.3400    0.8980 H         1 <1>         0.1332
     20 H5          1.5475    0.2077    2.6742 H         1 <1>         0.1124
     21 H6          2.9158   -0.0168    3.7538 H         1 <1>         0.1030
     22 H7          2.8858   -1.9938    2.4312 H         1 <1>         0.0868
     23 H8          4.8510    3.0477    0.4747 H         1 <1>         0.0990
     24 H9          6.1335    2.7300    1.6639 H         1 <1>         0.0943
     25 H10         4.6512    3.5645    2.1638 H         1 <1>         0.0956
     26 H11         2.5636   -0.2576   -0.0500 H         1 <1>         0.0423
     27 H12         1.2897   -1.2222    0.7206 H         1 <1>         0.0438
     28 H13         2.6844   -2.0274   -0.0238 H         1 <1>         0.0391
     29 H14         7.1940    0.8338    1.3164 H         1 <1>         0.3121
@<TRIPOS>BOND
     1    1    2 ar
     2    1    3 ar
     3    2    4 ar
     4    3    5 ar
     5    4    7 ar
     6    5    6 1
     7    5    7 ar
     8    6    8 2
     9    6   11 1
    10    7   15 1
    11    8    9 1
    12    8   15 1
    13    9   12 1
    14    9   14 2
    15   10   11 1
    16   10   14 1
    17   11   13 1
    18    1   16 1
    19    2   17 1
    20    3   18 1
    21    4   19 1
    22   10   20 1
    23   10   21 1
    24   11   22 1
    25   12   23 1
    26   12   24 1
    27   12   25 1
    28   13   26 1
    29   13   27 1
    30   13   28 1
    31   15   29 1
