# Name:		D:/MyOffice/Github/MyTask/RESHAFTS/files/PDB/3ika.pdb.gz
# Pharmacophore name:		UNK
# Created and modified by PharmDock on Thu Mar 19 18:44:19 2015

# 
# Fit value:		0
# Energy:		0kJ/mol

@<TRIPOS>MOLECULE
D:/MyOffice/Github/MyTask/RESHAFTS/files/PDB/3ika.pdb.gz
   35    38     0
SMALL
USER_CHARGE


@<TRIPOS>ATOM
      1 C          -2.5519    2.9231   -1.0835 C.3       1 <1>         0.0896
      2 C          -2.1004    1.4943   -0.7634 C.3       1 <1>         0.0897
      3 N          -3.2764    0.5377   -0.9835 N.3       1 <1>        -0.2691
      4 C          -2.8772   -0.8268   -0.6099 C.3       1 <1>         0.0897
      5 C          -4.4549    0.9827   -0.1143 C.3       1 <1>         0.0897
      6 C          -4.8047    2.3291   -0.4402 C.3       1 <1>         0.0896
      7 N          -3.7586    3.2754   -0.2104 N.3       1 <1>        -0.2715
      8 C          -4.2337    4.6239   -0.5519 C.3       1 <1>         0.0601
      9 C          -3.5541    5.8988   -1.0623 C.3       1 <1>         0.0469
     10 C          -2.4486    6.3024   -0.0817 C.3       1 <1>         0.1326
     11 O          -1.4539    5.2899   -0.0399 O.3       1 <1>        -0.3521
     12 C          -1.2733    4.0899   -0.7775 C.3       1 <1>         0.1741
     13 C          -4.7712    4.8725    0.8594 C.3       1 <1>         0.0176
     14 C          -3.6981    5.2746    1.7133 C.3       1 <1>         0.0213
     15 C          -3.0556    6.4858    1.3113 C.3       1 <1>         0.1027
     16 N          -1.9918    6.8180    2.2698 N.3       1 <1>        -0.1857
     17 C          -1.4337    5.6114    2.8971 C.3       1 <1>         0.2263
     18 N          -2.8679    5.1729    3.2107 N.3       1 <1>        -0.1586
     19 N          -0.4854    5.0045    3.9338 N.3       1 <1>        -0.1853
     20 C          -0.8864    5.4142    5.2429 C.3       1 <1>         0.1118
     21 C          -2.2015    4.9922    5.6087 C.3       1 <1>         0.1414
     22 CL         -2.2969    3.2163    5.5349 Cl        1 <1>        -0.1093
     23 C          -3.2192    5.5986    4.6397 C.3       1 <1>         0.2079
     24 O          -3.1872    7.0149    4.7378 O.3       1 <1>        -0.3408
     25 C          -4.4568    7.1684    5.3549 C.3       1 <1>         0.1183
     26 C          -4.8595    6.7698    3.9313 C.3       1 <1>         0.0471
     27 C          -5.3289    8.3394    5.8136 C.3       1 <1>         0.0297
     28 C          -5.1813    9.4290    4.9006 C.3       1 <1>         0.0039
     29 C          -5.5866    9.1284    3.5639 C.3       1 <1>         0.0176
     30 C          -4.7249    7.9893    3.0141 C.3       1 <1>         0.0777
     31 N          -3.3188    8.4146    2.9599 N.3       1 <1>        -0.1906
     32 C          -2.4420    7.3517    2.4478 C.3       1 <1>         0.2255
     33 O          -2.6709    6.1560    3.1788 O.3       1 <1>        -0.2037
     34 C          -0.9900    7.7724    2.6062 C.3       1 <1>         0.0514
     35 C          -0.7450    9.0522    1.8237 C.3       1 <1>         0.0043
@<TRIPOS>BOND
     1    1    2 1
     2    1    7 1
     3    2    3 1
     4    3    4 1
     5    3    5 1
     6    5    6 1
     7    6    7 1
     8    7    8 1
     9    8    9 1
    10    8   13 1
    11    9   10 1
    12   10   15 1
    13   11   12 1
    14   13   14 1
    15   14   15 1
    16   16   17 1
    17   17   18 1
    18   17   19 1
    19   18   23 1
    20   19   20 1
    21   20   21 1
    22   21   22 1
    23   21   23 1
    24   24   25 1
    25   25   26 1
    26   25   27 1
    27   26   30 1
    28   27   28 1
    29   28   29 1
    30   29   30 1
    31   32   34 1
    32   34   35 1
    33   10   11 1
    34   15   16 1
    35   23   24 1
    36   30   31 1
    37   32   33 1
    38   32   31 1
@<TRIPOS>Energy
0.0000

@<TRIPOS>FitValue
0.0000

