@<TRIPOS>MOLECULE
AI-204/42879130
   27    28     0
SMALL
USER_CHARGE


@<TRIPOS>ATOM
      1 C1          6.7587   -3.9984    1.1016 C.ar      1 <1>        -0.1660
      2 C2          7.9703   -3.3319    0.9300 C.ar      1 <1>        -0.1096
      3 C3          5.5790   -3.2875    1.3502 C.ar      1 <1>        -0.0558
      4 C4          8.0424   -1.9378    1.0009 C.ar      1 <1>        -0.1405
      5 C5          5.3009    0.3474    1.6166 C.2       1 <1>         0.0409
      6 C6          5.6269   -1.8813    1.4259 C.ar      1 <1>        -0.0788
      7 C7          6.8550   -1.2401    1.2499 C.ar      1 <1>         0.1002
      8 C8          4.6556   -0.8671    1.6562 C.2       1 <1>        -0.1607
      9 C9         -0.1367   -1.0322    1.0537 C.2       1 <1>         0.4601
     10 C10         2.3623    0.4553   -0.0662 C.2       1 <1>         0.4759
     11 C11         0.9371   -1.6987    0.1822 C.3       1 <1>        -0.1240
     12 C12         2.3144   -1.0501    0.2424 C.3       1 <1>        -0.0877
     13 N1          6.6271    0.1122    1.3707 N.pl3     1 <1>        -0.5933
     14 O1          0.0986   -1.0898    2.2956 O.co2     1 <1>        -0.5000
     15 O2          1.5950    1.1656    0.6477 O.co2     1 <1>        -0.5000
     16 O3         -1.1175   -0.5177    0.4499 O.co2     1 <1>        -0.5000
     17 O4          3.1666    0.8160   -0.9714 O.co2     1 <1>        -0.5000
     18 S1          2.9508   -1.1082    1.9388 S.3       1 <1>        -0.0416
     19 H1          6.7280   -5.0832    1.0419 H         1 <1>         0.1143
     20 H2          8.8747   -3.9039    0.7388 H         1 <1>         0.1145
     21 H3          4.6441   -3.8251    1.4804 H         1 <1>         0.1215
     22 H4          8.9864   -1.4199    0.8685 H         1 <1>         0.1112
     23 H5          4.9401    1.3595    1.7392 H         1 <1>         0.1920
     24 H6          0.9882   -2.7559    0.4745 H         1 <1>         0.0778
     25 H7          0.5555   -1.6673   -0.8472 H         1 <1>         0.0714
     26 H8          3.0194   -1.5837   -0.4050 H         1 <1>         0.0797
     27 H9          7.3362    0.8275    1.2890 H         1 <1>         0.4092
@<TRIPOS>BOND
     1    1    2 ar
     2    1    3 ar
     3    2    4 ar
     4    3    6 ar
     5    4    7 ar
     6    5    8 2
     7    5   13 1
     8    6    7 ar
     9    6    8 1
    10    7   13 1
    11    8   18 1
    12    9   11 1
    13    9   14 1
    14    9   16 2
    15   10   12 1
    16   10   15 1
    17   10   17 2
    18   11   12 1
    19   12   18 1
    20    1   19 1
    21    2   20 1
    22    3   21 1
    23    4   22 1
    24    5   23 1
    25   11   24 1
    26   11   25 1
    27   12   26 1
    28   13   27 1
