@<TRIPOS>MOLECULE
AN-858/37395001
   38    40     0
SMALL
USER_CHARGE


@<TRIPOS>ATOM
      1 C1          6.8234   -4.0106    1.1035 C.ar      1 <1>        -0.0962
      2 C2          7.9986   -3.2894    0.9199 C.ar      1 <1>        -0.0936
      3 C3          5.6126   -3.3548    1.3584 C.ar      1 <1>        -0.0890
      4 C4          8.0008   -1.8955    0.9919 C.ar      1 <1>        -0.0843
      5 C5          5.5787   -1.9449    1.4250 C.ar      1 <1>        -0.0813
      6 C6          4.5596   -0.9639    1.6536 C.2       1 <1>        -0.0852
      7 C7          6.7836   -1.2531    1.2491 C.ar      1 <1>        -0.0705
      8 C8          5.1894    0.2669    1.6627 C.2       1 <1>        -0.0793
      9 C9          2.0196    0.6994    0.4617 C.2       1 <1>         0.0483
     10 C10         4.5659    1.5925    1.9082 C.3       1 <1>        -0.0127
     11 C11         3.1743    1.4056    2.5361 C.3       1 <1>        -0.0074
     12 C12         3.0824   -1.1023    1.9335 C.3       1 <1>        -0.0049
     13 C13         2.3587    0.2791    1.8670 C.3       1 <1>         0.0395
     14 C14         2.3731   -2.1375    1.0570 C.3       1 <1>        -0.0437
     15 C15         1.8997   -0.5449   -2.4196 C.3       1 <1>        -0.0286
     16 C16         2.7515    0.5300   -1.7788 C.3       1 <1>         0.0175
     17 N1          6.5135    0.0887    1.3892 N.pl3     1 <1>        -0.3724
     18 O1          1.0476    1.3811    0.1660 O.2       1 <1>        -0.5319
     19 O2          2.9533    0.2045   -0.3999 O.3       1 <1>        -0.4371
     20 H1          6.8418   -5.0961    1.0490 H         1 <1>         0.1098
     21 H2          8.9268   -3.8161    0.7185 H         1 <1>         0.1175
     22 H3          4.7039   -3.9375    1.5036 H         1 <1>         0.1304
     23 H4          8.9181   -1.3310    0.8528 H         1 <1>         0.1311
     24 H5          5.2000    2.1606    2.5968 H         1 <1>         0.0958
     25 H6          4.4816    2.1659    0.9804 H         1 <1>         0.0955
     26 H7          3.2880    1.2084    3.6139 H         1 <1>         0.0899
     27 H8          2.6160    2.3540    2.4721 H         1 <1>         0.0918
     28 H9          2.9609   -1.4607    2.9956 H         1 <1>         0.1032
     29 H10         1.4020    0.2004    2.3942 H         1 <1>         0.1605
     30 H11         2.4562   -1.8452    0.0144 H         1 <1>         0.0508
     31 H12         1.3252   -2.1900    1.3370 H         1 <1>         0.0470
     32 H13         2.8366   -3.1093    1.1998 H         1 <1>         0.0508
     33 H14         2.3915   -1.5198   -2.3596 H         1 <1>         0.0654
     34 H15         0.9244   -0.6100   -1.9262 H         1 <1>         0.0705
     35 H16         1.7090   -0.3096   -3.4719 H         1 <1>         0.0656
     36 H17         2.2540    1.5024   -1.8422 H         1 <1>         0.1312
     37 H18         3.7259    0.5930   -2.2725 H         1 <1>         0.1313
     38 H19         7.1999    0.8279    1.3147 H         1 <1>         0.2744
@<TRIPOS>BOND
     1    1    2 ar
     2    1    3 ar
     3    2    4 ar
     4    3    5 ar
     5    4    7 ar
     6    5    6 1
     7    5    7 ar
     8    6    8 2
     9    6   12 1
    10    7   17 1
    11    8   10 1
    12    8   17 1
    13    9   13 1
    14    9   18 2
    15    9   19 1
    16   10   11 1
    17   11   13 1
    18   12   13 1
    19   12   14 1
    20   15   16 1
    21   16   19 1
    22    1   20 1
    23    2   21 1
    24    3   22 1
    25    4   23 1
    26   10   24 1
    27   10   25 1
    28   11   26 1
    29   11   27 1
    30   12   28 1
    31   13   29 1
    32   14   30 1
    33   14   31 1
    34   14   32 1
    35   15   33 1
    36   15   34 1
    37   15   35 1
    38   16   36 1
    39   16   37 1
    40   17   38 1
