@<TRIPOS>MOLECULE
AA-516/30012046
   42    43     0
SMALL
USER_CHARGE


@<TRIPOS>ATOM
      1 C1          2.9689    1.5904   -0.0085 C.2       1 <1>         0.4631
      2 C2          5.1948    0.3623    1.3569 C.3       1 <1>        -0.1185
      3 C3          4.5891   -1.2084   -0.4938 C.3       1 <1>        -0.1103
      4 C4          3.8758   -1.7053    1.8522 C.3       1 <1>        -0.1185
      5 C5          6.4989   -0.4136    1.5877 C.3       1 <1>        -0.1013
      6 C6          5.8919   -1.9858   -0.2615 C.3       1 <1>        -0.1011
      7 C7          5.1800   -2.4805    2.0854 C.3       1 <1>        -0.1013
      8 C8          4.0895   -0.5743    0.8227 C.3       1 <1>        -0.0302
      9 C9          6.3207   -1.9027    1.2197 C.3       1 <1>        -0.0537
     10 C10         9.7027   -7.2198    2.0764 C.3       1 <1>        -0.1519
     11 C11         2.7904    0.1990    0.5912 C.3       1 <1>        -0.1515
     12 C12         7.6199   -2.6759    1.4504 C.3       1 <1>        -0.1052
     13 C13         8.4105   -6.4513    1.8497 C.3       1 <1>        -0.1269
     14 C14         7.3603   -4.1765    1.5350 C.3       1 <1>        -0.1250
     15 C15         8.6574   -4.9438    1.7971 C.3       1 <1>        -0.1185
     16 O1          3.6337    2.4248    0.6645 O.co2     1 <1>        -0.5000
     17 O2          2.4122    1.7315   -1.1359 O.co2     1 <1>        -0.5000
     18 H1          4.8783    0.8305    2.2976 H         1 <1>         0.1011
     19 H2          5.3783    1.1823    0.6510 H         1 <1>         0.0407
     20 H3          4.7573   -0.4335   -1.2526 H         1 <1>         0.0534
     21 H4          3.8298   -1.8845   -0.9067 H         1 <1>         0.0534
     22 H5          3.0973   -2.3969    1.5061 H         1 <1>         0.0407
     23 H6          3.5210   -1.2942    2.8057 H         1 <1>         0.1011
     24 H7          7.3009    0.0355    0.9884 H         1 <1>         0.0472
     25 H8          6.8039   -0.3109    2.6368 H         1 <1>         0.0586
     26 H9          5.7509   -3.0318   -0.5616 H         1 <1>         0.0531
     27 H10         6.6781   -1.5821   -0.9120 H         1 <1>         0.0531
     28 H11         5.4457   -2.4355    3.1492 H         1 <1>         0.0586
     29 H12         5.0203   -3.5407    1.8521 H         1 <1>         0.0472
     30 H13        10.4293   -7.0079    1.2856 H         1 <1>         0.0509
     31 H14        10.1535   -6.9542    3.0380 H         1 <1>         0.0515
     32 H15         9.5075   -8.2967    2.0789 H         1 <1>         0.0515
     33 H16         2.2734    0.2976    1.5483 H         1 <1>         0.0594
     34 H17         2.1545   -0.3875   -0.0756 H         1 <1>         0.0594
     35 H18         8.0808   -2.3186    2.3750 H         1 <1>         0.0555
     36 H19         8.3087   -2.4564    0.6304 H         1 <1>         0.0555
     37 H20         7.7068   -6.6855    2.6569 H         1 <1>         0.0607
     38 H21         7.9524   -6.7868    0.9120 H         1 <1>         0.0607
     39 H22         6.9082   -4.5277    0.5994 H         1 <1>         0.0657
     40 H23         6.6423   -4.3834    2.3381 H         1 <1>         0.0656
     41 H24         9.0968   -4.6100    2.7449 H         1 <1>         0.0571
     42 H25         9.3838   -4.7179    1.0069 H         1 <1>         0.0571
@<TRIPOS>BOND
     1    1   11 1
     2    1   16 1
     3    1   17 2
     4    2    5 1
     5    2    8 1
     6    3    6 1
     7    3    8 1
     8    4    7 1
     9    4    8 1
    10    5    9 1
    11    6    9 1
    12    7    9 1
    13    8   11 1
    14    9   12 1
    15   10   13 1
    16   12   14 1
    17   13   15 1
    18   14   15 1
    19    2   18 1
    20    2   19 1
    21    3   20 1
    22    3   21 1
    23    4   22 1
    24    4   23 1
    25    5   24 1
    26    5   25 1
    27    6   26 1
    28    6   27 1
    29    7   28 1
    30    7   29 1
    31   10   30 1
    32   10   31 1
    33   10   32 1
    34   11   33 1
    35   11   34 1
    36   12   35 1
    37   12   36 1
    38   13   37 1
    39   13   38 1
    40   14   39 1
    41   14   40 1
    42   15   41 1
    43   15   42 1
