@<TRIPOS>MOLECULE
AG-205/14785177
   28    29     0
SMALL
USER_CHARGE


@<TRIPOS>ATOM
      1 C1          8.0424   -1.9377    1.0010 C.ar      1 <1>        -0.0659
      2 C2          7.9703   -3.3320    0.9301 C.ar      1 <1>        -0.0592
      3 C3          5.5789   -3.2875    1.3501 C.ar      1 <1>        -0.0622
      4 C4          5.6270   -1.8813    1.4259 C.ar      1 <1>        -0.0730
      5 C5          4.6557   -0.8671    1.6562 C.2       1 <1>        -0.0937
      6 C6          6.8550   -1.2401    1.2499 C.ar      1 <1>        -0.0608
      7 C7          6.7587   -3.9984    1.1016 C.ar      1 <1>        -0.0385
      8 C8          5.3010    0.3475    1.6166 C.2       1 <1>        -0.0835
      9 C9          4.7923    1.7216    1.7891 C.3       1 <1>        -0.0216
     10 C10         3.2126   -1.0786    1.8957 C.3       1 <1>        -0.0291
     11 C11         2.4003   -1.4303    0.6417 C.3       1 <1>        -0.0304
     12 N1          6.6271    0.1121    1.3707 N.pl3     1 <1>        -0.3689
     13 N2          0.9821   -1.6720    1.0041 N.4       1 <1>         0.4568
     14 Br1         6.7034   -5.8867    0.9924 Br        1 <1>        -0.1605
     15 H1          8.9859   -1.4195    0.8668 H         1 <1>         0.1505
     16 H2          8.8848   -3.8889    0.7371 H         1 <1>         0.1557
     17 H3          4.6330   -3.8057    1.4832 H         1 <1>         0.1520
     18 H4          4.8325    2.0309    2.8467 H         1 <1>         0.0877
     19 H5          5.3731    2.4550    1.2038 H         1 <1>         0.0861
     20 H6          3.7467    1.8219    1.4507 H         1 <1>         0.0888
     21 H7          3.0721   -1.9024    2.6199 H         1 <1>         0.0759
     22 H8          2.7502   -0.1997    2.3829 H         1 <1>         0.0761
     23 H9          2.7598   -2.3523    0.1752 H         1 <1>         0.0731
     24 H10         2.4071   -0.6237   -0.0975 H         1 <1>         0.0735
     25 H11         7.3383    0.8257    1.2889 H         1 <1>         0.2831
     26 H12         0.4304   -0.8116    0.9205 H         1 <1>         0.1302
     27 H13         0.9029   -2.0055    1.9708 H         1 <1>         0.1284
     28 H14         0.5619   -2.3782    0.3904 H         1 <1>         0.1300
@<TRIPOS>BOND
     1    1    2 ar
     2    1    6 ar
     3    2    7 ar
     4    3    4 ar
     5    3    7 ar
     6    4    5 1
     7    4    6 ar
     8    5    8 2
     9    5   10 1
    10    6   12 1
    11    7   14 1
    12    8    9 1
    13    8   12 1
    14   10   11 1
    15   11   13 1
    16    1   15 1
    17    2   16 1
    18    3   17 1
    19    9   18 1
    20    9   19 1
    21    9   20 1
    22   10   21 1
    23   10   22 1
    24   11   23 1
    25   11   24 1
    26   12   25 1
    27   13   26 1
    28   13   27 1
    29   13   28 1
