@<TRIPOS>MOLECULE
AJ-916/40989362
   36    39     0
SMALL
USER_CHARGE


@<TRIPOS>ATOM
      1 C1         -1.0459    1.3546    0.1534 C.ar      1 <1>        -0.0756
      2 C2          0.2042    1.2239   -0.4513 C.ar      1 <1>        -0.0617
      3 C3          4.1001   -1.7978    2.0144 C.ar      1 <1>        -0.0433
      4 C4          6.2164   -1.8863    0.8523 C.ar      1 <1>        -0.0393
      5 C5         -1.4119    2.5641    0.7440 C.ar      1 <1>        -0.0649
      6 C6          4.5148   -2.8358    2.8486 C.ar      1 <1>        -0.0501
      7 C7          6.6312   -2.9242    1.6866 C.ar      1 <1>        -0.0481
      8 C8          0.7225    3.5123    0.1253 C.ar      1 <1>        -0.0388
      9 C9          3.3255    0.3414    0.2487 C.2       1 <1>         0.0217
     10 C10         3.3731    1.2724   -0.7480 C.ar      1 <1>         0.0365
     11 C11         1.0885    2.3026   -0.4654 C.ar      1 <1>        -0.0202
     12 C12         4.6609    1.1510   -1.3857 C.ar      1 <1>         0.0493
     13 C13         4.9509   -1.3231    1.0161 C.ar      1 <1>        -0.0086
     14 C14         5.7804   -3.3990    2.6849 C.ar      1 <1>        -0.0255
     15 C15        -0.5277    3.6429    0.7300 C.ar      1 <1>        -0.0270
     16 C16         2.3701    2.1685   -1.0853 C.ar      1 <1>         0.0393
     17 C17         4.9962    1.9905   -2.4578 C.ar      1 <1>         0.0281
     18 C18         6.2735    1.9875   -3.2139 C.3       1 <1>         0.0143
     19 N1          5.3585    0.1734   -0.7823 N.2       1 <1>        -0.3203
     20 N2          2.7244    2.9675   -2.1269 N.ar      1 <1>        -0.3022
     21 N3          4.0195    2.8771   -2.8011 N.ar      1 <1>        -0.3038
     22 N4          4.5363   -0.2856    0.1829 N.pl3     1 <1>        -0.2982
     23 Br1         6.3426   -4.8048    3.8162 Br        1 <1>        -0.1313
     24 Br2        -1.0236    5.2812    1.5320 Br        1 <1>        -0.1346
     25 H1         -1.7343    0.5148    0.1645 H         1 <1>         0.1352
     26 H2          0.4743    0.2752   -0.9088 H         1 <1>         0.1424
     27 H3          3.1109   -1.3683    2.1529 H         1 <1>         0.1593
     28 H4          6.8894   -1.5257    0.0781 H         1 <1>         0.1711
     29 H5         -2.3900    2.6494    1.2110 H         1 <1>         0.1448
     30 H6          3.8402   -3.1943    3.6219 H         1 <1>         0.1583
     31 H7          7.6206   -3.3523    1.5458 H         1 <1>         0.1593
     32 H8          1.4131    4.3534    0.1139 H         1 <1>         0.1680
     33 H9          2.5709    0.0715    0.9767 H         1 <1>         0.2546
     34 H10         6.2168    1.3016   -4.0710 H         1 <1>         0.1049
     35 H11         6.5222    2.9899   -3.5938 H         1 <1>         0.1014
     36 H12         7.1184    1.6758   -2.5814 H         1 <1>         0.1051
@<TRIPOS>BOND
     1    1    2 ar
     2    1    5 ar
     3    2   11 ar
     4    3    6 ar
     5    3   13 ar
     6    4    7 ar
     7    4   13 ar
     8    5   15 ar
     9    6   14 ar
    10    7   14 ar
    11    8   11 ar
    12    8   15 ar
    13    9   10 2
    14    9   22 1
    15   10   12 ar
    16   10   16 ar
    17   11   16 1
    18   12   17 ar
    19   12   19 2
    20   13   22 1
    21   14   23 1
    22   15   24 1
    23   16   20 ar
    24   17   18 1
    25   17   21 ar
    26   19   22 1
    27   20   21 ar
    28    1   25 1
    29    2   26 1
    30    3   27 1
    31    4   28 1
    32    5   29 1
    33    6   30 1
    34    7   31 1
    35    8   32 1
    36    9   33 1
    37   18   34 1
    38   18   35 1
    39   18   36 1
