@<TRIPOS>MOLECULE
AJ-916/12583063
   36    39     0
SMALL
USER_CHARGE


@<TRIPOS>ATOM
      1 C1         -1.1035    1.7873    0.3124 C.2       1 <1>        -0.0734
      2 C2          5.4170   -2.1956    3.2134 C.ar      1 <1>        -0.0812
      3 C3          5.7276   -3.5984    1.2711 C.ar      1 <1>        -0.0831
      4 C4          4.9943   -1.1510    2.3914 C.ar      1 <1>        -0.0538
      5 C5          5.3050   -2.5539    0.4489 C.ar      1 <1>        -0.0577
      6 C6          0.0469    1.2960   -0.3698 C.2       1 <1>        -0.0566
      7 C7          3.2943    0.3186    0.2477 C.2       1 <1>         0.0217
      8 C8         -0.9483    3.0963    0.7121 C.2       1 <1>        -0.0432
      9 C9          3.3373    1.2643   -0.7353 C.ar      1 <1>         0.0400
     10 C10         5.7836   -3.4194    2.6532 C.ar      1 <1>        -0.1007
     11 C11         4.6341    1.1739   -1.3596 C.ar      1 <1>         0.0502
     12 C12         4.9383   -1.3302    1.0092 C.ar      1 <1>        -0.0178
     13 C13         2.3229    2.1479   -1.0716 C.ar      1 <1>         0.0508
     14 C14         1.0376    2.2484   -0.4656 C.2       1 <1>         0.0027
     15 C15         4.9672    2.0341   -2.4159 C.ar      1 <1>         0.0291
     16 C16         6.2356   -4.5362    3.5321 C.3       1 <1>        -0.0397
     17 C17         6.2519    2.0615   -3.1590 C.3       1 <1>         0.0144
     18 N1          5.3415    0.1999   -0.7619 N.2       1 <1>        -0.3211
     19 N2          2.6752    2.9675   -2.0977 N.ar      1 <1>        -0.2963
     20 N3          3.9792    2.9088   -2.7580 N.ar      1 <1>        -0.3012
     21 N4          4.5164   -0.2867    0.1872 N.pl3     1 <1>        -0.3010
     22 S1          0.5794    3.7278    0.2652 S.3       1 <1>        -0.1518
     23 H1         -1.9997    1.2106    0.5001 H         1 <1>         0.1223
     24 H2          5.4577   -2.0479    4.2892 H         1 <1>         0.1352
     25 H3          6.0118   -4.5483    0.8260 H         1 <1>         0.1345
     26 H4          4.7120   -0.2020    2.8407 H         1 <1>         0.1589
     27 H5          5.2666   -2.7077   -0.6267 H         1 <1>         0.1473
     28 H6          0.1347    0.2928   -0.7686 H         1 <1>         0.1429
     29 H7          2.5366    0.0256    0.9631 H         1 <1>         0.2534
     30 H8         -1.6591    3.7123    1.2448 H         1 <1>         0.1792
     31 H9          5.3805   -5.1508    3.8391 H         1 <1>         0.0635
     32 H10         6.9599   -5.1806    3.0172 H         1 <1>         0.0609
     33 H11         6.7331   -4.1570    4.4344 H         1 <1>         0.0609
     34 H12         6.2138    1.3874   -4.0266 H         1 <1>         0.1048
     35 H13         6.4890    3.0728   -3.5217 H         1 <1>         0.1049
     36 H14         7.0949    1.7529   -2.5227 H         1 <1>         0.1014
@<TRIPOS>BOND
     1    1    6 1
     2    1    8 2
     3    2    4 ar
     4    2   10 ar
     5    3    5 ar
     6    3   10 ar
     7    4   12 ar
     8    5   12 ar
     9    6   14 2
    10    7    9 2
    11    7   21 1
    12    8   22 1
    13    9   11 ar
    14    9   13 ar
    15   10   16 1
    16   11   15 ar
    17   11   18 2
    18   12   21 1
    19   13   14 1
    20   13   19 ar
    21   14   22 1
    22   15   17 1
    23   15   20 ar
    24   18   21 1
    25   19   20 ar
    26    1   23 1
    27    2   24 1
    28    3   25 1
    29    4   26 1
    30    5   27 1
    31    6   28 1
    32    7   29 1
    33    8   30 1
    34   16   31 1
    35   16   32 1
    36   16   33 1
    37   17   34 1
    38   17   35 1
    39   17   36 1
