@<TRIPOS>MOLECULE
AS-938/12583050
   39    42     0
SMALL
USER_CHARGE


@<TRIPOS>ATOM
      1 C1          5.7790   -3.4005    2.6836 C.ar      1 <1>        -0.0875
      2 C2          4.8847   -2.4403    3.1569 C.ar      1 <1>        -0.0802
      3 C3          6.2592   -3.3222    1.3764 C.ar      1 <1>        -0.0782
      4 C4          0.4731    1.1914    0.1112 C.ar      1 <1>        -0.0678
      5 C5          0.4532    3.5440   -0.4380 C.ar      1 <1>        -0.0727
      6 C6         -0.7770    1.3218    0.7159 C.ar      1 <1>        -0.0913
      7 C7         -0.7970    3.6747    0.1666 C.ar      1 <1>        -0.0943
      8 C8          4.4705   -1.4019    2.3227 C.ar      1 <1>        -0.0584
      9 C9          5.8448   -2.2838    0.5422 C.ar      1 <1>        -0.0544
     10 C10         3.3252    0.3410    0.2483 C.2       1 <1>         0.0191
     11 C11         3.3731    1.2725   -0.7481 C.ar      1 <1>         0.0331
     12 C12         1.0884    2.3024   -0.4656 C.ar      1 <1>        -0.0335
     13 C13        -1.4122    2.5634    0.7435 C.ar      1 <1>        -0.1080
     14 C14         4.6611    1.1515   -1.3853 C.ar      1 <1>         0.0463
     15 C15         4.9505   -1.3238    1.0154 C.ar      1 <1>        -0.0191
     16 C16         2.3701    2.1686   -1.0853 C.ar      1 <1>         0.0333
     17 C17         4.9968    1.9914   -2.4570 C.ar      1 <1>         0.0255
     18 C18        -2.7488    2.7032    1.3902 C.3       1 <1>        -0.0423
     19 C19         6.2743    1.9889   -3.2125 C.3       1 <1>         0.0129
     20 N1          5.3586    0.1736   -0.7822 N.2       1 <1>        -0.3234
     21 N2          2.7248    2.9681   -2.1263 N.ar      1 <1>        -0.3061
     22 N3          4.0200    2.8781   -2.8001 N.ar      1 <1>        -0.3069
     23 N4          4.5361   -0.2859    0.1826 N.pl3     1 <1>        -0.3027
     24 H1          6.1033   -4.2081    3.3333 H         1 <1>         0.1262
     25 H2          4.5119   -2.5003    4.1753 H         1 <1>         0.1340
     26 H3          6.9567   -4.0695    1.0091 H         1 <1>         0.1349
     27 H4          0.9557    0.2169    0.0983 H         1 <1>         0.1454
     28 H5          0.9197    4.4194   -0.8838 H         1 <1>         0.1318
     29 H6         -1.2485    0.4512    1.1639 H         1 <1>         0.1234
     30 H7         -1.2849    4.6457    0.1831 H         1 <1>         0.1201
     31 H8          3.7736   -0.6596    2.7042 H         1 <1>         0.1452
     32 H9          6.2275   -2.2344   -0.4744 H         1 <1>         0.1570
     33 H10         2.5704    0.0707    0.9759 H         1 <1>         0.2524
     34 H11        -2.6351    2.9522    2.4523 H         1 <1>         0.0613
     35 H12        -3.3435    3.4910    0.9098 H         1 <1>         0.0591
     36 H13        -3.3288    1.7745    1.3107 H         1 <1>         0.0586
     37 H14         6.2179    1.3034   -4.0700 H         1 <1>         0.1032
     38 H15         6.5230    2.9914   -3.5920 H         1 <1>         0.1036
     39 H16         7.1190    1.6769   -2.5800 H         1 <1>         0.1000
@<TRIPOS>BOND
     1    1    2 ar
     2    1    3 ar
     3    2    8 ar
     4    3    9 ar
     5    4    6 ar
     6    4   12 ar
     7    5    7 ar
     8    5   12 ar
     9    6   13 ar
    10    7   13 ar
    11    8   15 ar
    12    9   15 ar
    13   10   11 2
    14   10   23 1
    15   11   14 ar
    16   11   16 ar
    17   12   16 1
    18   13   18 1
    19   14   17 ar
    20   14   20 2
    21   15   23 1
    22   16   21 ar
    23   17   19 1
    24   17   22 ar
    25   20   23 1
    26   21   22 ar
    27    1   24 1
    28    2   25 1
    29    3   26 1
    30    4   27 1
    31    5   28 1
    32    6   29 1
    33    7   30 1
    34    8   31 1
    35    9   32 1
    36   10   33 1
    37   18   34 1
    38   18   35 1
    39   18   36 1
    40   19   37 1
    41   19   38 1
    42   19   39 1
