@<TRIPOS>MOLECULE
AI-031/12583049
   36    39     0
SMALL
USER_CHARGE


@<TRIPOS>ATOM
      1 C1          5.7783   -3.4016    2.6826 C.ar      1 <1>        -0.0872
      2 C2          4.8839   -2.4415    3.1560 C.ar      1 <1>        -0.0800
      3 C3          6.2587   -3.3229    1.3754 C.ar      1 <1>        -0.0780
      4 C4          0.4729    1.1912    0.1106 C.ar      1 <1>        -0.0561
      5 C5          0.4534    3.5441   -0.4375 C.ar      1 <1>        -0.0512
      6 C6          4.4698   -1.4029    2.3220 C.ar      1 <1>        -0.0581
      7 C7          5.8444   -2.2843    0.5415 C.ar      1 <1>        -0.0542
      8 C8         -0.7772    1.3217    0.7154 C.ar      1 <1>        -0.0533
      9 C9         -0.7967    3.6747    0.1672 C.ar      1 <1>        -0.0503
     10 C10         3.3249    0.3407    0.2479 C.2       1 <1>         0.0195
     11 C11         3.3731    1.2725   -0.7481 C.ar      1 <1>         0.0344
     12 C12         1.0884    2.3025   -0.4657 C.ar      1 <1>        -0.0240
     13 C13         4.6612    1.1517   -1.3851 C.ar      1 <1>         0.0474
     14 C14         4.9501   -1.3243    1.0149 C.ar      1 <1>        -0.0187
     15 C15        -1.4121    2.5634    0.7437 C.ar      1 <1>        -0.0129
     16 C16         2.3702    2.1687   -1.0852 C.ar      1 <1>         0.0366
     17 C17         4.9971    1.9919   -2.4564 C.ar      1 <1>         0.0267
     18 C18         6.2748    1.9897   -3.2118 C.3       1 <1>         0.0137
     19 N1          5.3586    0.1736   -0.7821 N.2       1 <1>        -0.3225
     20 N2          2.7251    2.9686   -2.1259 N.ar      1 <1>        -0.3041
     21 N3          4.0204    2.8788   -2.7995 N.ar      1 <1>        -0.3053
     22 N4          4.5359   -0.2862    0.1823 N.pl3     1 <1>        -0.3022
     23 Cl1        -2.9540    2.7240    1.4913 Cl        1 <1>        -0.1818
     24 H1          6.1024   -4.2094    3.3321 H         1 <1>         0.1267
     25 H2          4.5109   -2.5018    4.1743 H         1 <1>         0.1343
     26 H3          6.9563   -4.0701    1.0081 H         1 <1>         0.1352
     27 H4          0.9552    0.2167    0.0968 H         1 <1>         0.1452
     28 H5          0.9206    4.4199   -0.8817 H         1 <1>         0.1588
     29 H6          3.7729   -0.6607    2.7037 H         1 <1>         0.1455
     30 H7          6.2273   -2.2345   -0.4750 H         1 <1>         0.1572
     31 H8         -1.2446    0.4478    1.1625 H         1 <1>         0.1465
     32 H9         -1.2794    4.6486    0.1830 H         1 <1>         0.1499
     33 H10         2.5700    0.0702    0.9753 H         1 <1>         0.2526
     34 H11         6.2186    1.3044   -4.0695 H         1 <1>         0.1043
     35 H12         6.5236    2.9923   -3.5908 H         1 <1>         0.1009
     36 H13         7.1193    1.6774   -2.5792 H         1 <1>         0.1045
@<TRIPOS>BOND
     1    1    2 ar
     2    1    3 ar
     3    2    6 ar
     4    3    7 ar
     5    4    8 ar
     6    4   12 ar
     7    5    9 ar
     8    5   12 ar
     9    6   14 ar
    10    7   14 ar
    11    8   15 ar
    12    9   15 ar
    13   10   11 2
    14   10   22 1
    15   11   13 ar
    16   11   16 ar
    17   12   16 1
    18   13   17 ar
    19   13   19 2
    20   14   22 1
    21   15   23 1
    22   16   20 ar
    23   17   18 1
    24   17   21 ar
    25   19   22 1
    26   20   21 ar
    27    1   24 1
    28    2   25 1
    29    3   26 1
    30    4   27 1
    31    5   28 1
    32    6   29 1
    33    7   30 1
    34    8   31 1
    35    9   32 1
    36   10   33 1
    37   18   34 1
    38   18   35 1
    39   18   36 1
