@<TRIPOS>MOLECULE
AI-031/11219617
   33    36     0
SMALL
USER_CHARGE


@<TRIPOS>ATOM
      1 C1          5.7828   -3.4176    2.6559 C.ar      1 <1>        -0.0872
      2 C2          5.4161   -2.1933    3.2146 C.ar      1 <1>        -0.0799
      3 C3          5.7273   -3.5983    1.2739 C.ar      1 <1>        -0.0780
      4 C4         -1.1035    1.7873    0.3124 C.2       1 <1>        -0.0733
      5 C5          4.9939   -1.1496    2.3912 C.ar      1 <1>        -0.0579
      6 C6          5.3051   -2.5545    0.4505 C.ar      1 <1>        -0.0540
      7 C7          0.0469    1.2959   -0.3698 C.2       1 <1>        -0.0565
      8 C8          3.2944    0.3186    0.2477 C.2       1 <1>         0.0219
      9 C9         -0.9483    3.0964    0.7122 C.2       1 <1>        -0.0431
     10 C10         3.3373    1.2643   -0.7353 C.ar      1 <1>         0.0402
     11 C11         4.6341    1.1739   -1.3596 C.ar      1 <1>         0.0504
     12 C12         4.9383   -1.3301    1.0092 C.ar      1 <1>        -0.0183
     13 C13         2.3229    2.1479   -1.0717 C.ar      1 <1>         0.0510
     14 C14         1.0375    2.2484   -0.4656 C.2       1 <1>         0.0028
     15 C15         4.9672    2.0341   -2.4158 C.ar      1 <1>         0.0292
     16 C16         6.2519    2.0614   -3.1591 C.3       1 <1>         0.0145
     17 N1          5.3415    0.1999   -0.7619 N.2       1 <1>        -0.3209
     18 N2          2.6752    2.9675   -2.0977 N.ar      1 <1>        -0.2962
     19 N3          3.9792    2.9088   -2.7580 N.ar      1 <1>        -0.3010
     20 N4          4.5164   -0.2867    0.1872 N.pl3     1 <1>        -0.3010
     21 S1          0.5795    3.7277    0.2652 S.3       1 <1>        -0.1517
     22 H1          6.1132   -4.2301    3.2964 H         1 <1>         0.1267
     23 H2          5.4604   -2.0520    4.2905 H         1 <1>         0.1345
     24 H3          6.0145   -4.5515    0.8395 H         1 <1>         0.1352
     25 H4         -1.9998    1.2106    0.5000 H         1 <1>         0.1224
     26 H5          4.7116   -0.2000    2.8395 H         1 <1>         0.1458
     27 H6          5.2673   -2.7086   -0.6251 H         1 <1>         0.1573
     28 H7          0.1346    0.2927   -0.7686 H         1 <1>         0.1431
     29 H8          2.5366    0.0256    0.9631 H         1 <1>         0.2537
     30 H9         -1.6591    3.7123    1.2448 H         1 <1>         0.1792
     31 H10         6.2137    1.3873   -4.0266 H         1 <1>         0.1049
     32 H11         6.4890    3.0728   -3.5218 H         1 <1>         0.1050
     33 H12         7.0949    1.7529   -2.5227 H         1 <1>         0.1015
@<TRIPOS>BOND
     1    1    2 ar
     2    1    3 ar
     3    2    5 ar
     4    3    6 ar
     5    4    7 1
     6    4    9 2
     7    5   12 ar
     8    6   12 ar
     9    7   14 2
    10    8   10 2
    11    8   20 1
    12    9   21 1
    13   10   11 ar
    14   10   13 ar
    15   11   15 ar
    16   11   17 2
    17   12   20 1
    18   13   14 1
    19   13   18 ar
    20   14   21 1
    21   15   16 1
    22   15   19 ar
    23   17   20 1
    24   18   19 ar
    25    1   22 1
    26    2   23 1
    27    3   24 1
    28    4   25 1
    29    5   26 1
    30    6   27 1
    31    7   28 1
    32    8   29 1
    33    9   30 1
    34   16   31 1
    35   16   32 1
    36   16   33 1
