@<TRIPOS>MOLECULE
AJ-916/40989368
   36    39     0
SMALL
USER_CHARGE


@<TRIPOS>ATOM
      1 C1          5.4600   -2.1430    3.2267 C.ar      1 <1>        -0.0699
      2 C2          5.7706   -3.3962    2.6989 C.ar      1 <1>        -0.0709
      3 C3         -0.7144    1.4411    0.8455 C.ar      1 <1>        -0.0759
      4 C4          0.5205    1.2892    0.2151 C.ar      1 <1>        -0.0618
      5 C5          5.0535   -1.1111    2.3807 C.ar      1 <1>        -0.0422
      6 C6          5.6749   -3.6176    1.3252 C.ar      1 <1>        -0.0395
      7 C7         -1.3213    2.6959    0.8972 C.ar      1 <1>        -0.0652
      8 C8          0.5417    3.6470   -0.3116 C.ar      1 <1>        -0.0390
      9 C9          3.3551    0.3750    0.2877 C.2       1 <1>         0.0235
     10 C10         3.4041    1.3149   -0.7006 C.ar      1 <1>         0.0369
     11 C11         1.1487    2.3920   -0.3633 C.ar      1 <1>        -0.0205
     12 C12         4.6763    1.1717   -1.3644 C.ar      1 <1>         0.0514
     13 C13         4.9577   -1.3325    1.0069 C.ar      1 <1>         0.0188
     14 C14         5.2684   -2.5858    0.4790 C.ar      1 <1>         0.0332
     15 C15        -0.6933    3.7989    0.3188 C.ar      1 <1>        -0.0274
     16 C16         2.4148    2.2361   -1.0095 C.ar      1 <1>         0.0387
     17 C17         5.0095    2.0145   -2.4346 C.ar      1 <1>         0.0284
     18 C18         6.2715    1.9912   -3.2155 C.3       1 <1>         0.0141
     19 N1          5.3635    0.1728   -0.7843 N.2       1 <1>        -0.3153
     20 N2          2.7666    3.0377   -2.0500 N.ar      1 <1>        -0.3031
     21 N3          4.0460    2.9258   -2.7502 N.ar      1 <1>        -0.3045
     22 N4          4.5502   -0.2777    0.1922 N.pl3     1 <1>        -0.2890
     23 Cl1         5.1676   -2.9091   -1.2164 Cl        1 <1>        -0.1380
     24 Br1        -1.5154    5.4994    0.3906 Br        1 <1>        -0.1351
     25 H1          5.5356   -1.9710    4.2966 H         1 <1>         0.1428
     26 H2          6.0877   -4.1994    3.3578 H         1 <1>         0.1399
     27 H3         -1.2036    0.5825    1.2962 H         1 <1>         0.1348
     28 H4          0.9802    0.3043    0.1818 H         1 <1>         0.1424
     29 H5          4.8147   -0.1402    2.8084 H         1 <1>         0.1581
     30 H6          5.9227   -4.5998    0.9310 H         1 <1>         0.1592
     31 H7         -2.2841    2.7971    1.3924 H         1 <1>         0.1443
     32 H8          1.0327    4.5068   -0.7633 H         1 <1>         0.1677
     33 H9          2.6089    0.1143    1.0275 H         1 <1>         0.2528
     34 H10         6.1830    1.3155   -4.0780 H         1 <1>         0.1045
     35 H11         6.5348    2.9916   -3.5904 H         1 <1>         0.1008
     36 H12         7.1213    1.6545   -2.6027 H         1 <1>         0.1048
@<TRIPOS>BOND
     1    1    2 ar
     2    1    5 ar
     3    2    6 ar
     4    3    4 ar
     5    3    7 ar
     6    4   11 ar
     7    5   13 ar
     8    6   14 ar
     9    7   15 ar
    10    8   11 ar
    11    8   15 ar
    12    9   10 2
    13    9   22 1
    14   10   12 ar
    15   10   16 ar
    16   11   16 1
    17   12   17 ar
    18   12   19 2
    19   13   14 ar
    20   13   22 1
    21   14   23 1
    22   15   24 1
    23   16   20 ar
    24   17   18 1
    25   17   21 ar
    26   19   22 1
    27   20   21 ar
    28    1   25 1
    29    2   26 1
    30    3   27 1
    31    4   28 1
    32    5   29 1
    33    6   30 1
    34    7   31 1
    35    8   32 1
    36    9   33 1
    37   18   34 1
    38   18   35 1
    39   18   36 1
