@<TRIPOS>MOLECULE
AO-476/43201369
   43    47     0
SMALL
USER_CHARGE


@<TRIPOS>ATOM
      1 C1         -1.4283    2.5797    0.7354 C.ar      1 <1>        -0.0943
      2 C2          0.3762   -0.7195    3.1016 C.ar      1 <1>        -0.0910
      3 C3          5.9027   -3.4092    2.6292 C.ar      1 <1>        -0.0855
      4 C4         -1.0659    1.3661    0.1511 C.ar      1 <1>        -0.0885
      5 C5         -0.5372    3.6528    0.7244 C.ar      1 <1>        -0.0893
      6 C6          0.8954    0.5749    3.0792 C.ar      1 <1>        -0.0856
      7 C7          0.8314   -1.6694    2.1871 C.ar      1 <1>        -0.0878
      8 C8          5.5519   -2.1820    3.1920 C.ar      1 <1>        -0.0780
      9 C9          5.8032   -3.5985    1.2509 C.ar      1 <1>        -0.0770
     10 C10         0.1877    1.2255   -0.4441 C.ar      1 <1>        -0.0673
     11 C11         0.7163    3.5123    0.1291 C.ar      1 <1>        -0.0690
     12 C12         1.8696    0.9195    2.1424 C.ar      1 <1>        -0.0685
     13 C13         1.8056   -1.3249    1.2503 C.ar      1 <1>        -0.0714
     14 C14         5.1014   -1.1442    2.3762 C.ar      1 <1>        -0.0538
     15 C15         5.3527   -2.5605    0.4351 C.ar      1 <1>        -0.0519
     16 C16         3.3741    1.2621   -0.7373 C.ar      1 <1>         0.0597
     17 C17         1.0789    2.2985   -0.4551 C.ar      1 <1>        -0.0275
     18 C18         2.3248   -0.0304    1.2279 C.ar      1 <1>        -0.0350
     19 C19         4.6591    1.1502   -1.3823 C.ar      1 <1>         0.1010
     20 C20         5.0019   -1.3333    0.9977 C.ar      1 <1>        -0.0113
     21 C21         2.3644    2.1541   -1.0658 C.ar      1 <1>         0.0510
     22 C22         3.3368    0.3271    0.2561 C.2       1 <1>         0.0295
     23 C23         4.9841    1.9955   -2.4530 C.ar      1 <1>         0.1504
     24 N1          5.3651    0.1740   -0.7865 N.2       1 <1>        -0.2984
     25 N2          2.7088    2.9589   -2.1062 N.ar      1 <1>        -0.2800
     26 N3          4.0007    2.8782   -2.7876 N.ar      1 <1>        -0.2459
     27 N4          4.5506   -0.2930    0.1813 N.pl3     1 <1>        -0.2886
     28 Cl1         6.4576    1.9334   -3.2542 Cl        1 <1>        -0.0433
     29 H1         -2.4051    2.6894    1.1973 H         1 <1>         0.1203
     30 H2         -0.3821   -0.9879    3.8316 H         1 <1>         0.1257
     31 H3          6.2552   -4.2169    3.2638 H         1 <1>         0.1292
     32 H4         -1.7602    0.5311    0.1580 H         1 <1>         0.1217
     33 H5         -0.8194    4.5985    1.1778 H         1 <1>         0.1206
     34 H6          0.5407    1.3144    3.7913 H         1 <1>         0.1278
     35 H7          0.4278   -2.6777    2.2053 H         1 <1>         0.1248
     36 H8          5.6305   -2.0340    4.2651 H         1 <1>         0.1346
     37 H9          6.0779   -4.5539    0.8134 H         1 <1>         0.1352
     38 H10         0.4555    0.2730   -0.8956 H         1 <1>         0.1412
     39 H11         1.4003    4.3576    0.1278 H         1 <1>         0.1350
     40 H12         2.2663    1.9319    2.1394 H         1 <1>         0.1401
     41 H13         2.1493   -2.0764    0.5435 H         1 <1>         0.1333
     42 H14         4.8319   -0.1922    2.8275 H         1 <1>         0.1511
     43 H15         5.2807   -2.7214   -0.6378 H         1 <1>         0.1567
@<TRIPOS>BOND
     1    1    4 ar
     2    1    5 ar
     3    2    6 ar
     4    2    7 ar
     5    3    8 ar
     6    3    9 ar
     7    4   10 ar
     8    5   11 ar
     9    6   12 ar
    10    7   13 ar
    11    8   14 ar
    12    9   15 ar
    13   10   17 ar
    14   11   17 ar
    15   12   18 ar
    16   13   18 ar
    17   14   20 ar
    18   15   20 ar
    19   16   19 ar
    20   16   21 ar
    21   16   22 2
    22   17   21 1
    23   18   22 1
    24   19   23 ar
    25   19   24 2
    26   20   27 1
    27   21   25 ar
    28   22   27 1
    29   23   26 ar
    30   23   28 1
    31   24   27 1
    32   25   26 ar
    33    1   29 1
    34    2   30 1
    35    3   31 1
    36    4   32 1
    37    5   33 1
    38    6   34 1
    39    7   35 1
    40    8   36 1
    41    9   37 1
    42   10   38 1
    43   11   39 1
    44   12   40 1
    45   13   41 1
    46   14   42 1
    47   15   43 1
