@<TRIPOS>MOLECULE
AO-476/43250026
   40    43     0
SMALL
USER_CHARGE


@<TRIPOS>ATOM
      1 C1          1.0952    2.8025    0.8937 C.ar      1 <1>        -0.0841
      2 C2          0.1771    1.1918   -0.6554 C.ar      1 <1>        -0.0859
      3 C3          4.3206   -1.5308    2.5483 C.ar      1 <1>        -0.0486
      4 C4          5.6597   -2.3331    0.7043 C.ar      1 <1>        -0.0443
      5 C5         -0.1841    3.3068    1.1276 C.ar      1 <1>        -0.0976
      6 C6         -1.1022    1.6960   -0.4214 C.ar      1 <1>        -0.0987
      7 C7          4.7978   -2.5699    3.3470 C.ar      1 <1>        -0.0270
      8 C8          6.1371   -3.3722    1.5031 C.ar      1 <1>        -0.0247
      9 C9          2.9989    0.1908    0.5972 C.ar      1 <1>        -0.0289
     10 C10         5.1794    2.5201   -3.1154 C.ar      1 <1>         0.0400
     11 C11         3.4878    1.6746   -1.2354 C.ar      1 <1>         0.0211
     12 C12         1.2758    1.7450    0.0022 C.ar      1 <1>        -0.0654
     13 C13         4.7515   -1.4124    1.2269 C.ar      1 <1>        -0.0317
     14 C14         2.6087    1.2199   -0.2416 C.ar      1 <1>        -0.0205
     15 C15        -1.2828    2.7535    0.4701 C.ar      1 <1>        -0.1105
     16 C16         5.7061   -3.4907    2.8245 C.ar      1 <1>         0.0488
     17 C17         4.2574   -0.3367    0.4002 C.ar      1 <1>        -0.0015
     18 C18         4.7504    1.0854   -1.3699 C.ar      1 <1>         0.0472
     19 C19         3.1674    2.7043   -2.1168 C.ar      1 <1>         0.0184
     20 C20        -2.6506    3.2928    0.7199 C.3       1 <1>        -0.0426
     21 N1          5.5935    1.5150   -2.3154 N.ar      1 <1>        -0.3322
     22 N2          3.9979    3.1515   -3.0734 N.ar      1 <1>        -0.3496
     23 N3          5.1204    0.0893   -0.5534 N.ar      1 <1>        -0.3452
     24 N4          1.9210    3.3659   -2.0667 N.pl3     1 <1>        -0.3293
     25 F1          6.1643   -4.4886    3.5916 F         1 <1>        -0.3385
     26 H1          1.9417    3.2450    1.4136 H         1 <1>         0.1335
     27 H2          0.3016    0.3667   -1.3528 H         1 <1>         0.1294
     28 H3          3.6128   -0.8211    2.9702 H         1 <1>         0.1533
     29 H4          6.0052   -2.2542   -0.3237 H         1 <1>         0.1657
     30 H5         -0.3153    4.1315    1.8231 H         1 <1>         0.1195
     31 H6         -1.9527    1.2586   -0.9378 H         1 <1>         0.1193
     32 H7          4.4624   -2.6625    4.3758 H         1 <1>         0.1551
     33 H8          6.8442   -4.0894    1.0970 H         1 <1>         0.1569
     34 H9          2.3477   -0.1896    1.3792 H         1 <1>         0.1662
     35 H10         5.8791    2.8498   -3.8737 H         1 <1>         0.3153
     36 H11        -2.8775    4.1010    0.0139 H         1 <1>         0.0618
     37 H12        -3.4134    2.5110    0.6106 H         1 <1>         0.0590
     38 H13        -2.7434    3.6863    1.7407 H         1 <1>         0.0591
     39 H14         1.2324    3.0571   -1.4119 H         1 <1>         0.2709
     40 H15         1.7152    4.0670   -2.7484 H         1 <1>         0.2664
@<TRIPOS>BOND
     1    1    5 ar
     2    1   12 ar
     3    2    6 ar
     4    2   12 ar
     5    3    7 ar
     6    3   13 ar
     7    4    8 ar
     8    4   13 ar
     9    5   15 ar
    10    6   15 ar
    11    7   16 ar
    12    8   16 ar
    13    9   14 ar
    14    9   17 ar
    15   10   21 ar
    16   10   22 ar
    17   11   14 ar
    18   11   18 ar
    19   11   19 ar
    20   12   14 1
    21   13   17 1
    22   15   20 1
    23   16   25 1
    24   17   23 ar
    25   18   21 ar
    26   18   23 ar
    27   19   22 ar
    28   19   24 1
    29    1   26 1
    30    2   27 1
    31    3   28 1
    32    4   29 1
    33    5   30 1
    34    6   31 1
    35    7   32 1
    36    8   33 1
    37    9   34 1
    38   10   35 1
    39   20   36 1
    40   20   37 1
    41   20   38 1
    42   24   39 1
    43   24   40 1
