@<TRIPOS>MOLECULE
AO-476/43249988
   44    48     0
SMALL
USER_CHARGE


@<TRIPOS>ATOM
      1 C1          0.4270   -0.6291    3.1493 C.ar      1 <1>        -0.0929
      2 C2         -1.3748    2.6886    0.5787 C.ar      1 <1>        -0.0945
      3 C3          0.9657    0.6564    3.0981 C.ar      1 <1>        -0.0875
      4 C4          0.8626   -1.6041    2.2518 C.ar      1 <1>        -0.0899
      5 C5         -1.0179    1.4802   -0.0197 C.ar      1 <1>        -0.0888
      6 C6         -0.4726    3.7523    0.5945 C.ar      1 <1>        -0.0885
      7 C7          1.9399    0.9671    2.1496 C.ar      1 <1>        -0.0714
      8 C8          1.8368   -1.2934    1.3031 C.ar      1 <1>        -0.0746
      9 C9          0.2412    1.3355   -0.6022 C.ar      1 <1>        -0.0673
     10 C10         0.7866    3.6075    0.0120 C.ar      1 <1>        -0.0676
     11 C11         5.1654   -1.1692    2.3776 C.ar      1 <1>        -0.0342
     12 C12         5.3758   -2.5979    0.4407 C.ar      1 <1>        -0.0357
     13 C13         5.6158   -2.2076    3.1926 C.ar      1 <1>        -0.0389
     14 C14         5.8262   -3.6365    1.2557 C.ar      1 <1>        -0.0396
     15 C15         2.3754   -0.0077    1.2520 C.ar      1 <1>        -0.0385
     16 C16         1.1435    2.3992   -0.5862 C.ar      1 <1>        -0.0284
     17 C17         3.3971    1.2446   -0.7384 C.2       1 <1>         0.0679
     18 C18         5.0453   -1.3643    1.0017 C.ar      1 <1>         0.0013
     19 C19         5.9461   -3.4413    2.6316 C.ar      1 <1>        -0.0028
     20 C20         3.3863    0.3144    0.2690 C.2       1 <1>         0.0317
     21 C21         4.6534    1.1037   -1.3431 C.2       1 <1>         0.1219
     22 C22         2.4757    2.2460   -1.2025 C.2       1 <1>         0.0427
     23 C23         5.0480    1.9570   -2.4305 C.2       1 <1>         0.1599
     24 N1          5.3949    0.1407   -0.7941 N.2       1 <1>        -0.2775
     25 N2          2.8362    3.0367   -2.1745 N.2       1 <1>        -0.3061
     26 N3          4.5944   -0.3242    0.1859 N.pl3     1 <1>        -0.2795
     27 N4          4.0742    2.8947   -2.7648 N.am      1 <1>        -0.2271
     28 O1          6.1337    1.8655   -2.9945 O.2       1 <1>        -0.4685
     29 Cl1         6.5042   -4.7217    3.6371 Cl        1 <1>        -0.1737
     30 H1         -0.3311   -0.8713    3.8885 H         1 <1>         0.1231
     31 H2         -2.3552    2.8012    1.0322 H         1 <1>         0.1194
     32 H3          0.6262    1.4155    3.7970 H         1 <1>         0.1259
     33 H4          0.4440   -2.6055    2.2924 H         1 <1>         0.1228
     34 H5         -1.7204    0.6521   -0.0317 H         1 <1>         0.1208
     35 H6         -0.7506    4.6932    1.0602 H         1 <1>         0.1211
     36 H7          2.3519    1.9731    2.1241 H         1 <1>         0.1383
     37 H8          2.1650   -2.0640    0.6099 H         1 <1>         0.1305
     38 H9          0.5091    0.3895   -1.0657 H         1 <1>         0.1400
     39 H10         1.4816    4.4431    0.0305 H         1 <1>         0.1374
     40 H11         4.9115   -0.2128    2.8282 H         1 <1>         0.1712
     41 H12         5.2872   -2.7632   -0.6304 H         1 <1>         0.1669
     42 H13         5.7041   -2.0420    4.2632 H         1 <1>         0.1610
     43 H14         6.0798   -4.5925    0.8048 H         1 <1>         0.1606
     44 H15         4.2981    3.5378   -3.5180 H         1 <1>         0.4086
@<TRIPOS>BOND
     1    1    3 ar
     2    1    4 ar
     3    2    5 ar
     4    2    6 ar
     5    3    7 ar
     6    4    8 ar
     7    5    9 ar
     8    6   10 ar
     9    7   15 ar
    10    8   15 ar
    11    9   16 ar
    12   10   16 ar
    13   11   13 ar
    14   11   18 ar
    15   12   14 ar
    16   12   18 ar
    17   13   19 ar
    18   14   19 ar
    19   15   20 1
    20   16   22 1
    21   17   20 2
    22   17   21 1
    23   17   22 1
    24   18   26 1
    25   19   29 1
    26   20   26 1
    27   21   23 1
    28   21   24 2
    29   22   25 2
    30   23   27 am
    31   23   28 2
    32   24   26 1
    33   25   27 1
    34    1   30 1
    35    2   31 1
    36    3   32 1
    37    4   33 1
    38    5   34 1
    39    6   35 1
    40    7   36 1
    41    8   37 1
    42    9   38 1
    43   10   39 1
    44   11   40 1
    45   12   41 1
    46   13   42 1
    47   14   43 1
    48   27   44 1
