@<TRIPOS>MOLECULE
AO-476/43249984
   47    51     0
SMALL
USER_CHARGE


@<TRIPOS>ATOM
      1 C1          0.4267   -0.6282    3.1499 C.ar      1 <1>        -0.0933
      2 C2         -1.3748    2.6889    0.5785 C.ar      1 <1>        -0.0946
      3 C3          0.9656    0.6574    3.0985 C.ar      1 <1>        -0.0879
      4 C4          0.8623   -1.6034    2.2526 C.ar      1 <1>        -0.0901
      5 C5         -1.0180    1.4804   -0.0196 C.ar      1 <1>        -0.0886
      6 C6         -0.4726    3.7526    0.5941 C.ar      1 <1>        -0.0889
      7 C7          1.9398    0.9678    2.1497 C.ar      1 <1>        -0.0715
      8 C8          1.8366   -1.2928    1.3038 C.ar      1 <1>        -0.0745
      9 C9          0.2411    1.3355   -0.6020 C.ar      1 <1>        -0.0676
     10 C10         0.7865    3.6077    0.0117 C.ar      1 <1>        -0.0674
     11 C11         5.6163   -2.2085    3.1927 C.ar      1 <1>        -0.0805
     12 C12         5.8265   -3.6361    1.2550 C.ar      1 <1>        -0.0811
     13 C13         5.1655   -1.1695    2.3785 C.ar      1 <1>        -0.0511
     14 C14         5.3756   -2.5972    0.4407 C.ar      1 <1>        -0.0523
     15 C15         2.3753   -0.0072    1.2524 C.ar      1 <1>        -0.0385
     16 C16         1.1434    2.3992   -0.5864 C.ar      1 <1>        -0.0286
     17 C17         3.3970    1.2445   -0.7381 C.2       1 <1>         0.0668
     18 C18         5.9468   -3.4418    2.6310 C.ar      1 <1>        -0.0997
     19 C19         5.0451   -1.3640    1.0024 C.ar      1 <1>        -0.0082
     20 C20         3.3862    0.3146    0.2693 C.2       1 <1>         0.0306
     21 C21         4.6532    1.1035   -1.3430 C.2       1 <1>         0.1206
     22 C22         2.4756    2.2459   -1.2025 C.2       1 <1>         0.0419
     23 C23         5.0479    1.9566   -2.4305 C.2       1 <1>         0.1586
     24 C24         6.4288   -4.5525    3.5015 C.3       1 <1>        -0.0392
     25 N1          5.3947    0.1407   -0.7936 N.2       1 <1>        -0.2790
     26 N2          2.8361    3.0364   -2.1748 N.2       1 <1>        -0.3069
     27 N3          4.5942   -0.3241    0.1864 N.pl3     1 <1>        -0.2825
     28 N4          4.0741    2.8942   -2.7650 N.am      1 <1>        -0.2279
     29 O1          6.1335    1.8650   -2.9945 O.2       1 <1>        -0.4696
     30 H1         -0.3313   -0.8701    3.8891 H         1 <1>         0.1222
     31 H2         -2.3553    2.8017    1.0319 H         1 <1>         0.1191
     32 H3          0.6261    1.4166    3.7970 H         1 <1>         0.1252
     33 H4          0.4438   -2.6048    2.2935 H         1 <1>         0.1221
     34 H5         -1.7205    0.6523   -0.0315 H         1 <1>         0.1210
     35 H6         -0.7507    4.6937    1.0595 H         1 <1>         0.1206
     36 H7          2.3518    1.9738    2.1241 H         1 <1>         0.1378
     37 H8          2.1647   -2.0637    0.6108 H         1 <1>         0.1307
     38 H9          0.5089    0.3894   -1.0654 H         1 <1>         0.1374
     39 H10         1.4814    4.4433    0.0299 H         1 <1>         0.1399
     40 H11         5.7073   -2.0488    4.2638 H         1 <1>         0.1345
     41 H12         6.0819   -4.5936    0.8086 H         1 <1>         0.1342
     42 H13         4.9120   -0.2129    2.8288 H         1 <1>         0.1575
     43 H14         5.2870   -2.7629   -0.6303 H         1 <1>         0.1538
     44 H15         5.5833   -5.1558    3.8542 H         1 <1>         0.0642
     45 H16         7.1234   -5.2092    2.9618 H         1 <1>         0.0614
     46 H17         6.9702   -4.1676    4.3757 H         1 <1>         0.0613
     47 H18         4.2980    3.5370   -3.5183 H         1 <1>         0.4078
@<TRIPOS>BOND
     1    1    3 ar
     2    1    4 ar
     3    2    5 ar
     4    2    6 ar
     5    3    7 ar
     6    4    8 ar
     7    5    9 ar
     8    6   10 ar
     9    7   15 ar
    10    8   15 ar
    11    9   16 ar
    12   10   16 ar
    13   11   13 ar
    14   11   18 ar
    15   12   14 ar
    16   12   18 ar
    17   13   19 ar
    18   14   19 ar
    19   15   20 1
    20   16   22 1
    21   17   20 2
    22   17   21 1
    23   17   22 1
    24   18   24 1
    25   19   27 1
    26   20   27 1
    27   21   23 1
    28   21   25 2
    29   22   26 2
    30   23   28 am
    31   23   29 2
    32   25   27 1
    33   26   28 1
    34    1   30 1
    35    2   31 1
    36    3   32 1
    37    4   33 1
    38    5   34 1
    39    6   35 1
    40    7   36 1
    41    8   37 1
    42    9   38 1
    43   10   39 1
    44   11   40 1
    45   12   41 1
    46   13   42 1
    47   14   43 1
    48   24   44 1
    49   24   45 1
    50   24   46 1
    51   28   47 1
