@<TRIPOS>MOLECULE
AO-476/43249991
   44    48     0
SMALL
USER_CHARGE


@<TRIPOS>ATOM
      1 C1          0.4270   -0.6290    3.1495 C.ar      1 <1>        -0.0929
      2 C2         -1.3748    2.6887    0.5787 C.ar      1 <1>        -0.0945
      3 C3          0.9656    0.6566    3.0983 C.ar      1 <1>        -0.0876
      4 C4          0.8626   -1.6040    2.2520 C.ar      1 <1>        -0.0900
      5 C5         -1.0179    1.4802   -0.0196 C.ar      1 <1>        -0.0888
      6 C6         -0.4726    3.7524    0.5944 C.ar      1 <1>        -0.0886
      7 C7          1.9399    0.9672    2.1496 C.ar      1 <1>        -0.0715
      8 C8          1.8368   -1.2932    1.3033 C.ar      1 <1>        -0.0747
      9 C9          0.2412    1.3354   -0.6022 C.ar      1 <1>        -0.0673
     10 C10         0.7866    3.6076    0.0120 C.ar      1 <1>        -0.0676
     11 C11         5.1654   -1.1692    2.3777 C.ar      1 <1>        -0.0257
     12 C12         5.3758   -2.5978    0.4407 C.ar      1 <1>        -0.0271
     13 C13         5.6159   -2.2078    3.1926 C.ar      1 <1>        -0.0122
     14 C14         5.8264   -3.6364    1.2556 C.ar      1 <1>        -0.0129
     15 C15         2.3754   -0.0076    1.2521 C.ar      1 <1>        -0.0387
     16 C16         1.1435    2.3992   -0.5863 C.ar      1 <1>        -0.0284
     17 C17         3.3971    1.2446   -0.7383 C.2       1 <1>         0.0676
     18 C18         5.0453   -1.3643    1.0017 C.ar      1 <1>         0.0041
     19 C19         5.9464   -3.4413    2.6315 C.ar      1 <1>         0.0592
     20 C20         3.3863    0.3144    0.2690 C.2       1 <1>         0.0313
     21 C21         4.6533    1.1036   -1.3431 C.2       1 <1>         0.1216
     22 C22         2.4757    2.2460   -1.2025 C.2       1 <1>         0.0425
     23 C23         5.0479    1.9569   -2.4305 C.2       1 <1>         0.1596
     24 N1          5.3948    0.1407   -0.7940 N.2       1 <1>        -0.2779
     25 N2          2.8361    3.0367   -2.1746 N.2       1 <1>        -0.3063
     26 N3          4.5943   -0.3242    0.1860 N.pl3     1 <1>        -0.2797
     27 N4          4.0742    2.8946   -2.7649 N.am      1 <1>        -0.2273
     28 O1          6.1336    1.8654   -2.9945 O.2       1 <1>        -0.4687
     29 F1          6.3790   -4.4386    3.4140 F         1 <1>        -0.3325
     30 H1         -0.3311   -0.8711    3.8887 H         1 <1>         0.1231
     31 H2         -2.3552    2.8013    1.0322 H         1 <1>         0.1193
     32 H3          0.6263    1.4157    3.7970 H         1 <1>         0.1259
     33 H4          0.4439   -2.6053    2.2927 H         1 <1>         0.1226
     34 H5         -1.7204    0.6521   -0.0317 H         1 <1>         0.1208
     35 H6         -0.7506    4.6933    1.0601 H         1 <1>         0.1211
     36 H7          2.3518    1.9733    2.1241 H         1 <1>         0.1383
     37 H8          2.1649   -2.0640    0.6101 H         1 <1>         0.1306
     38 H9          0.5090    0.3894   -1.0656 H         1 <1>         0.1400
     39 H10         1.4816    4.4431    0.0304 H         1 <1>         0.1374
     40 H11         4.9106   -0.2132    2.8287 H         1 <1>         0.1753
     41 H12         5.2879   -2.7630   -0.6305 H         1 <1>         0.1709
     42 H13         5.7087   -2.0567    4.2639 H         1 <1>         0.1707
     43 H14         6.0846   -4.5968    0.8193 H         1 <1>         0.1703
     44 H15         4.2980    3.5376   -3.5181 H         1 <1>         0.4084
@<TRIPOS>BOND
     1    1    3 ar
     2    1    4 ar
     3    2    5 ar
     4    2    6 ar
     5    3    7 ar
     6    4    8 ar
     7    5    9 ar
     8    6   10 ar
     9    7   15 ar
    10    8   15 ar
    11    9   16 ar
    12   10   16 ar
    13   11   13 ar
    14   11   18 ar
    15   12   14 ar
    16   12   18 ar
    17   13   19 ar
    18   14   19 ar
    19   15   20 1
    20   16   22 1
    21   17   20 2
    22   17   21 1
    23   17   22 1
    24   18   26 1
    25   19   29 1
    26   20   26 1
    27   21   23 1
    28   21   24 2
    29   22   25 2
    30   23   27 am
    31   23   28 2
    32   24   26 1
    33   25   27 1
    34    1   30 1
    35    2   31 1
    36    3   32 1
    37    4   33 1
    38    5   34 1
    39    6   35 1
    40    7   36 1
    41    8   37 1
    42    9   38 1
    43   10   39 1
    44   11   40 1
    45   12   41 1
    46   13   42 1
    47   14   43 1
    48   27   44 1
