@<TRIPOS>MOLECULE
AI-031/12583052
   36    39     0
SMALL
USER_CHARGE


@<TRIPOS>ATOM
      1 C1         -1.4217    2.5467    0.7276 C.ar      1 <1>        -0.0951
      2 C2         -0.7827    1.3071    0.7009 C.ar      1 <1>        -0.0913
      3 C3         -0.8079    3.6600    0.1535 C.ar      1 <1>        -0.0883
      4 C4          0.4699    1.1807    0.1002 C.ar      1 <1>        -0.0729
      5 C5          0.4446    3.5338   -0.4472 C.ar      1 <1>        -0.0680
      6 C6          4.4673   -1.4038    2.3221 C.ar      1 <1>        -0.0374
      7 C7          5.8492   -2.2801    0.5446 C.ar      1 <1>        -0.0414
      8 C8          4.8820   -2.4419    3.1564 C.ar      1 <1>        -0.0400
      9 C9          6.2640   -3.3182    1.3789 C.ar      1 <1>        -0.0420
     10 C10         3.3235    0.3381    0.2455 C.2       1 <1>         0.0207
     11 C11         3.3719    1.2703   -0.7500 C.ar      1 <1>         0.0344
     12 C12         1.0836    2.2941   -0.4738 C.ar      1 <1>        -0.0337
     13 C13         4.6622    1.1532   -1.3835 C.ar      1 <1>         0.0476
     14 C14         4.9509   -1.3230    1.0162 C.ar      1 <1>        -0.0089
     15 C15         5.7803   -3.3990    2.6847 C.ar      1 <1>        -0.0045
     16 C16         2.3676    2.1641   -1.0896 C.ar      1 <1>         0.0341
     17 C17         4.9989    1.9950   -2.4534 C.ar      1 <1>         0.0265
     18 C18         6.2787    1.9965   -3.2052 C.3       1 <1>         0.0135
     19 N1          5.3604    0.1768   -0.7789 N.2       1 <1>        -0.3219
     20 N2          2.7232    2.9654   -2.1290 N.ar      1 <1>        -0.3050
     21 N3          4.0208    2.8793   -2.7989 N.ar      1 <1>        -0.3057
     22 N4          4.5363   -0.2855    0.1829 N.pl3     1 <1>        -0.2994
     23 Cl1         6.2937   -4.6783    3.7151 Cl        1 <1>        -0.1756
     24 H1         -2.3977    2.6445    1.1938 H         1 <1>         0.1202
     25 H2         -1.2611    0.4397    1.1464 H         1 <1>         0.1201
     26 H3         -1.3054    4.6253    0.1725 H         1 <1>         0.1234
     27 H4          0.9549    0.2074    0.0874 H         1 <1>         0.1305
     28 H5          0.9104    4.4103   -0.8912 H         1 <1>         0.1442
     29 H6          3.7668   -0.6644    2.7029 H         1 <1>         0.1717
     30 H7          6.2341   -2.2287   -0.4710 H         1 <1>         0.1600
     31 H8          4.4968   -2.4930    4.1716 H         1 <1>         0.1613
     32 H9          6.9640   -4.0573    0.9979 H         1 <1>         0.1603
     33 H10         2.5672    0.0652    0.9705 H         1 <1>         0.2540
     34 H11         6.2267    1.3114   -4.0634 H         1 <1>         0.1038
     35 H12         6.5258    2.9999   -3.5831 H         1 <1>         0.1041
     36 H13         7.1223    1.6862   -2.5703 H         1 <1>         0.1005
@<TRIPOS>BOND
     1    1    2 ar
     2    1    3 ar
     3    2    4 ar
     4    3    5 ar
     5    4   12 ar
     6    5   12 ar
     7    6    8 ar
     8    6   14 ar
     9    7    9 ar
    10    7   14 ar
    11    8   15 ar
    12    9   15 ar
    13   10   11 2
    14   10   22 1
    15   11   13 ar
    16   11   16 ar
    17   12   16 1
    18   13   17 ar
    19   13   19 2
    20   14   22 1
    21   15   23 1
    22   16   20 ar
    23   17   18 1
    24   17   21 ar
    25   19   22 1
    26   20   21 ar
    27    1   24 1
    28    2   25 1
    29    3   26 1
    30    4   27 1
    31    5   28 1
    32    6   29 1
    33    7   30 1
    34    8   31 1
    35    9   32 1
    36   10   33 1
    37   18   34 1
    38   18   35 1
    39   18   36 1
