@<TRIPOS>MOLECULE
AO-476/43250023
   37    40     0
SMALL
USER_CHARGE


@<TRIPOS>ATOM
      1 C1          5.7060   -3.4904    2.8248 C.ar      1 <1>        -0.0956
      2 C2          4.7977   -2.5697    3.3470 C.ar      1 <1>        -0.0892
      3 C3          6.1371   -3.3722    1.5035 C.ar      1 <1>        -0.0916
      4 C4          4.3204   -1.5308    2.5480 C.ar      1 <1>        -0.0694
      5 C5          5.6598   -2.3333    0.7043 C.ar      1 <1>        -0.0739
      6 C6          1.0954    2.8024    0.8937 C.ar      1 <1>        -0.0592
      7 C7          0.1771    1.1918   -0.6554 C.ar      1 <1>        -0.0609
      8 C8         -0.1840    3.3067    1.1277 C.ar      1 <1>        -0.0301
      9 C9         -1.1022    1.6960   -0.4213 C.ar      1 <1>        -0.0311
     10 C10         2.9990    0.1907    0.5970 C.ar      1 <1>        -0.0283
     11 C11         5.1795    2.5201   -3.1156 C.ar      1 <1>         0.0404
     12 C12         3.4878    1.6746   -1.2356 C.ar      1 <1>         0.0215
     13 C13         1.2758    1.7450    0.0020 C.ar      1 <1>        -0.0534
     14 C14         4.7515   -1.4126    1.2267 C.ar      1 <1>        -0.0441
     15 C15         2.6087    1.2199   -0.2417 C.ar      1 <1>        -0.0179
     16 C16        -1.2827    2.7535    0.4702 C.ar      1 <1>         0.0468
     17 C17         4.2573   -0.3369    0.4000 C.ar      1 <1>        -0.0035
     18 C18         4.7504    1.0854   -1.3701 C.ar      1 <1>         0.0475
     19 C19         3.1674    2.7043   -2.1169 C.ar      1 <1>         0.0182
     20 N1          5.5935    1.5150   -2.3157 N.ar      1 <1>        -0.3318
     21 N2          3.9979    3.1516   -3.0735 N.ar      1 <1>        -0.3494
     22 N3          5.1204    0.0892   -0.5537 N.ar      1 <1>        -0.3450
     23 N4          1.9210    3.3659   -2.0668 N.pl3     1 <1>        -0.3300
     24 F1         -2.5113    3.2377    0.6949 F         1 <1>        -0.3386
     25 H1          6.0788   -4.2982    3.4477 H         1 <1>         0.1200
     26 H2          4.4632   -2.6607    4.3763 H         1 <1>         0.1214
     27 H3          6.8454   -4.0879    1.0966 H         1 <1>         0.1194
     28 H4          3.6128   -0.8208    2.9698 H         1 <1>         0.1474
     29 H5          6.0053   -2.2536   -0.3237 H         1 <1>         0.1346
     30 H6          1.9417    3.2444    1.4139 H         1 <1>         0.1507
     31 H7          0.3014    0.3671   -1.3532 H         1 <1>         0.1467
     32 H8         -0.3248    4.1300    1.8218 H         1 <1>         0.1549
     33 H9         -1.9582    1.2657   -0.9329 H         1 <1>         0.1547
     34 H10         2.3477   -0.1897    1.3790 H         1 <1>         0.1677
     35 H11         5.8790    2.8499   -3.8738 H         1 <1>         0.3157
     36 H12         1.2324    3.0572   -1.4120 H         1 <1>         0.2690
     37 H13         1.7152    4.0670   -2.7484 H         1 <1>         0.2662
@<TRIPOS>BOND
     1    1    2 ar
     2    1    3 ar
     3    2    4 ar
     4    3    5 ar
     5    4   14 ar
     6    5   14 ar
     7    6    8 ar
     8    6   13 ar
     9    7    9 ar
    10    7   13 ar
    11    8   16 ar
    12    9   16 ar
    13   10   15 ar
    14   10   17 ar
    15   11   20 ar
    16   11   21 ar
    17   12   15 ar
    18   12   18 ar
    19   12   19 ar
    20   13   15 1
    21   14   17 1
    22   16   24 1
    23   17   22 ar
    24   18   20 ar
    25   18   22 ar
    26   19   21 ar
    27   19   23 1
    28    1   25 1
    29    2   26 1
    30    3   27 1
    31    4   28 1
    32    5   29 1
    33    6   30 1
    34    7   31 1
    35    8   32 1
    36    9   33 1
    37   10   34 1
    38   11   35 1
    39   23   36 1
    40   23   37 1
