@<TRIPOS>MOLECULE
AO-476/15578130
   37    40     0
SMALL
USER_CHARGE


@<TRIPOS>ATOM
      1 C1          5.7062   -3.4905    2.8247 C.ar      1 <1>        -0.0955
      2 C2          4.7979   -2.5698    3.3470 C.ar      1 <1>        -0.0892
      3 C3          6.1373   -3.3723    1.5034 C.ar      1 <1>        -0.0916
      4 C4          4.3206   -1.5309    2.5481 C.ar      1 <1>        -0.0694
      5 C5          5.6598   -2.3333    0.7043 C.ar      1 <1>        -0.0738
      6 C6          1.0952    2.8023    0.8940 C.ar      1 <1>        -0.0693
      7 C7          0.1772    1.1919   -0.6555 C.ar      1 <1>        -0.0677
      8 C8         -0.1841    3.3068    1.1275 C.ar      1 <1>        -0.0576
      9 C9         -1.1021    1.6964   -0.4220 C.ar      1 <1>        -0.0567
     10 C10         2.9990    0.1906    0.5971 C.ar      1 <1>        -0.0280
     11 C11         5.1793    2.5200   -3.1154 C.ar      1 <1>         0.0405
     12 C12         3.4878    1.6745   -1.2354 C.ar      1 <1>         0.0218
     13 C13         1.2758    1.7449    0.0023 C.ar      1 <1>        -0.0561
     14 C14         4.7515   -1.4126    1.2267 C.ar      1 <1>        -0.0440
     15 C15         2.6087    1.2197   -0.2416 C.ar      1 <1>        -0.0177
     16 C16        -1.2827    2.7539    0.4698 C.ar      1 <1>        -0.0150
     17 C17         4.2574   -0.3370    0.4001 C.ar      1 <1>        -0.0033
     18 C18         4.7503    1.0853   -1.3700 C.ar      1 <1>         0.0478
     19 C19         3.1674    2.7042   -2.1167 C.ar      1 <1>         0.0184
     20 N1          5.5935    1.5150   -2.3156 N.ar      1 <1>        -0.3316
     21 N2          3.9977    3.1515   -3.0733 N.ar      1 <1>        -0.3493
     22 N3          5.1203    0.0891   -0.5537 N.ar      1 <1>        -0.3448
     23 N4          1.9210    3.3659   -2.0666 N.pl3     1 <1>        -0.3298
     24 Cl1        -2.8607    3.3778    0.7574 Cl        1 <1>        -0.1811
     25 H1          6.0790   -4.2983    3.4476 H         1 <1>         0.1201
     26 H2          4.4634   -2.6608    4.3764 H         1 <1>         0.1214
     27 H3          6.8455   -4.0880    1.0965 H         1 <1>         0.1194
     28 H4          3.6129   -0.8209    2.9700 H         1 <1>         0.1474
     29 H5          6.0054   -2.2535   -0.3236 H         1 <1>         0.1346
     30 H6          1.9418    3.2441    1.4141 H         1 <1>         0.1429
     31 H7          0.3018    0.3679   -1.3542 H         1 <1>         0.1467
     32 H8         -0.3103    4.1324    1.8237 H         1 <1>         0.1455
     33 H9         -1.9491    1.2566   -0.9423 H         1 <1>         0.1455
     34 H10         2.3478   -0.1898    1.3791 H         1 <1>         0.1680
     35 H11         5.8789    2.8498   -3.8738 H         1 <1>         0.3159
     36 H12         1.2323    3.0570   -1.4117 H         1 <1>         0.2664
     37 H13         1.7152    4.0669   -2.7482 H         1 <1>         0.2693
@<TRIPOS>BOND
     1    1    2 ar
     2    1    3 ar
     3    2    4 ar
     4    3    5 ar
     5    4   14 ar
     6    5   14 ar
     7    6    8 ar
     8    6   13 ar
     9    7    9 ar
    10    7   13 ar
    11    8   16 ar
    12    9   16 ar
    13   10   15 ar
    14   10   17 ar
    15   11   20 ar
    16   11   21 ar
    17   12   15 ar
    18   12   18 ar
    19   12   19 ar
    20   13   15 1
    21   14   17 1
    22   16   24 1
    23   17   22 ar
    24   18   20 ar
    25   18   22 ar
    26   19   21 ar
    27   19   23 1
    28    1   25 1
    29    2   26 1
    30    3   27 1
    31    4   28 1
    32    5   29 1
    33    6   30 1
    34    7   31 1
    35    8   32 1
    36    9   33 1
    37   10   34 1
    38   11   35 1
    39   23   36 1
    40   23   37 1
