@<TRIPOS>MOLECULE
AO-476/43249983
   44    48     0
SMALL
USER_CHARGE


@<TRIPOS>ATOM
      1 C1          0.4326   -0.6334    3.1501 C.ar      1 <1>        -0.0932
      2 C2         -1.3749    2.6842    0.5833 C.ar      1 <1>        -0.0946
      3 C3          5.9541   -3.4395    2.6258 C.ar      1 <1>        -0.0860
      4 C4          0.9700    0.6527    3.0992 C.ar      1 <1>        -0.0879
      5 C5          0.8682   -1.6074    2.2515 C.ar      1 <1>        -0.0900
      6 C6         -1.0174    1.4765   -0.0162 C.ar      1 <1>        -0.0889
      7 C7         -0.4737    3.7487    0.5989 C.ar      1 <1>        -0.0886
      8 C8          5.6229   -2.2064    3.1874 C.ar      1 <1>        -0.0779
      9 C9          5.8331   -3.6342    1.2500 C.ar      1 <1>        -0.0772
     10 C10         1.9431    0.9649    2.1498 C.ar      1 <1>        -0.0715
     11 C11         1.8411   -1.2951    1.3020 C.ar      1 <1>        -0.0744
     12 C12         0.2413    1.3333   -0.6001 C.ar      1 <1>        -0.0673
     13 C13         0.7851    3.6056    0.0151 C.ar      1 <1>        -0.0676
     14 C14         5.1706   -1.1681    2.3732 C.ar      1 <1>        -0.0525
     15 C15         5.3806   -2.5959    0.4357 C.ar      1 <1>        -0.0512
     16 C16         2.3786   -0.0090    1.2512 C.ar      1 <1>        -0.0385
     17 C17         1.1425    2.3979   -0.5844 C.ar      1 <1>        -0.0286
     18 C18         3.3971    1.2455   -0.7394 C.2       1 <1>         0.0670
     19 C19         5.0494   -1.3629    0.9973 C.ar      1 <1>        -0.0086
     20 C20         3.3881    0.3148    0.2673 C.2       1 <1>         0.0308
     21 C21         4.6528    1.1063   -1.3455 C.2       1 <1>         0.1208
     22 C22         2.4743    2.2464   -1.2020 C.2       1 <1>         0.0420
     23 C23         5.0456    1.9606   -2.4327 C.2       1 <1>         0.1588
     24 N1          5.3959    0.1437   -0.7978 N.2       1 <1>        -0.2787
     25 N2          2.8330    3.0380   -2.1739 N.2       1 <1>        -0.3067
     26 N3          4.5967   -0.3227    0.1827 N.pl3     1 <1>        -0.2825
     27 N4          4.0706    2.8976   -2.7655 N.am      1 <1>        -0.2278
     28 O1          6.1308    1.8705   -2.9979 O.2       1 <1>        -0.4694
     29 H1         -0.3245   -0.8768    3.8899 H         1 <1>         0.1224
     30 H2         -2.3549    2.7956    1.0378 H         1 <1>         0.1191
     31 H3          6.3079   -4.2476    3.2592 H         1 <1>         0.1282
     32 H4          0.6305    1.4110    3.7988 H         1 <1>         0.1253
     33 H5          0.4506   -2.6093    2.2919 H         1 <1>         0.1223
     34 H6         -1.7192    0.6477   -0.0281 H         1 <1>         0.1206
     35 H7         -0.7521    4.6891    1.0654 H         1 <1>         0.1211
     36 H8          5.7183   -2.0540    4.2586 H         1 <1>         0.1342
     37 H9          6.0925   -4.5944    0.8132 H         1 <1>         0.1346
     38 H10         2.3540    1.9713    2.1246 H         1 <1>         0.1379
     39 H11         2.1694   -2.0651    0.6080 H         1 <1>         0.1308
     40 H12         0.5095    0.3879   -1.0644 H         1 <1>         0.1399
     41 H13         1.4793    4.4418    0.0333 H         1 <1>         0.1373
     42 H14         4.9165   -0.2116    2.8237 H         1 <1>         0.1525
     43 H15         5.2918   -2.7611   -0.6354 H         1 <1>         0.1562
     44 H16         4.2931    3.5413   -3.5184 H         1 <1>         0.4079
@<TRIPOS>BOND
     1    1    4 ar
     2    1    5 ar
     3    2    6 ar
     4    2    7 ar
     5    3    8 ar
     6    3    9 ar
     7    4   10 ar
     8    5   11 ar
     9    6   12 ar
    10    7   13 ar
    11    8   14 ar
    12    9   15 ar
    13   10   16 ar
    14   11   16 ar
    15   12   17 ar
    16   13   17 ar
    17   14   19 ar
    18   15   19 ar
    19   16   20 1
    20   17   22 1
    21   18   20 2
    22   18   21 1
    23   18   22 1
    24   19   26 1
    25   20   26 1
    26   21   23 1
    27   21   24 2
    28   22   25 2
    29   23   27 am
    30   23   28 2
    31   24   26 1
    32   25   27 1
    33    1   29 1
    34    2   30 1
    35    3   31 1
    36    4   32 1
    37    5   33 1
    38    6   34 1
    39    7   35 1
    40    8   36 1
    41    9   37 1
    42   10   38 1
    43   11   39 1
    44   12   40 1
    45   13   41 1
    46   14   42 1
    47   15   43 1
    48   27   44 1
