@<TRIPOS>MOLECULE
AO-476/15578132
   41    44     0
SMALL
USER_CHARGE


@<TRIPOS>ATOM
      1 C1         -1.2828    2.7535    0.4705 C.ar      1 <1>        -0.0980
      2 C2         -0.1840    3.3067    1.1278 C.ar      1 <1>        -0.0949
      3 C3         -1.1025    1.6960   -0.4210 C.ar      1 <1>        -0.0959
      4 C4          1.0952    2.8025    0.8935 C.ar      1 <1>        -0.0846
      5 C5          0.1768    1.1918   -0.6554 C.ar      1 <1>        -0.0863
      6 C6          4.8682   -1.2352    2.6056 C.ar      1 <1>        -0.0571
      7 C7          5.1118   -2.6285    0.6470 C.ar      1 <1>        -0.0560
      8 C8          5.3457   -2.2743    3.4042 C.ar      1 <1>        -0.0594
      9 C9          5.5892   -3.6677    1.4457 C.ar      1 <1>        -0.0546
     10 C10         2.9987    0.1909    0.5971 C.ar      1 <1>        -0.0301
     11 C11         5.1796    2.5201   -3.1154 C.ar      1 <1>         0.0390
     12 C12         3.4878    1.6747   -1.2356 C.ar      1 <1>         0.0201
     13 C13         1.2757    1.7450    0.0019 C.ar      1 <1>        -0.0661
     14 C14         4.7513   -1.4123    1.2270 C.ar      1 <1>        -0.0376
     15 C15         2.6086    1.2199   -0.2418 C.ar      1 <1>        -0.0214
     16 C16         5.7063   -3.4906    2.8243 C.ar      1 <1>        -0.0351
     17 C17         4.2572   -0.3367    0.4003 C.ar      1 <1>        -0.0042
     18 C18         4.7504    1.0854   -1.3698 C.ar      1 <1>         0.0458
     19 C19         3.1674    2.7043   -2.1170 C.ar      1 <1>         0.0174
     20 C20         6.5230   -5.7208    2.9458 C.3       1 <1>         0.0114
     21 N1          5.5936    1.5151   -2.3154 N.ar      1 <1>        -0.3332
     22 N2          3.9980    3.1515   -3.0735 N.ar      1 <1>        -0.3505
     23 N3          5.1203    0.0893   -0.5533 N.ar      1 <1>        -0.3471
     24 N4          1.9210    3.3659   -2.0671 N.pl3     1 <1>        -0.3299
     25 O1          6.1727   -4.5041    3.6036 O.3       1 <1>        -0.4625
     26 H1         -2.2791    3.1452    0.6544 H         1 <1>         0.1192
     27 H2         -0.3244    4.1291    1.8232 H         1 <1>         0.1190
     28 H3         -1.9578    1.2640   -0.9322 H         1 <1>         0.1189
     29 H4          1.9418    3.2445    1.4139 H         1 <1>         0.1320
     30 H5          0.3018    0.3668   -1.3527 H         1 <1>         0.1280
     31 H6          4.5914   -0.2929    3.0724 H         1 <1>         0.1570
     32 H7          5.0263   -2.7821   -0.4261 H         1 <1>         0.1515
     33 H8          5.4349   -2.1303    4.4776 H         1 <1>         0.1311
     34 H9          5.8688   -4.6129    0.9883 H         1 <1>         0.1458
     35 H10         2.3475   -0.1895    1.3790 H         1 <1>         0.1655
     36 H11         5.8793    2.8498   -3.8736 H         1 <1>         0.3141
     37 H12         6.8797   -6.4447    3.6826 H         1 <1>         0.1330
     38 H13         7.3024   -5.5244    2.2052 H         1 <1>         0.1099
     39 H14         5.6389   -6.1209    2.4438 H         1 <1>         0.1099
     40 H15         1.2324    3.0570   -1.4122 H         1 <1>         0.2701
     41 H16         1.7153    4.0669   -2.7487 H         1 <1>         0.2658
@<TRIPOS>BOND
     1    1    2 ar
     2    1    3 ar
     3    2    4 ar
     4    3    5 ar
     5    4   13 ar
     6    5   13 ar
     7    6    8 ar
     8    6   14 ar
     9    7    9 ar
    10    7   14 ar
    11    8   16 ar
    12    9   16 ar
    13   10   15 ar
    14   10   17 ar
    15   11   21 ar
    16   11   22 ar
    17   12   15 ar
    18   12   18 ar
    19   12   19 ar
    20   13   15 1
    21   14   17 1
    22   16   25 1
    23   17   23 ar
    24   18   21 ar
    25   18   23 ar
    26   19   22 ar
    27   19   24 1
    28   20   25 1
    29    1   26 1
    30    2   27 1
    31    3   28 1
    32    4   29 1
    33    5   30 1
    34    6   31 1
    35    7   32 1
    36    8   33 1
    37    9   34 1
    38   10   35 1
    39   11   36 1
    40   20   37 1
    41   20   38 1
    42   20   39 1
    43   24   40 1
    44   24   41 1
