@<TRIPOS>MOLECULE
AO-476/43201397
   44    48     0
SMALL
USER_CHARGE


@<TRIPOS>ATOM
      1 C1          0.2985   -0.8000    3.0438 C.ar      1 <1>        -0.0914
      2 C2         -1.4272    2.6418    0.6846 C.ar      1 <1>        -0.0927
      3 C3          5.9106   -3.4400    2.6495 C.ar      1 <1>        -0.0864
      4 C4          0.3556   -1.4185    1.7949 C.ar      1 <1>        -0.0861
      5 C5          1.2360    0.1759    3.3822 C.ar      1 <1>        -0.0880
      6 C6         -0.3435    3.3949    1.1364 C.ar      1 <1>        -0.0872
      7 C7         -1.2633    1.7502   -0.3754 C.ar      1 <1>        -0.0869
      8 C8          5.5344   -2.2241    3.2202 C.ar      1 <1>        -0.0788
      9 C9          5.8309   -3.6165    1.2681 C.ar      1 <1>        -0.0775
     10 C10         1.3501   -1.0611    0.8844 C.ar      1 <1>        -0.0690
     11 C11         2.2304    0.5334    2.4719 C.ar      1 <1>        -0.0715
     12 C12         0.9041    3.2563    0.5281 C.ar      1 <1>        -0.0658
     13 C13        -0.0158    1.6116   -0.9837 C.ar      1 <1>        -0.0659
     14 C14         5.0785   -1.1847    2.4095 C.ar      1 <1>        -0.0544
     15 C15         5.3751   -2.5769    0.4574 C.ar      1 <1>        -0.0522
     16 C16         2.2875   -0.0850    1.2229 C.ar      1 <1>        -0.0349
     17 C17         1.0680    2.3646   -0.5319 C.ar      1 <1>        -0.0271
     18 C18         3.3398    1.2476   -0.6989 C.2       1 <1>         0.0557
     19 C19         4.9989   -1.3611    1.0281 C.ar      1 <1>        -0.0102
     20 C20         3.3181    0.2862    0.2784 C.2       1 <1>         0.0320
     21 C21         4.6025    1.1225   -1.3071 C.2       1 <1>         0.0697
     22 C22         2.3879    2.2180   -1.1757 C.2       1 <1>         0.0399
     23 C23         4.9315    1.9726   -2.4178 C.2       1 <1>         0.0212
     24 N1          5.3497    0.1683   -0.7444 N.2       1 <1>        -0.2931
     25 N2          2.6947    2.9666   -2.1988 N.2       1 <1>        -0.3186
     26 N3          4.5424   -0.3198    0.2169 N.pl3     1 <1>        -0.2837
     27 N4          3.9293    2.8469   -2.7989 N.pl3     1 <1>        -0.2723
     28 S1          6.4133    1.8741   -3.1633 S.2       1 <1>        -0.2291
     29 H1         -0.4763   -1.0779    3.7524 H         1 <1>         0.1252
     30 H2         -2.3984    2.7498    1.1583 H         1 <1>         0.1223
     31 H3          6.2674   -4.2490    3.2802 H         1 <1>         0.1277
     32 H4         -0.3742   -2.1785    1.5316 H         1 <1>         0.1271
     33 H5          1.1907    0.6583    4.3544 H         1 <1>         0.1246
     34 H6         -0.4713    4.0893    1.9617 H         1 <1>         0.1228
     35 H7         -2.1071    1.1636   -0.7270 H         1 <1>         0.1234
     36 H8          5.5977   -2.0860    4.2956 H         1 <1>         0.1335
     37 H9          6.1254   -4.5632    0.8244 H         1 <1>         0.1348
     38 H10         1.3797   -1.5505   -0.0862 H         1 <1>         0.1396
     39 H11         2.9543    1.2952    2.7512 H         1 <1>         0.1337
     40 H12         1.7419    3.8480    0.8882 H         1 <1>         0.1414
     41 H13         0.1002    0.9138   -1.8090 H         1 <1>         0.1394
     42 H14         4.7892   -0.2416    2.8669 H         1 <1>         0.1498
     43 H15         5.3188   -2.7278   -0.6179 H         1 <1>         0.1560
     44 H16         4.0713    3.4801   -3.5796 H         1 <1>         0.4027
@<TRIPOS>BOND
     1    1    4 ar
     2    1    5 ar
     3    2    6 ar
     4    2    7 ar
     5    3    8 ar
     6    3    9 ar
     7    4   10 ar
     8    5   11 ar
     9    6   12 ar
    10    7   13 ar
    11    8   14 ar
    12    9   15 ar
    13   10   16 ar
    14   11   16 ar
    15   12   17 ar
    16   13   17 ar
    17   14   19 ar
    18   15   19 ar
    19   16   20 1
    20   17   22 1
    21   18   20 2
    22   18   21 1
    23   18   22 1
    24   19   26 1
    25   20   26 1
    26   21   23 1
    27   21   24 2
    28   22   25 2
    29   23   27 1
    30   23   28 2
    31   24   26 1
    32   25   27 1
    33    1   29 1
    34    2   30 1
    35    3   31 1
    36    4   32 1
    37    5   33 1
    38    6   34 1
    39    7   35 1
    40    8   36 1
    41    9   37 1
    42   10   38 1
    43   11   39 1
    44   12   40 1
    45   13   41 1
    46   14   42 1
    47   15   43 1
    48   27   44 1
