@<TRIPOS>MOLECULE
AO-081/14337023
   42    45     0
SMALL
USER_CHARGE


@<TRIPOS>ATOM
      1 C1          1.4197    3.0661    0.3933 C.ar      1 <1>        -0.0651
      2 C2          0.5348    1.0044   -0.5032 C.ar      1 <1>        -0.0652
      3 C3          5.8379   -2.4037    0.7819 C.ar      1 <1>        -0.0433
      4 C4          4.3170   -1.8366    2.5713 C.ar      1 <1>        -0.0433
      5 C5          0.1239    3.5657    0.5236 C.ar      1 <1>        -0.0569
      6 C6         -0.7611    1.5040   -0.3729 C.ar      1 <1>        -0.0578
      7 C7          6.4457   -3.3557    1.6001 C.ar      1 <1>        -0.0522
      8 C8          4.9248   -2.7887    3.3897 C.ar      1 <1>        -0.0523
      9 C9          1.6252    1.7855   -0.1202 C.ar      1 <1>        -0.0352
     10 C10         4.7734   -1.6442    1.2674 C.ar      1 <1>         0.0069
     11 C11        -0.9665    2.7846    0.1406 C.ar      1 <1>        -0.0164
     12 C12         5.9893   -3.5482    2.9040 C.ar      1 <1>        -0.0274
     13 C13         4.0665   -0.7687   -0.9620 C.2       1 <1>         0.1361
     14 C14         3.5661    0.5084    0.9007 C.2       1 <1>         0.1409
     15 C15         3.4489    2.8681   -2.2348 C.2       1 <1>         0.1269
     16 C16         3.3486    0.4268   -1.4779 C.3       1 <1>         0.1346
     17 C17         3.9139    1.8093   -1.3208 C.3       1 <1>         0.1342
     18 C18         3.0092    1.2519   -0.2591 C.3       1 <1>         0.1369
     19 C19         3.3566    2.6097   -5.0680 C.3       1 <1>        -0.0290
     20 C20         4.0910    3.7180   -4.3442 C.3       1 <1>         0.0286
     21 N1          4.1482   -0.6658    0.4260 N.am      1 <1>        -0.2365
     22 O1          4.4289   -1.6470   -1.7270 O.2       1 <1>        -0.4663
     23 O2          3.5028    0.9793    2.0242 O.2       1 <1>        -0.4605
     24 O3          2.3099    3.3150   -2.2427 O.2       1 <1>        -0.4723
     25 O4          4.4748    3.2527   -3.0464 O.3       1 <1>        -0.3992
     26 Cl1        -2.5650    3.4012    0.3012 Cl        1 <1>        -0.1852
     27 Br1         6.8130   -4.8381    4.0127 Br        1 <1>        -0.1323
     28 H1          2.2628    3.6828    0.6934 H         1 <1>         0.1416
     29 H2          0.6844    0.0049   -0.9032 H         1 <1>         0.1447
     30 H3          6.2017   -2.2616   -0.2324 H         1 <1>         0.1590
     31 H4          3.4882   -1.2503    2.9598 H         1 <1>         0.1588
     32 H5         -0.0211    4.5658    0.9238 H         1 <1>         0.1446
     33 H6         -1.6013    0.8838   -0.6742 H         1 <1>         0.1434
     34 H7          7.2738   -3.9395    1.2070 H         1 <1>         0.1545
     35 H8          4.5576   -2.9267    4.4033 H         1 <1>         0.1545
     36 H9          2.5820    0.2528   -2.2236 H         1 <1>         0.2064
     37 H10         4.9694    1.8865   -1.0771 H         1 <1>         0.2072
     38 H11         3.9963    1.7308   -5.1876 H         1 <1>         0.0672
     39 H12         2.4561    2.3192   -4.5170 H         1 <1>         0.0592
     40 H13         3.0296    2.9457   -6.0576 H         1 <1>         0.0594
     41 H14         3.4457    4.5938   -4.2280 H         1 <1>         0.1251
     42 H15         4.9909    4.0064   -4.8956 H         1 <1>         0.1251
@<TRIPOS>BOND
     1    1    5 ar
     2    1    9 ar
     3    2    6 ar
     4    2    9 ar
     5    3    7 ar
     6    3   10 ar
     7    4    8 ar
     8    4   10 ar
     9    5   11 ar
    10    6   11 ar
    11    7   12 ar
    12    8   12 ar
    13    9   18 1
    14   10   21 1
    15   11   26 1
    16   12   27 1
    17   13   16 1
    18   13   21 am
    19   13   22 2
    20   14   18 1
    21   14   21 am
    22   14   23 2
    23   15   17 1
    24   15   24 2
    25   15   25 1
    26   16   17 1
    27   16   18 1
    28   17   18 1
    29   19   20 1
    30   20   25 1
    31    1   28 1
    32    2   29 1
    33    3   30 1
    34    4   31 1
    35    5   32 1
    36    6   33 1
    37    7   34 1
    38    8   35 1
    39   16   36 1
    40   17   37 1
    41   19   38 1
    42   19   39 1
    43   19   40 1
    44   20   41 1
    45   20   42 1
