@<TRIPOS>MOLECULE
AG-690/40750128
   39    41     0
SMALL
USER_CHARGE


@<TRIPOS>ATOM
      1 C1          3.1630    2.7419   -2.1470 C.1       1 <1>         0.0362
      2 C2          4.4814   -1.5581    2.4813 C.ar      1 <1>        -0.0724
      3 C3          5.8170   -2.3530    0.6317 C.ar      1 <1>        -0.0751
      4 C4          0.2803    0.9407   -0.2042 C.ar      1 <1>        -0.0653
      5 C5          1.2588    3.1068    0.2293 C.ar      1 <1>        -0.0667
      6 C6          4.9646   -2.5971    3.2768 C.ar      1 <1>        -0.0934
      7 C7          6.3003   -3.3920    1.4271 C.ar      1 <1>        -0.0946
      8 C8         -0.9925    1.4761   -0.0067 C.ar      1 <1>        -0.0556
      9 C9         -0.0140    3.6422    0.4268 C.ar      1 <1>        -0.0561
     10 C10         3.1416    0.1645    0.5386 C.ar      1 <1>        -0.0230
     11 C11         3.5775    1.6727   -1.2834 C.ar      1 <1>         0.0965
     12 C12         1.4060    1.7560   -0.0861 C.ar      1 <1>        -0.0468
     13 C13         4.9076   -1.4362    1.1588 C.ar      1 <1>        -0.0490
     14 C14         2.7263    1.2005   -0.2905 C.ar      1 <1>         0.0092
     15 C15         5.8740   -3.5141    2.7498 C.ar      1 <1>        -0.1086
     16 C16        -1.1396    2.8268    0.3088 C.ar      1 <1>        -0.0143
     17 C17         4.4074   -0.3610    0.3355 C.ar      1 <1>        -0.0130
     18 C18         4.8238    1.0796   -1.4048 C.ar      1 <1>         0.0492
     19 C19         6.3904   -4.6250    3.6001 C.3       1 <1>        -0.0424
     20 C20         5.0362    1.2751   -4.1306 C.3       1 <1>         0.0057
     21 N1          2.8279    3.6064   -2.8450 N.1       1 <1>        -0.3784
     22 N2          5.2623    0.0714   -0.6183 N.ar      1 <1>        -0.3595
     23 S1          6.0064    1.6045   -2.6452 S.3       1 <1>        -0.1538
     24 Cl1        -2.7103    3.4864    0.5539 Cl        1 <1>        -0.1813
     25 H1          3.7725   -0.8517    2.9065 H         1 <1>         0.1438
     26 H2          6.1593   -2.2711   -0.3972 H         1 <1>         0.1361
     27 H3          0.3789   -0.1141   -0.4494 H         1 <1>         0.1460
     28 H4          2.1266    3.7551    0.3258 H         1 <1>         0.1407
     29 H5          4.6263   -2.6850    4.3058 H         1 <1>         0.1204
     30 H6          7.0090   -4.1017    1.0085 H         1 <1>         0.1203
     31 H7         -1.8610    0.8289   -0.1000 H         1 <1>         0.1475
     32 H8         -0.1137    4.6963    0.6734 H         1 <1>         0.1470
     33 H9          2.4959   -0.2223    1.3224 H         1 <1>         0.1729
     34 H10         5.7435   -5.5063    3.5115 H         1 <1>         0.0616
     35 H11         7.4092   -4.9105    3.3074 H         1 <1>         0.0588
     36 H12         6.4346   -4.3304    4.6568 H         1 <1>         0.0587
     37 H13         5.6138    1.5429   -5.0189 H         1 <1>         0.1040
     38 H14         4.1169    1.8657   -4.1119 H         1 <1>         0.0973
     39 H15         4.7787    0.2144   -4.1781 H         1 <1>         0.0974
@<TRIPOS>BOND
     1    1   11 1
     2    1   21 3
     3    2    6 ar
     4    2   13 ar
     5    3    7 ar
     6    3   13 ar
     7    4    8 ar
     8    4   12 ar
     9    5    9 ar
    10    5   12 ar
    11    6   15 ar
    12    7   15 ar
    13    8   16 ar
    14    9   16 ar
    15   10   14 ar
    16   10   17 ar
    17   11   14 ar
    18   11   18 ar
    19   12   14 1
    20   13   17 1
    21   15   19 1
    22   16   24 1
    23   17   22 ar
    24   18   22 ar
    25   18   23 1
    26   20   23 1
    27    2   25 1
    28    3   26 1
    29    4   27 1
    30    5   28 1
    31    6   29 1
    32    7   30 1
    33    8   31 1
    34    9   32 1
    35   10   33 1
    36   19   34 1
    37   19   35 1
    38   19   36 1
    39   20   37 1
    40   20   38 1
    41   20   39 1
