@<TRIPOS>MOLECULE
AE-848/41009149
   40    42     0
SMALL
USER_CHARGE


@<TRIPOS>ATOM
      1 C1          3.0844    2.9117   -2.2813 C.1       1 <1>         0.0459
      2 C2         -1.2008    2.9376    0.2301 C.ar      1 <1>        -0.0972
      3 C3          5.9126   -3.3428    2.5485 C.ar      1 <1>        -0.0967
      4 C4         -0.1040    3.4818    0.8982 C.ar      1 <1>        -0.0945
      5 C5         -1.0217    1.8724   -0.6525 C.ar      1 <1>        -0.0942
      6 C6          4.9985   -2.4403    3.0924 C.ar      1 <1>        -0.0925
      7 C7          6.3222   -3.2064    1.2222 C.ar      1 <1>        -0.0912
      8 C8          1.1721    2.9609    0.6834 C.ar      1 <1>        -0.0835
      9 C9          0.2543    1.3515   -0.8672 C.ar      1 <1>        -0.0824
     10 C10         4.4941   -1.4016    2.3099 C.ar      1 <1>        -0.0762
     11 C11         5.8178   -2.1678    0.4396 C.ar      1 <1>        -0.0734
     12 C12         3.1122    0.3191    0.3957 C.ar      1 <1>        -0.0212
     13 C13         3.5086    1.8444   -1.4212 C.ar      1 <1>         0.1044
     14 C14         1.3513    1.8958   -0.1993 C.ar      1 <1>        -0.0549
     15 C15         4.9037   -1.2653    0.9835 C.ar      1 <1>        -0.0496
     16 C16         2.6749    1.3557   -0.4215 C.ar      1 <1>         0.0126
     17 C17         4.3815   -0.1901    0.1741 C.ar      1 <1>        -0.0099
     18 C18         4.7604    1.2670   -1.5613 C.ar      1 <1>         0.0444
     19 C19         6.5428    2.8319   -2.2922 C.3       1 <1>        -0.0149
     20 C20         5.6046    1.1567   -3.8928 C.3       1 <1>        -0.0149
     21 N1          2.7413    3.7748   -2.9770 N.1       1 <1>        -0.3760
     22 N2          5.2200    0.2588   -0.7869 N.ar      1 <1>        -0.3540
     23 N3          5.6257    1.7512   -2.5753 N.pl3     1 <1>        -0.3817
     24 H1         -2.1945    3.3421    0.3987 H         1 <1>         0.1195
     25 H2          6.3064   -4.1503    3.1585 H         1 <1>         0.1186
     26 H3         -0.2435    4.3101    1.5866 H         1 <1>         0.1203
     27 H4         -1.8756    1.4472   -1.1719 H         1 <1>         0.1205
     28 H5          4.6807   -2.5453    4.1257 H         1 <1>         0.1193
     29 H6          7.0349   -3.9079    0.7984 H         1 <1>         0.1194
     30 H7          2.0171    3.3960    1.2119 H         1 <1>         0.1261
     31 H8          0.3785    0.5206   -1.5576 H         1 <1>         0.1303
     32 H9          3.7823   -0.7061    2.7485 H         1 <1>         0.1336
     33 H10         6.1468   -2.0737   -0.5926 H         1 <1>         0.1418
     34 H11         2.4802   -0.0800    1.1845 H         1 <1>         0.1723
     35 H12         7.1272    3.0721   -3.1843 H         1 <1>         0.0899
     36 H13         7.2278    2.5460   -1.4894 H         1 <1>         0.0962
     37 H14         5.9917    3.7237   -1.9818 H         1 <1>         0.0788
     38 H15         6.3321    1.6527   -4.5405 H         1 <1>         0.0899
     39 H16         4.6107    1.2583   -4.3374 H         1 <1>         0.0790
     40 H17         5.8542    0.0940   -3.8321 H         1 <1>         0.0962
@<TRIPOS>BOND
     1    1   13 1
     2    1   21 3
     3    2    4 ar
     4    2    5 ar
     5    3    6 ar
     6    3    7 ar
     7    4    8 ar
     8    5    9 ar
     9    6   10 ar
    10    7   11 ar
    11    8   14 ar
    12    9   14 ar
    13   10   15 ar
    14   11   15 ar
    15   12   16 ar
    16   12   17 ar
    17   13   16 ar
    18   13   18 ar
    19   14   16 1
    20   15   17 1
    21   17   22 ar
    22   18   22 ar
    23   18   23 1
    24   19   23 1
    25   20   23 1
    26    2   24 1
    27    3   25 1
    28    4   26 1
    29    5   27 1
    30    6   28 1
    31    7   29 1
    32    8   30 1
    33    9   31 1
    34   10   32 1
    35   11   33 1
    36   12   34 1
    37   19   35 1
    38   19   36 1
    39   19   37 1
    40   20   38 1
    41   20   39 1
    42   20   40 1
