@<TRIPOS>MOLECULE
AO-476/43250025
   41    44     0
SMALL
USER_CHARGE


@<TRIPOS>ATOM
      1 C1          5.6826   -3.4713    2.8350 C.ar      1 <1>        -0.0957
      2 C2          5.2771   -2.2678    3.4118 C.ar      1 <1>        -0.0917
      3 C3          5.6064   -3.6429    1.4527 C.ar      1 <1>        -0.0893
      4 C4         -0.3280    3.1890    1.0208 C.ar      1 <1>        -0.0829
      5 C5          4.7954   -1.2358    2.6063 C.ar      1 <1>        -0.0738
      6 C6          5.1246   -2.6110    0.6474 C.ar      1 <1>        -0.0694
      7 C7          0.9694    2.7189    0.8182 C.ar      1 <1>        -0.0787
      8 C8         -1.3946    2.6123    0.3314 C.ar      1 <1>        -0.0686
      9 C9          0.1338    1.0952   -0.7637 C.ar      1 <1>        -0.0503
     10 C10         2.9449    0.1564    0.5574 C.ar      1 <1>        -0.0267
     11 C11         5.1645    2.5620   -3.0826 C.ar      1 <1>         0.0399
     12 C12         3.4452    1.6635   -1.2530 C.ar      1 <1>         0.0231
     13 C13         4.7191   -1.4074    1.2242 C.ar      1 <1>        -0.0439
     14 C14         1.2004    1.6718   -0.0741 C.ar      1 <1>        -0.0502
     15 C15         2.5517    1.1810   -0.2854 C.ar      1 <1>        -0.0148
     16 C16        -1.1638    1.5654   -0.5610 C.ar      1 <1>        -0.0363
     17 C17         4.2206   -0.3389    0.3909 C.ar      1 <1>        -0.0030
     18 C18         4.7251    1.1062   -1.3574 C.ar      1 <1>         0.0480
     19 C19         3.1229    2.6906   -2.1366 C.ar      1 <1>         0.0190
     20 C20        -1.8977   -0.0635   -2.1306 C.3       1 <1>         0.0106
     21 N1          5.5820    1.5624   -2.2778 N.ar      1 <1>        -0.3321
     22 N2          3.9670    3.1642   -3.0683 N.ar      1 <1>        -0.3495
     23 N3          5.0978    0.1142   -0.5372 N.ar      1 <1>        -0.3448
     24 N4          1.8597    3.3213   -2.1159 N.pl3     1 <1>        -0.3293
     25 O1         -2.2046    1.0028   -1.2337 O.3       1 <1>        -0.4634
     26 H1          6.0592   -4.2740    3.4621 H         1 <1>         0.1197
     27 H2          5.3380   -2.1333    4.4878 H         1 <1>         0.1192
     28 H3          5.9233   -4.5793    1.0029 H         1 <1>         0.1212
     29 H4         -0.5077    4.0044    1.7154 H         1 <1>         0.1283
     30 H5          4.4833   -0.3034    3.0710 H         1 <1>         0.1348
     31 H6          5.0716   -2.7590   -0.4285 H         1 <1>         0.1474
     32 H7          1.7904    3.1787    1.3633 H         1 <1>         0.1302
     33 H8         -2.4033    2.9826    0.4933 H         1 <1>         0.1287
     34 H9          0.3044    0.2785   -1.4625 H         1 <1>         0.1535
     35 H10         2.2829   -0.2448    1.3196 H         1 <1>         0.1686
     36 H11         5.8755    2.9136   -3.8202 H         1 <1>         0.3150
     37 H12        -2.8170   -0.4211   -2.6009 H         1 <1>         0.1088
     38 H13        -1.4171   -0.8765   -1.5807 H         1 <1>         0.1090
     39 H14        -1.2164    0.3051   -2.9013 H         1 <1>         0.1329
     40 H15         1.1620    2.9914   -1.4813 H         1 <1>         0.2705
     41 H16         1.6547    4.0213   -2.7987 H         1 <1>         0.2666
@<TRIPOS>BOND
     1    1    2 ar
     2    1    3 ar
     3    2    5 ar
     4    3    6 ar
     5    4    7 ar
     6    4    8 ar
     7    5   13 ar
     8    6   13 ar
     9    7   14 ar
    10    8   16 ar
    11    9   14 ar
    12    9   16 ar
    13   10   15 ar
    14   10   17 ar
    15   11   21 ar
    16   11   22 ar
    17   12   15 ar
    18   12   18 ar
    19   12   19 ar
    20   13   17 1
    21   14   15 1
    22   16   25 1
    23   17   23 ar
    24   18   21 ar
    25   18   23 ar
    26   19   22 ar
    27   19   24 1
    28   20   25 1
    29    1   26 1
    30    2   27 1
    31    3   28 1
    32    4   29 1
    33    5   30 1
    34    6   31 1
    35    7   32 1
    36    8   33 1
    37    9   34 1
    38   10   35 1
    39   11   36 1
    40   20   37 1
    41   20   38 1
    42   20   39 1
    43   24   40 1
    44   24   41 1
