@<TRIPOS>MOLECULE
AO-476/43249986
   44    48     0
SMALL
USER_CHARGE


@<TRIPOS>ATOM
      1 C1          0.4321   -0.6299    3.1524 C.ar      1 <1>        -0.0930
      2 C2         -1.3753    2.6854    0.5826 C.ar      1 <1>        -0.0946
      3 C3          0.9695    0.6561    3.1003 C.ar      1 <1>        -0.0875
      4 C4          0.8676   -1.6047    2.2547 C.ar      1 <1>        -0.0900
      5 C5         -1.0178    1.4772   -0.0157 C.ar      1 <1>        -0.0886
      6 C6         -0.4740    3.7499    0.5973 C.ar      1 <1>        -0.0888
      7 C7          5.8325   -3.6336    1.2467 C.ar      1 <1>        -0.0637
      8 C8          5.9562   -3.4418    2.6227 C.ar      1 <1>        -0.0595
      9 C9          1.9426    0.9675    2.1507 C.ar      1 <1>        -0.0710
     10 C10         1.8407   -1.2933    1.3049 C.ar      1 <1>        -0.0746
     11 C11         0.2409    1.3335   -0.5995 C.ar      1 <1>        -0.0676
     12 C12         0.7847    3.6062    0.0137 C.ar      1 <1>        -0.0672
     13 C13         5.3790   -2.5934    0.4355 C.ar      1 <1>        -0.0271
     14 C14         5.6262   -2.2098    3.1876 C.ar      1 <1>        -0.0113
     15 C15         2.3781   -0.0072    1.2530 C.ar      1 <1>        -0.0377
     16 C16         1.1422    2.3980   -0.5847 C.ar      1 <1>        -0.0284
     17 C17         3.3967    1.2454   -0.7387 C.2       1 <1>         0.0684
     18 C18         5.0489   -1.3615    1.0004 C.ar      1 <1>         0.0551
     19 C19         5.1727   -1.1697    2.3764 C.ar      1 <1>         0.0965
     20 C20         3.3877    0.3156    0.2689 C.2       1 <1>         0.0355
     21 C21         4.6524    1.1055   -1.3446 C.2       1 <1>         0.1227
     22 C22         2.4740    2.2459   -1.2022 C.2       1 <1>         0.0426
     23 C23         5.0452    1.9590   -2.4326 C.2       1 <1>         0.1602
     24 N1          5.3954    0.1435   -0.7961 N.2       1 <1>        -0.2736
     25 N2          2.8327    3.0368   -2.1748 N.2       1 <1>        -0.3063
     26 N3          4.5963   -0.3220    0.1848 N.pl3     1 <1>        -0.2632
     27 N4          4.0703    2.8957   -2.7663 N.am      1 <1>        -0.2272
     28 O1          6.1304    1.8684   -2.9978 O.2       1 <1>        -0.4683
     29 F1          4.8595    0.0096    2.9326 F         1 <1>        -0.3073
     30 H1         -0.3250   -0.8725    3.8923 H         1 <1>         0.1227
     31 H2         -2.3553    2.7973    1.0370 H         1 <1>         0.1193
     32 H3          0.6301    1.4151    3.7994 H         1 <1>         0.1257
     33 H4          0.4500   -2.6065    2.2960 H         1 <1>         0.1223
     34 H5         -1.7196    0.6484   -0.0269 H         1 <1>         0.1210
     35 H6         -0.7524    4.6907    1.0629 H         1 <1>         0.1207
     36 H7          6.0900   -4.5926    0.8070 H         1 <1>         0.1429
     37 H8          6.3096   -4.2520    3.2538 H         1 <1>         0.1480
     38 H9          2.3536    1.9739    2.1246 H         1 <1>         0.1387
     39 H10         2.1688   -2.0639    0.6117 H         1 <1>         0.1296
     40 H11         0.5091    0.3876   -1.0630 H         1 <1>         0.1372
     41 H12         1.4790    4.4425    0.0311 H         1 <1>         0.1401
     42 H13         5.2879   -2.7566   -0.6357 H         1 <1>         0.1695
     43 H14         5.7221   -2.0606    4.2590 H         1 <1>         0.1697
     44 H15         4.2928    3.5387   -3.5198 H         1 <1>         0.4084
@<TRIPOS>BOND
     1    1    3 ar
     2    1    4 ar
     3    2    5 ar
     4    2    6 ar
     5    3    9 ar
     6    4   10 ar
     7    5   11 ar
     8    6   12 ar
     9    7    8 ar
    10    7   13 ar
    11    8   14 ar
    12    9   15 ar
    13   10   15 ar
    14   11   16 ar
    15   12   16 ar
    16   13   18 ar
    17   14   19 ar
    18   15   20 1
    19   16   22 1
    20   17   20 2
    21   17   21 1
    22   17   22 1
    23   18   19 ar
    24   18   26 1
    25   19   29 1
    26   20   26 1
    27   21   23 1
    28   21   24 2
    29   22   25 2
    30   23   27 am
    31   23   28 2
    32   24   26 1
    33   25   27 1
    34    1   30 1
    35    2   31 1
    36    3   32 1
    37    4   33 1
    38    5   34 1
    39    6   35 1
    40    7   36 1
    41    8   37 1
    42    9   38 1
    43   10   39 1
    44   11   40 1
    45   12   41 1
    46   13   42 1
    47   14   43 1
    48   27   44 1
