@<TRIPOS>MOLECULE
AI-031/12583059
   39    42     0
SMALL
USER_CHARGE


@<TRIPOS>ATOM
      1 C1         -1.4211    2.5488    0.7284 C.ar      1 <1>        -0.0953
      2 C2         -0.7825    1.3090    0.7015 C.ar      1 <1>        -0.0915
      3 C3         -0.8071    3.6622    0.1548 C.ar      1 <1>        -0.0885
      4 C4          0.4703    1.1826    0.1011 C.ar      1 <1>        -0.0730
      5 C5          0.4457    3.5359   -0.4455 C.ar      1 <1>        -0.0681
      6 C6          4.8823   -2.4432    3.1565 C.ar      1 <1>        -0.0814
      7 C7          6.2642   -3.3175    1.3781 C.ar      1 <1>        -0.0834
      8 C8          4.4672   -1.4044    2.3231 C.ar      1 <1>        -0.0541
      9 C9          5.8490   -2.2788    0.5447 C.ar      1 <1>        -0.0581
     10 C10         3.3237    0.3393    0.2467 C.2       1 <1>         0.0190
     11 C11         3.3725    1.2720   -0.7484 C.ar      1 <1>         0.0330
     12 C12         1.0843    2.2960   -0.4725 C.ar      1 <1>        -0.0341
     13 C13         5.7809   -3.3996    2.6839 C.ar      1 <1>        -0.1009
     14 C14         4.6629    1.1548   -1.3816 C.ar      1 <1>         0.0463
     15 C15         4.9505   -1.3223    1.0174 C.ar      1 <1>        -0.0185
     16 C16         2.3684    2.1661   -1.0879 C.ar      1 <1>         0.0331
     17 C17         5.0001    1.9968   -2.4511 C.ar      1 <1>         0.0255
     18 C18         6.2249   -4.5102    3.5747 C.3       1 <1>        -0.0398
     19 C19         6.2800    1.9983   -3.2026 C.3       1 <1>         0.0130
     20 N1          5.3608    0.1780   -0.7772 N.2       1 <1>        -0.3235
     21 N2          2.7246    2.9675   -2.1270 N.ar      1 <1>        -0.3060
     22 N3          4.0223    2.8815   -2.7966 N.ar      1 <1>        -0.3068
     23 N4          4.5363   -0.2846    0.1843 N.pl3     1 <1>        -0.3026
     24 H1         -2.3972    2.6466    1.1945 H         1 <1>         0.1198
     25 H2         -1.2612    0.4417    1.1465 H         1 <1>         0.1198
     26 H3         -1.3043    4.6276    0.1742 H         1 <1>         0.1232
     27 H4          0.9550    0.2092    0.0881 H         1 <1>         0.1305
     28 H5          0.9117    4.4125   -0.8890 H         1 <1>         0.1440
     29 H6          4.5011   -2.5000    4.1726 H         1 <1>         0.1349
     30 H7          6.9647   -4.0582    1.0014 H         1 <1>         0.1341
     31 H8          3.7669   -0.6649    2.7042 H         1 <1>         0.1585
     32 H9          6.2342   -2.2273   -0.4708 H         1 <1>         0.1468
     33 H10         2.5671    0.0663    0.9714 H         1 <1>         0.2522
     34 H11         5.5527   -5.3713    3.4758 H         1 <1>         0.0635
     35 H12         7.2444   -4.8347    3.3294 H         1 <1>         0.0608
     36 H13         6.2361   -4.1968    4.6269 H         1 <1>         0.0608
     37 H14         6.2282    1.3135   -4.0610 H         1 <1>         0.1033
     38 H15         6.5276    3.0019   -3.5801 H         1 <1>         0.1036
     39 H16         7.1235    1.6877   -2.5676 H         1 <1>         0.1001
@<TRIPOS>BOND
     1    1    2 ar
     2    1    3 ar
     3    2    4 ar
     4    3    5 ar
     5    4   12 ar
     6    5   12 ar
     7    6    8 ar
     8    6   13 ar
     9    7    9 ar
    10    7   13 ar
    11    8   15 ar
    12    9   15 ar
    13   10   11 2
    14   10   23 1
    15   11   14 ar
    16   11   16 ar
    17   12   16 1
    18   13   18 1
    19   14   17 ar
    20   14   20 2
    21   15   23 1
    22   16   21 ar
    23   17   19 1
    24   17   22 ar
    25   20   23 1
    26   21   22 ar
    27    1   24 1
    28    2   25 1
    29    3   26 1
    30    4   27 1
    31    5   28 1
    32    6   29 1
    33    7   30 1
    34    8   31 1
    35    9   32 1
    36   10   33 1
    37   18   34 1
    38   18   35 1
    39   18   36 1
    40   19   37 1
    41   19   38 1
    42   19   39 1
