@<TRIPOS>MOLECULE
AN-329/05740035
   44    47     0
SMALL
USER_CHARGE


@<TRIPOS>ATOM
      1 C1          5.8668   -3.4444    2.6780 C.ar      1 <1>        -0.0960
      2 C2          4.9526   -2.5441    3.2251 C.ar      1 <1>        -0.0918
      3 C3          6.2736   -3.3057    1.3509 C.ar      1 <1>        -0.0900
      4 C4          4.4453   -1.5050    2.4449 C.ar      1 <1>        -0.0748
      5 C5          5.7663   -2.2666    0.5710 C.ar      1 <1>        -0.0713
      6 C6          0.1457    0.9691   -0.1529 C.ar      1 <1>        -0.0685
      7 C7          1.1172    3.1387    0.2789 C.ar      1 <1>        -0.0736
      8 C8         -1.1283    1.4990    0.0510 C.ar      1 <1>        -0.0583
      9 C9         -0.1569    3.6686    0.4828 C.ar      1 <1>        -0.0652
     10 C10         3.0557    0.2035    0.5506 C.ar      1 <1>        -0.0349
     11 C11         3.4238    1.7431   -1.2677 C.ar      1 <1>         0.0029
     12 C12         1.2685    1.7889   -0.0389 C.ar      1 <1>        -0.0626
     13 C13         4.8520   -1.3661    1.1179 C.ar      1 <1>        -0.0475
     14 C14         2.5876    1.2404   -0.2501 C.ar      1 <1>        -0.0318
     15 C15         3.2471    2.7794   -2.2396 C.2       1 <1>         0.0078
     16 C16        -1.2797    2.8488    0.3688 C.ar      1 <1>        -0.0372
     17 C17         4.3262   -0.2890    0.3099 C.ar      1 <1>        -0.0119
     18 C18         4.3478    2.9351   -3.0532 C.2       1 <1>         0.0607
     19 C19         4.6771    1.1536   -1.3972 C.ar      1 <1>         0.0434
     20 C20         4.5597    3.8506   -4.1298 C.2       1 <1>         0.0837
     21 C21        -3.6268    2.4715    0.4344 C.3       1 <1>         0.0115
     22 N1          5.1735    0.1482   -0.6461 N.ar      1 <1>        -0.3559
     23 N2          2.1305    3.5392   -2.3675 N.pl3     1 <1>        -0.3460
     24 N3          5.7844    3.8119   -4.8149 N.am      1 <1>        -0.3073
     25 O1          3.6971    4.6978   -4.4733 O.2       1 <1>        -0.5228
     26 O2         -2.5229    3.3657    0.5671 O.3       1 <1>        -0.4627
     27 S1          5.5995    1.8401   -2.6566 S.3       1 <1>        -0.0709
     28 H1          6.2630   -4.2525    3.2861 H         1 <1>         0.1193
     29 H2          4.6369   -2.6509    4.2586 H         1 <1>         0.1196
     30 H3          6.9865   -4.0057    0.9249 H         1 <1>         0.1208
     31 H4          3.7334   -0.8110    2.8860 H         1 <1>         0.1345
     32 H5          6.0931   -2.1707   -0.4618 H         1 <1>         0.1447
     33 H6          0.2474   -0.0849   -0.4000 H         1 <1>         0.1452
     34 H7          1.9825    3.7906    0.3713 H         1 <1>         0.1384
     35 H8         -1.9992    0.8556   -0.0393 H         1 <1>         0.1464
     36 H9         -0.2687    4.7208    0.7299 H         1 <1>         0.1298
     37 H10         2.4375   -0.2081    1.3444 H         1 <1>         0.1661
     38 H11        -4.5586    3.0121    0.6179 H         1 <1>         0.1098
     39 H12        -3.5213    1.6523    1.1500 H         1 <1>         0.1100
     40 H13        -3.6368    2.0672   -0.5805 H         1 <1>         0.1338
     41 H14         1.2987    3.3818   -1.7857 H         1 <1>         0.2479
     42 H15         2.0348    4.2398   -3.1127 H         1 <1>         0.2557
     43 H16         6.4840    3.1363   -4.5274 H         1 <1>         0.2768
     44 H17         5.9948    4.4355   -5.5874 H         1 <1>         0.2725
@<TRIPOS>BOND
     1    1    2 ar
     2    1    3 ar
     3    2    4 ar
     4    3    5 ar
     5    4   13 ar
     6    5   13 ar
     7    6    8 ar
     8    6   12 ar
     9    7    9 ar
    10    7   12 ar
    11    8   16 ar
    12    9   16 ar
    13   10   14 ar
    14   10   17 ar
    15   11   14 ar
    16   11   15 1
    17   11   19 ar
    18   12   14 1
    19   13   17 1
    20   15   18 2
    21   15   23 1
    22   16   26 1
    23   17   22 ar
    24   18   20 1
    25   18   27 1
    26   19   22 ar
    27   19   27 1
    28   20   24 am
    29   20   25 2
    30   21   26 1
    31    1   28 1
    32    2   29 1
    33    3   30 1
    34    4   31 1
    35    5   32 1
    36    6   33 1
    37    7   34 1
    38    8   35 1
    39    9   36 1
    40   10   37 1
    41   21   38 1
    42   21   39 1
    43   21   40 1
    44   23   41 1
    45   23   42 1
    46   24   43 1
    47   24   44 1
