@<TRIPOS>MOLECULE
AG-205/12125110
   37    39     0
SMALL
USER_CHARGE


@<TRIPOS>ATOM
      1 C1          3.1731    2.7377   -2.1546 C.1       1 <1>         0.0259
      2 C2          4.4826   -1.5594    2.4817 C.ar      1 <1>        -0.0713
      3 C3          5.8181   -2.3528    0.6314 C.ar      1 <1>        -0.0742
      4 C4          1.2277    2.8289    0.7879 C.ar      1 <1>        -0.0654
      5 C5          0.3100    1.2193   -0.7626 C.ar      1 <1>        -0.0671
      6 C6          4.9663   -2.5984    3.2766 C.ar      1 <1>        -0.0934
      7 C7          6.3020   -3.3920    1.4262 C.ar      1 <1>        -0.0948
      8 C8         -0.0447    3.3657    0.9837 C.ar      1 <1>        -0.0561
      9 C9         -0.9624    1.7559   -0.5668 C.ar      1 <1>        -0.0569
     10 C10         3.1415    0.1637    0.5403 C.ar      1 <1>        -0.0269
     11 C11         3.5756    1.6718   -1.2823 C.ar      1 <1>         0.0885
     12 C12         1.4051    1.7557   -0.0853 C.ar      1 <1>        -0.0475
     13 C13         4.9084   -1.4365    1.1591 C.ar      1 <1>        -0.0476
     14 C14         2.7252    1.1993   -0.2889 C.ar      1 <1>         0.0065
     15 C15         5.8760   -3.5147    2.7489 C.ar      1 <1>        -0.1090
     16 C16        -1.1399    2.8292    0.3065 C.ar      1 <1>        -0.0153
     17 C17         4.4075   -0.3612    0.3364 C.ar      1 <1>        -0.0126
     18 C18         4.8222    1.0795   -1.4044 C.ar      1 <1>         0.0403
     19 C19         6.3932   -4.6259    3.5986 C.3       1 <1>        -0.0428
     20 N1          2.8476    3.5999   -2.8599 N.1       1 <1>        -0.3916
     21 N2          5.2616    0.0716   -0.6179 N.ar      1 <1>        -0.3612
     22 N3          5.7042    1.5469   -2.4117 N.pl3     1 <1>        -0.3238
     23 Cl1        -2.7094    3.4930    0.5474 Cl        1 <1>        -0.1828
     24 H1          3.7734   -0.8535    2.9074 H         1 <1>         0.1457
     25 H2          6.1601   -2.2701   -0.3976 H         1 <1>         0.1371
     26 H3          2.0714    3.2582    1.3229 H         1 <1>         0.1463
     27 H4          0.4324    0.3833   -1.4474 H         1 <1>         0.1401
     28 H5          4.6282   -2.6870    4.3055 H         1 <1>         0.1195
     29 H6          7.0110   -4.1011    1.0071 H         1 <1>         0.1193
     30 H7         -0.1687    4.2033    1.6656 H         1 <1>         0.1466
     31 H8         -1.8066    1.3286   -1.1021 H         1 <1>         0.1455
     32 H9          2.4963   -0.2229    1.3245 H         1 <1>         0.1604
     33 H10         5.7466   -5.5074    3.5097 H         1 <1>         0.0611
     34 H11         7.4120   -4.9108    3.3055 H         1 <1>         0.0584
     35 H12         6.4374   -4.3319    4.6554 H         1 <1>         0.0582
     36 H13         5.3879    2.2561   -3.0357 H         1 <1>         0.2696
     37 H14         6.5817    1.0906   -2.5307 H         1 <1>         0.2707
@<TRIPOS>BOND
     1    1   11 1
     2    1   20 3
     3    2    6 ar
     4    2   13 ar
     5    3    7 ar
     6    3   13 ar
     7    4    8 ar
     8    4   12 ar
     9    5    9 ar
    10    5   12 ar
    11    6   15 ar
    12    7   15 ar
    13    8   16 ar
    14    9   16 ar
    15   10   14 ar
    16   10   17 ar
    17   11   14 ar
    18   11   18 ar
    19   12   14 1
    20   13   17 1
    21   15   19 1
    22   16   23 1
    23   17   21 ar
    24   18   21 ar
    25   18   22 1
    26    2   24 1
    27    3   25 1
    28    4   26 1
    29    5   27 1
    30    6   28 1
    31    7   29 1
    32    8   30 1
    33    9   31 1
    34   10   32 1
    35   19   33 1
    36   19   34 1
    37   19   35 1
    38   22   36 1
    39   22   37 1
