@<TRIPOS>MOLECULE
AO-476/42129205
   37    39     0
SMALL
USER_CHARGE


@<TRIPOS>ATOM
      1 C1          3.1732    2.7378   -2.1546 C.1       1 <1>         0.0240
      2 C2          1.2278    2.8289    0.7878 C.ar      1 <1>        -0.0839
      3 C3          0.3102    1.2192   -0.7626 C.ar      1 <1>        -0.0823
      4 C4          4.4824   -1.5593    2.4817 C.ar      1 <1>        -0.0496
      5 C5          5.8180   -2.3528    0.6314 C.ar      1 <1>        -0.0468
      6 C6         -0.0446    3.3655    0.9838 C.ar      1 <1>        -0.0980
      7 C7         -0.9624    1.7557   -0.5665 C.ar      1 <1>        -0.0973
      8 C8          4.9662   -2.5984    3.2766 C.ar      1 <1>        -0.0278
      9 C9          6.3018   -3.3919    1.4264 C.ar      1 <1>        -0.0265
     10 C10         3.1415    0.1638    0.5402 C.ar      1 <1>        -0.0290
     11 C11         3.5756    1.6719   -1.2824 C.ar      1 <1>         0.0864
     12 C12         1.4054    1.7558   -0.0855 C.ar      1 <1>        -0.0573
     13 C13         4.9083   -1.4366    1.1591 C.ar      1 <1>        -0.0364
     14 C14         2.7251    1.1995   -0.2890 C.ar      1 <1>         0.0026
     15 C15        -1.1398    2.8290    0.3067 C.ar      1 <1>        -0.1104
     16 C16         5.8760   -3.5146    2.7489 C.ar      1 <1>         0.0472
     17 C17         4.4075   -0.3612    0.3364 C.ar      1 <1>        -0.0120
     18 C18         4.8223    1.0796   -1.4044 C.ar      1 <1>         0.0390
     19 C19        -2.5003    3.4027    0.5161 C.3       1 <1>        -0.0428
     20 N1          2.8477    3.6000   -2.8598 N.1       1 <1>        -0.3938
     21 N2          5.2616    0.0716   -0.6179 N.ar      1 <1>        -0.3629
     22 N3          5.7044    1.5469   -2.4117 N.pl3     1 <1>        -0.3209
     23 F1          6.3405   -4.5125    3.5123 F         1 <1>        -0.3400
     24 H1          2.0716    3.2587    1.3224 H         1 <1>         0.1266
     25 H2          0.4323    0.3823   -1.4460 H         1 <1>         0.1324
     26 H3          3.7735   -0.8532    2.9075 H         1 <1>         0.1540
     27 H4          6.1597   -2.2705   -0.3976 H         1 <1>         0.1624
     28 H5         -0.1734    4.2024    1.6651 H         1 <1>         0.1190
     29 H6         -1.8101    1.3309   -1.0977 H         1 <1>         0.1200
     30 H7          4.6346   -2.6943    4.3062 H         1 <1>         0.1542
     31 H8          7.0103   -4.1056    1.0163 H         1 <1>         0.1544
     32 H9          2.4962   -0.2228    1.3243 H         1 <1>         0.1569
     33 H10        -2.6911    4.2063   -0.2055 H         1 <1>         0.0572
     34 H11        -3.2782    2.6372    0.3982 H         1 <1>         0.0606
     35 H12        -2.6085    3.8119    1.5292 H         1 <1>         0.0603
     36 H13         5.3880    2.2561   -3.0356 H         1 <1>         0.2795
     37 H14         6.5818    1.0906   -2.5306 H         1 <1>         0.2811
@<TRIPOS>BOND
     1    1   11 1
     2    1   20 3
     3    2    6 ar
     4    2   12 ar
     5    3    7 ar
     6    3   12 ar
     7    4    8 ar
     8    4   13 ar
     9    5    9 ar
    10    5   13 ar
    11    6   15 ar
    12    7   15 ar
    13    8   16 ar
    14    9   16 ar
    15   10   14 ar
    16   10   17 ar
    17   11   14 ar
    18   11   18 ar
    19   12   14 1
    20   13   17 1
    21   15   19 1
    22   16   23 1
    23   17   21 ar
    24   18   21 ar
    25   18   22 1
    26    2   24 1
    27    3   25 1
    28    4   26 1
    29    5   27 1
    30    6   28 1
    31    7   29 1
    32    8   30 1
    33    9   31 1
    34   10   32 1
    35   19   33 1
    36   19   34 1
    37   19   35 1
    38   22   36 1
    39   22   37 1
