@<TRIPOS>MOLECULE
AG-690/40750127
   42    44     0
SMALL
USER_CHARGE


@<TRIPOS>ATOM
      1 C1          3.1630    2.7420   -2.1470 C.1       1 <1>         0.0363
      2 C2          4.4814   -1.5581    2.4813 C.ar      1 <1>        -0.0751
      3 C3          5.8169   -2.3530    0.6317 C.ar      1 <1>        -0.0725
      4 C4          0.2803    0.9407   -0.2041 C.ar      1 <1>        -0.0667
      5 C5          1.2587    3.1067    0.2294 C.ar      1 <1>        -0.0652
      6 C6          4.9646   -2.5971    3.2767 C.ar      1 <1>        -0.0946
      7 C7          6.3003   -3.3920    1.4271 C.ar      1 <1>        -0.0934
      8 C8         -0.9924    1.4761   -0.0067 C.ar      1 <1>        -0.0561
      9 C9         -0.0140    3.6422    0.4268 C.ar      1 <1>        -0.0556
     10 C10         3.1416    0.1646    0.5387 C.ar      1 <1>        -0.0231
     11 C11         3.5775    1.6726   -1.2834 C.ar      1 <1>         0.0967
     12 C12         1.4060    1.7560   -0.0861 C.ar      1 <1>        -0.0468
     13 C13         4.9077   -1.4362    1.1588 C.ar      1 <1>        -0.0490
     14 C14         2.7263    1.2005   -0.2905 C.ar      1 <1>         0.0092
     15 C15         5.8741   -3.5140    2.7498 C.ar      1 <1>        -0.1086
     16 C16        -1.1397    2.8268    0.3088 C.ar      1 <1>        -0.0143
     17 C17         4.4073   -0.3611    0.3355 C.ar      1 <1>        -0.0130
     18 C18         4.8238    1.0796   -1.4048 C.ar      1 <1>         0.0491
     19 C19         6.3904   -4.6250    3.6001 C.3       1 <1>        -0.0424
     20 C20         5.7963    1.1556   -5.3349 C.3       1 <1>        -0.0417
     21 C21         5.5234    0.5049   -3.9921 C.3       1 <1>         0.0003
     22 N1          2.8280    3.6064   -2.8450 N.1       1 <1>        -0.3784
     23 N2          5.2623    0.0714   -0.6183 N.ar      1 <1>        -0.3593
     24 S1          6.0064    1.6045   -2.6452 S.3       1 <1>        -0.1561
     25 Cl1        -2.7104    3.4864    0.5538 Cl        1 <1>        -0.1813
     26 H1          3.7724   -0.8517    2.9065 H         1 <1>         0.1361
     27 H2          6.1593   -2.2710   -0.3972 H         1 <1>         0.1437
     28 H3          0.3789   -0.1141   -0.4495 H         1 <1>         0.1408
     29 H4          2.1266    3.7550    0.3257 H         1 <1>         0.1460
     30 H5          4.6262   -2.6851    4.3058 H         1 <1>         0.1203
     31 H6          7.0090   -4.1017    1.0085 H         1 <1>         0.1204
     32 H7         -1.8611    0.8290   -0.1000 H         1 <1>         0.1470
     33 H8         -0.1138    4.6963    0.6734 H         1 <1>         0.1475
     34 H9          2.4959   -0.2223    1.3224 H         1 <1>         0.1726
     35 H10         5.7435   -5.5063    3.5115 H         1 <1>         0.0616
     36 H11         7.4092   -4.9105    3.3073 H         1 <1>         0.0588
     37 H12         6.4346   -4.3304    4.6569 H         1 <1>         0.0587
     38 H13         5.2435    2.0945   -5.4465 H         1 <1>         0.0485
     39 H14         6.8632    1.3607   -5.4733 H         1 <1>         0.0553
     40 H15         5.4801    0.4880   -6.1434 H         1 <1>         0.0485
     41 H16         6.0849   -0.4299   -3.9025 H         1 <1>         0.0980
     42 H17         4.4588    0.2729   -3.8928 H         1 <1>         0.0980
@<TRIPOS>BOND
     1    1   11 1
     2    1   22 3
     3    2    6 ar
     4    2   13 ar
     5    3    7 ar
     6    3   13 ar
     7    4    8 ar
     8    4   12 ar
     9    5    9 ar
    10    5   12 ar
    11    6   15 ar
    12    7   15 ar
    13    8   16 ar
    14    9   16 ar
    15   10   14 ar
    16   10   17 ar
    17   11   14 ar
    18   11   18 ar
    19   12   14 1
    20   13   17 1
    21   15   19 1
    22   16   25 1
    23   17   23 ar
    24   18   23 ar
    25   18   24 1
    26   20   21 1
    27   21   24 1
    28    2   26 1
    29    3   27 1
    30    4   28 1
    31    5   29 1
    32    6   30 1
    33    7   31 1
    34    8   32 1
    35    9   33 1
    36   10   34 1
    37   19   35 1
    38   19   36 1
    39   19   37 1
    40   20   38 1
    41   20   39 1
    42   20   40 1
    43   21   41 1
    44   21   42 1
