@<TRIPOS>MOLECULE
AN-989/42063253
   36    39     0
SMALL
USER_CHARGE


@<TRIPOS>ATOM
      1 C1          4.4650   -1.4337    2.3624 C.ar      1 <1>        -0.0653
      2 C2          5.8177   -2.2532    0.5360 C.ar      1 <1>        -0.0693
      3 C3          0.1499    1.0299   -0.2240 C.ar      1 <1>        -0.0419
      4 C4          1.1033    3.1989    0.2483 C.ar      1 <1>        -0.0455
      5 C5          4.9214   -2.4765    3.1684 C.ar      1 <1>        -0.0896
      6 C6          6.2740   -3.2961    1.3419 C.ar      1 <1>        -0.0917
      7 C7         -1.1293    1.5487   -0.0239 C.ar      1 <1>        -0.0232
      8 C8         -0.1758    3.7177    0.4484 C.ar      1 <1>        -0.0240
      9 C9          4.3792    2.8144   -2.8868 C.2       1 <1>         0.0662
     10 C10         1.2662    1.8551   -0.0878 C.ar      1 <1>        -0.0228
     11 C11         4.9131   -1.3219    1.0463 C.ar      1 <1>        -0.0340
     12 C12         5.8259   -3.4078    2.6581 C.ar      1 <1>        -0.1060
     13 C13        -1.2922    2.8926    0.3124 C.ar      1 <1>         0.0520
     14 C14         4.7329    1.2598   -1.5217 C.2       1 <1>         0.0944
     15 C15         3.0480    0.2970    0.4763 C.2       1 <1>         0.0052
     16 C16         2.6184    1.3072   -0.2993 C.2       1 <1>         0.0289
     17 C17         4.4277   -0.2102    0.1863 C.2       1 <1>         0.0229
     18 C18         6.3145   -4.5223    3.5208 C.3       1 <1>        -0.0411
     19 N1          5.3096    1.8971   -2.5207 N.2       1 <1>        -0.3036
     20 N2          3.2481    2.8041   -2.1884 N.2       1 <1>        -0.3042
     21 N3          5.2057    0.2367   -0.7572 N.2       1 <1>        -0.3118
     22 N4          3.4619    1.7966   -1.3027 N.pl3     1 <1>        -0.2567
     23 F1         -2.5206    3.3913    0.5029 F         1 <1>        -0.3349
     24 H1          3.7604   -0.7132    2.7697 H         1 <1>         0.1516
     25 H2          6.1734   -2.1761   -0.4881 H         1 <1>         0.1399
     26 H3          0.2609   -0.0197   -0.4858 H         1 <1>         0.1715
     27 H4          1.9637    3.8550    0.3580 H         1 <1>         0.1575
     28 H5          4.5672   -2.5557    4.1927 H         1 <1>         0.1243
     29 H6          6.9791   -4.0170    0.9364 H         1 <1>         0.1230
     30 H7         -1.9987    0.9067   -0.1298 H         1 <1>         0.1591
     31 H8         -0.3029    4.7642    0.7098 H         1 <1>         0.1600
     32 H9          4.5285    3.5185   -3.6917 H         1 <1>         0.3274
     33 H10         2.4646   -0.1445    1.2756 H         1 <1>         0.1986
     34 H11         5.6567   -5.3949    3.4260 H         1 <1>         0.0631
     35 H12         7.3333   -4.8227    3.2443 H         1 <1>         0.0601
     36 H13         6.3468   -4.2237    4.5767 H         1 <1>         0.0602
@<TRIPOS>BOND
     1    1    5 ar
     2    1   11 ar
     3    2    6 ar
     4    2   11 ar
     5    3    7 ar
     6    3   10 ar
     7    4    8 ar
     8    4   10 ar
     9    5   12 ar
    10    6   12 ar
    11    7   13 ar
    12    8   13 ar
    13    9   19 1
    14    9   20 2
    15   10   16 1
    16   11   17 1
    17   12   18 1
    18   13   23 1
    19   14   19 2
    20   14   21 1
    21   14   22 1
    22   15   16 2
    23   15   17 1
    24   16   22 1
    25   17   21 2
    26   20   22 1
    27    1   24 1
    28    2   25 1
    29    3   26 1
    30    4   27 1
    31    5   28 1
    32    6   29 1
    33    7   30 1
    34    8   31 1
    35    9   32 1
    36   15   33 1
    37   18   34 1
    38   18   35 1
    39   18   36 1
