@<TRIPOS>MOLECULE
AI-211/36556006
   39    41     0
SMALL
USER_CHARGE


@<TRIPOS>ATOM
      1 C1          3.1521    2.8475   -2.2557 C.1       1 <1>         0.0466
      2 C2          0.2618    1.0354   -0.2903 C.ar      1 <1>        -0.0823
      3 C3          1.2344    3.2046    0.1409 C.ar      1 <1>        -0.0809
      4 C4          5.0359   -1.1544    2.4226 C.ar      1 <1>        -0.0600
      5 C5          5.2743   -2.5360    0.4549 C.ar      1 <1>        -0.0573
      6 C6         -1.0120    1.5663   -0.0878 C.ar      1 <1>        -0.0968
      7 C7         -0.0395    3.7355    0.3434 C.ar      1 <1>        -0.0963
      8 C8          5.5282   -2.1937    3.2119 C.ar      1 <1>        -0.0618
      9 C9          5.7666   -3.5753    1.2443 C.ar      1 <1>        -0.0606
     10 C10         3.1321    0.2685    0.4388 C.ar      1 <1>        -0.0200
     11 C11         3.5491    1.7824   -1.3829 C.ar      1 <1>         0.1205
     12 C12         1.3851    1.8546   -0.1759 C.ar      1 <1>        -0.0530
     13 C13         4.9088   -1.3257    1.0439 C.ar      1 <1>        -0.0379
     14 C14         2.7063    1.3040   -0.3859 C.ar      1 <1>         0.0169
     15 C15        -1.1628    2.9163    0.2292 C.ar      1 <1>        -0.1093
     16 C16         5.8936   -3.4041    2.6229 C.ar      1 <1>        -0.0349
     17 C17         4.3995   -0.2499    0.2271 C.ar      1 <1>        -0.0020
     18 C18         4.7978    1.1964   -1.5129 C.ar      1 <1>         0.0940
     19 C19        -2.5247    3.4839    0.4459 C.3       1 <1>        -0.0422
     20 C20         6.5537    2.6822   -2.1169 C.3       1 <1>         0.0344
     21 N1          2.8306    3.7101   -2.9623 N.1       1 <1>        -0.3790
     22 N2          5.2463    0.1889   -0.7310 N.ar      1 <1>        -0.3352
     23 O1          5.6665    1.6320   -2.4806 O.3       1 <1>        -0.4083
     24 Br1         6.5617   -4.8123    3.6917 Br        1 <1>        -0.1390
     25 H1          0.3628   -0.0191   -0.5361 H         1 <1>         0.1284
     26 H2          2.1001    3.8561    0.2330 H         1 <1>         0.1334
     27 H3          4.7552   -0.2168    2.8963 H         1 <1>         0.1495
     28 H4          5.1820   -2.6846   -0.6183 H         1 <1>         0.1570
     29 H5         -1.8815    0.9206   -0.1778 H         1 <1>         0.1208
     30 H6         -0.1478    4.7886    0.5895 H         1 <1>         0.1214
     31 H7          5.6216   -2.0438    4.2845 H         1 <1>         0.1443
     32 H8          6.0468   -4.5120    0.7698 H         1 <1>         0.1443
     33 H9          2.4924   -0.1232    1.2252 H         1 <1>         0.1698
     34 H10        -2.8092    3.4016    1.5021 H         1 <1>         0.0617
     35 H11        -2.5664    4.5418    0.1559 H         1 <1>         0.0593
     36 H12        -3.2759    2.9591   -0.1586 H         1 <1>         0.0589
     37 H13         7.1887    2.9355   -2.9693 H         1 <1>         0.1252
     38 H14         7.1697    2.3639   -1.2720 H         1 <1>         0.1446
     39 H15         5.9681    3.5584   -1.8286 H         1 <1>         0.1252
@<TRIPOS>BOND
     1    1   11 1
     2    1   21 3
     3    2    6 ar
     4    2   12 ar
     5    3    7 ar
     6    3   12 ar
     7    4    8 ar
     8    4   13 ar
     9    5    9 ar
    10    5   13 ar
    11    6   15 ar
    12    7   15 ar
    13    8   16 ar
    14    9   16 ar
    15   10   14 ar
    16   10   17 ar
    17   11   14 ar
    18   11   18 ar
    19   12   14 1
    20   13   17 1
    21   15   19 1
    22   16   24 1
    23   17   22 ar
    24   18   22 ar
    25   18   23 1
    26   20   23 1
    27    2   25 1
    28    3   26 1
    29    4   27 1
    30    5   28 1
    31    6   29 1
    32    7   30 1
    33    8   31 1
    34    9   32 1
    35   10   33 1
    36   19   34 1
    37   19   35 1
    38   19   36 1
    39   20   37 1
    40   20   38 1
    41   20   39 1
