@<TRIPOS>MOLECULE
AI-211/36556008
   36    38     0
SMALL
USER_CHARGE


@<TRIPOS>ATOM
      1 C1          3.1523    2.8475   -2.2560 C.1       1 <1>         0.0471
      2 C2          0.2618    1.0354   -0.2905 C.ar      1 <1>        -0.0641
      3 C3          1.2343    3.2045    0.1410 C.ar      1 <1>        -0.0656
      4 C4          5.0362   -1.1542    2.4225 C.ar      1 <1>        -0.0576
      5 C5          5.2741   -2.5360    0.4550 C.ar      1 <1>        -0.0550
      6 C6         -1.0120    1.5661   -0.0875 C.ar      1 <1>        -0.0551
      7 C7         -0.0396    3.7353    0.3439 C.ar      1 <1>        -0.0556
      8 C8          5.5281   -2.1937    3.2120 C.ar      1 <1>        -0.0533
      9 C9          5.7660   -3.5755    1.2444 C.ar      1 <1>        -0.0521
     10 C10         3.1323    0.2687    0.4386 C.ar      1 <1>        -0.0191
     11 C11         3.5492    1.7825   -1.3831 C.ar      1 <1>         0.1215
     12 C12         1.3851    1.8546   -0.1762 C.ar      1 <1>        -0.0435
     13 C13         4.9092   -1.3254    1.0440 C.ar      1 <1>        -0.0375
     14 C14         2.7065    1.3040   -0.3861 C.ar      1 <1>         0.0197
     15 C15        -1.1628    2.9162    0.2295 C.ar      1 <1>        -0.0139
     16 C16         5.8929   -3.4042    2.6229 C.ar      1 <1>        -0.0132
     17 C17         4.3996   -0.2498    0.2270 C.ar      1 <1>        -0.0017
     18 C18         4.7980    1.1965   -1.5132 C.ar      1 <1>         0.0946
     19 C19         6.5539    2.6824   -2.1172 C.3       1 <1>         0.0347
     20 N1          2.8307    3.7100   -2.9627 N.1       1 <1>        -0.3782
     21 N2          5.2465    0.1891   -0.7311 N.ar      1 <1>        -0.3347
     22 O1          5.6667    1.6321   -2.4808 O.3       1 <1>        -0.4079
     23 Cl1        -2.7348    3.5700    0.4813 Cl        1 <1>        -0.1809
     24 Cl2         6.4984   -4.6868    3.5978 Cl        1 <1>        -0.1816
     25 H1          0.3631   -0.0189   -0.5369 H         1 <1>         0.1471
     26 H2          2.1003    3.8558    0.2345 H         1 <1>         0.1418
     27 H3          4.7559   -0.2166    2.8963 H         1 <1>         0.1506
     28 H4          5.1801   -2.6851   -0.6182 H         1 <1>         0.1581
     29 H5         -1.8788    0.9159   -0.1779 H         1 <1>         0.1478
     30 H6         -0.1421    4.7889    0.5915 H         1 <1>         0.1473
     31 H7          5.6202   -2.0474    4.2854 H         1 <1>         0.1467
     32 H8          6.0454   -4.5138    0.7722 H         1 <1>         0.1468
     33 H9          2.4927   -0.1231    1.2250 H         1 <1>         0.1707
     34 H10         7.1887    2.9357   -2.9697 H         1 <1>         0.1256
     35 H11         7.1698    2.3641   -1.2724 H         1 <1>         0.1256
     36 H12         5.9682    3.5586   -1.8290 H         1 <1>         0.1450
@<TRIPOS>BOND
     1    1   11 1
     2    1   20 3
     3    2    6 ar
     4    2   12 ar
     5    3    7 ar
     6    3   12 ar
     7    4    8 ar
     8    4   13 ar
     9    5    9 ar
    10    5   13 ar
    11    6   15 ar
    12    7   15 ar
    13    8   16 ar
    14    9   16 ar
    15   10   14 ar
    16   10   17 ar
    17   11   14 ar
    18   11   18 ar
    19   12   14 1
    20   13   17 1
    21   15   23 1
    22   16   24 1
    23   17   21 ar
    24   18   21 ar
    25   18   22 1
    26   19   22 1
    27    2   25 1
    28    3   26 1
    29    4   27 1
    30    5   28 1
    31    6   29 1
    32    7   30 1
    33    8   31 1
    34    9   32 1
    35   10   33 1
    36   19   34 1
    37   19   35 1
    38   19   36 1
