@<TRIPOS>MOLECULE
AG-690/11481219
   32    34     0
SMALL
USER_CHARGE


@<TRIPOS>ATOM
      1 C1          3.0882    2.9241   -2.2873 C.1       1 <1>         0.0459
      2 C2          6.0656   -3.3438    2.4344 C.ar      1 <1>        -0.0951
      3 C3          5.6888   -2.1491    3.0477 C.ar      1 <1>        -0.0894
      4 C4          5.9157   -3.4980    1.0562 C.ar      1 <1>        -0.0914
      5 C5          5.1622   -1.1084    2.2828 C.ar      1 <1>        -0.0711
      6 C6          5.3891   -2.4572    0.2912 C.ar      1 <1>        -0.0749
      7 C7          1.2254    2.9185    0.6962 C.ar      1 <1>        -0.0669
      8 C8          0.3084    1.3121   -0.8582 C.ar      1 <1>        -0.0684
      9 C9         -0.0544    3.4196    0.9334 C.ar      1 <1>        -0.0631
     10 C10        -0.9715    1.8134   -0.6209 C.ar      1 <1>        -0.0637
     11 C11         3.1949    0.3065    0.3561 C.ar      1 <1>        -0.0162
     12 C12         3.5491    1.8534   -1.4512 C.ar      1 <1>         0.1150
     13 C13         1.4069    1.8647   -0.1996 C.ar      1 <1>        -0.0454
     14 C14         5.0124   -1.2622    0.9046 C.ar      1 <1>        -0.0466
     15 C15         2.7345    1.3451   -0.4455 C.ar      1 <1>         0.0161
     16 C16        -1.1529    2.8670    0.2750 C.ar      1 <1>        -0.0345
     17 C17         4.4675   -0.1850    0.1133 C.ar      1 <1>        -0.0035
     18 C18         4.8059    1.2929   -1.6130 C.ar      1 <1>         0.1024
     19 N1          2.7155    3.7902   -2.9636 N.1       1 <1>        -0.3712
     20 N2          5.2877    0.2832   -0.8541 N.ar      1 <1>        -0.3384
     21 Br1        -2.8875    3.5448    0.5966 Br        1 <1>        -0.1364
     22 Br2         6.0026    1.9193   -2.9656 Br        1 <1>        -0.0078
     23 H1          6.4772   -4.1534    3.0299 H         1 <1>         0.1209
     24 H2          5.8069   -2.0284    4.1205 H         1 <1>         0.1219
     25 H3          6.2102   -4.4273    0.5778 H         1 <1>         0.1206
     26 H4          4.8734   -0.1829    2.7756 H         1 <1>         0.1455
     27 H5          5.2789   -2.5914   -0.7822 H         1 <1>         0.1345
     28 H6          2.0718    3.3597    1.2173 H         1 <1>         0.1458
     29 H7          0.4335    0.4900   -1.5587 H         1 <1>         0.1403
     30 H8         -0.1788    4.2404    1.6350 H         1 <1>         0.1465
     31 H9         -1.8166    1.3717   -1.1422 H         1 <1>         0.1459
     32 H10         2.5777   -0.1081    1.1484 H         1 <1>         0.1828
@<TRIPOS>BOND
     1    1   12 1
     2    1   19 3
     3    2    3 ar
     4    2    4 ar
     5    3    5 ar
     6    4    6 ar
     7    5   14 ar
     8    6   14 ar
     9    7    9 ar
    10    7   13 ar
    11    8   10 ar
    12    8   13 ar
    13    9   16 ar
    14   10   16 ar
    15   11   15 ar
    16   11   17 ar
    17   12   15 ar
    18   12   18 ar
    19   13   15 1
    20   14   17 1
    21   16   21 1
    22   17   20 ar
    23   18   20 ar
    24   18   22 1
    25    2   23 1
    26    3   24 1
    27    4   25 1
    28    5   26 1
    29    6   27 1
    30    7   28 1
    31    8   29 1
    32    9   30 1
    33   10   31 1
    34   11   32 1
