@<TRIPOS>MOLECULE
AE-641/00006013
   37    40     0
SMALL
USER_CHARGE


@<TRIPOS>ATOM
      1 C1         -1.2514    2.8621    0.3387 C.ar      1 <1>        -0.0994
      2 C2          5.8698   -3.3743    2.6065 C.ar      1 <1>        -0.0979
      3 C3          3.9206    3.3299   -3.2124 C.ar      1 <1>        -0.0872
      4 C4         -0.1529    3.4137    0.9979 C.ar      1 <1>        -0.0965
      5 C5         -1.0712    1.8029   -0.5509 C.ar      1 <1>        -0.0968
      6 C6          5.4998   -2.1693    3.2035 C.ar      1 <1>        -0.0939
      7 C7          5.7335   -3.5407    1.2283 C.ar      1 <1>        -0.0920
      8 C8          5.1786    2.7603   -3.3654 C.ar      1 <1>        -0.0804
      9 C9          3.0691    2.8581   -2.2175 C.ar      1 <1>        -0.0756
     10 C10         1.1258    2.9063    0.7675 C.ar      1 <1>        -0.0880
     11 C11         0.2075    1.2953   -0.7812 C.ar      1 <1>        -0.0883
     12 C12         4.9934   -1.1305    2.4224 C.ar      1 <1>        -0.0779
     13 C13         5.2272   -2.5020    0.4471 C.ar      1 <1>        -0.0742
     14 C14         5.5821    1.7208   -2.5236 C.ar      1 <1>        -0.0601
     15 C15         3.0687    0.2851    0.4583 C.ar      1 <1>        -0.0450
     16 C16         3.4752    1.8126   -1.3710 C.ar      1 <1>        -0.0490
     17 C17         1.3060    1.8471   -0.1219 C.ar      1 <1>        -0.0748
     18 C18         4.8571   -1.2968    1.0442 C.ar      1 <1>        -0.0535
     19 C19         2.6383    1.3184   -0.3614 C.ar      1 <1>        -0.0515
     20 C20         4.7511    1.2297   -1.5205 C.ar      1 <1>        -0.0327
     21 C21         4.3332   -0.2214    0.2361 C.ar      1 <1>        -0.0269
     22 N1          5.1715    0.2266   -0.7265 N.ar      1 <1>        -0.3895
     23 H1         -2.2471    3.2564    0.5194 H         1 <1>         0.1164
     24 H2          6.2656   -4.1825    3.2147 H         1 <1>         0.1166
     25 H3          3.6041    4.1379   -3.8649 H         1 <1>         0.1224
     26 H4         -0.2932    4.2374    1.6918 H         1 <1>         0.1184
     27 H5         -1.9262    1.3721   -1.0635 H         1 <1>         0.1180
     28 H6          5.6073   -2.0390    4.2764 H         1 <1>         0.1174
     29 H7          6.0226   -4.4783    0.7626 H         1 <1>         0.1186
     30 H8          5.8490    3.1225   -4.1393 H         1 <1>         0.1312
     31 H9          2.0919    3.3257   -2.1249 H         1 <1>         0.1338
     32 H10         1.9719    3.3469    1.2895 H         1 <1>         0.1264
     33 H11         0.3324    0.4690   -1.4769 H         1 <1>         0.1261
     34 H12         4.7096   -0.1970    2.9027 H         1 <1>         0.1312
     35 H13         5.1272   -2.6459   -0.6261 H         1 <1>         0.1421
     36 H14         6.5724    1.2916   -2.6643 H         1 <1>         0.1540
     37 H15         2.4361   -0.1132    1.2468 H         1 <1>         0.1584
@<TRIPOS>BOND
     1    1    4 ar
     2    1    5 ar
     3    2    6 ar
     4    2    7 ar
     5    3    8 ar
     6    3    9 ar
     7    4   10 ar
     8    5   11 ar
     9    6   12 ar
    10    7   13 ar
    11    8   14 ar
    12    9   16 ar
    13   10   17 ar
    14   11   17 ar
    15   12   18 ar
    16   13   18 ar
    17   14   20 ar
    18   15   19 ar
    19   15   21 ar
    20   16   19 ar
    21   16   20 ar
    22   17   19 1
    23   18   21 1
    24   20   22 ar
    25   21   22 ar
    26    1   23 1
    27    2   24 1
    28    3   25 1
    29    4   26 1
    30    5   27 1
    31    6   28 1
    32    7   29 1
    33    8   30 1
    34    9   31 1
    35   10   32 1
    36   11   33 1
    37   12   34 1
    38   13   35 1
    39   14   36 1
    40   15   37 1
