@<TRIPOS>MOLECULE
AG-690/12404942
   38    41     0
SMALL
USER_CHARGE


@<TRIPOS>ATOM
      1 C1          4.6001   -1.4972    2.4214 C.ar      1 <1>        -0.0674
      2 C2          5.8266   -2.2987    0.5003 C.ar      1 <1>        -0.0715
      3 C3         -0.1713    1.0577   -0.1380 C.ar      1 <1>        -0.0773
      4 C4          1.2177    3.0330   -0.0618 C.ar      1 <1>        -0.0742
      5 C5          5.1234   -2.5374    3.1896 C.ar      1 <1>        -0.0900
      6 C6          6.3500   -3.3388    1.2685 C.ar      1 <1>        -0.0923
      7 C7         -1.2857    1.8286    0.1926 C.ar      1 <1>        -0.0683
      8 C8          0.1032    3.8040    0.2688 C.ar      1 <1>        -0.0666
      9 C9          4.1464    2.7777   -2.8236 C.2       1 <1>         0.0555
     10 C10         4.9517   -1.3779    1.0769 C.ar      1 <1>        -0.0413
     11 C11         1.0804    1.6599   -0.2652 C.ar      1 <1>        -0.0632
     12 C12         5.9983   -3.4581    2.6130 C.ar      1 <1>        -0.1059
     13 C13        -1.1486    3.2016    0.3960 C.ar      1 <1>        -0.0374
     14 C14         4.6020    1.2392   -1.4522 C.2       1 <1>         0.0749
     15 C15         4.3933   -0.2660    0.2550 C.2       1 <1>         0.0005
     16 C16         3.0074    0.2711    0.6135 C.3       1 <1>         0.0394
     17 C17         2.2900    0.8233   -0.6240 C.3       1 <1>         0.0592
     18 C18         6.5585   -4.5695    3.4350 C.3       1 <1>        -0.0407
     19 N1          5.1837    2.0399   -2.3269 N.2       1 <1>        -0.3131
     20 N2          2.9433    2.4936   -2.3243 N.2       1 <1>        -0.3214
     21 N3          5.1213    0.2328   -0.7032 N.2       1 <1>        -0.3242
     22 N4          3.2640    1.5470   -1.4308 N.pl3     1 <1>        -0.2910
     23 Br1        -2.6589    4.2452    0.8445 Br        1 <1>        -0.1384
     24 H1          3.9193   -0.7850    2.8803 H         1 <1>         0.1513
     25 H2          6.1075   -2.2156   -0.5463 H         1 <1>         0.1396
     26 H3         -0.2876   -0.0115   -0.2949 H         1 <1>         0.1308
     27 H4          2.1892    3.5107   -0.1578 H         1 <1>         0.1402
     28 H5          4.8443   -2.6225    4.2362 H         1 <1>         0.1242
     29 H6          7.0314   -4.0514    0.8113 H         1 <1>         0.1226
     30 H7         -2.2538    1.3435    0.2888 H         1 <1>         0.1417
     31 H8          0.2270    4.8725    0.4237 H         1 <1>         0.1437
     32 H9          4.2734    3.5447   -3.5731 H         1 <1>         0.3095
     33 H10         2.4461   -0.5866    0.9937 H         1 <1>         0.1377
     34 H11         3.0767    1.0108    1.4104 H         1 <1>         0.1426
     35 H12         1.9324   -0.0440   -1.2458 H         1 <1>         0.1861
     36 H13         5.9044   -5.4486    3.3848 H         1 <1>         0.0637
     37 H14         7.5579   -4.8589    3.0854 H         1 <1>         0.0606
     38 H15         6.6634   -4.2732    4.4869 H         1 <1>         0.0604
@<TRIPOS>BOND
     1    1    5 ar
     2    1   10 ar
     3    2    6 ar
     4    2   10 ar
     5    3    7 ar
     6    3   11 ar
     7    4    8 ar
     8    4   11 ar
     9    5   12 ar
    10    6   12 ar
    11    7   13 ar
    12    8   13 ar
    13    9   19 1
    14    9   20 2
    15   10   15 1
    16   11   17 1
    17   12   18 1
    18   13   23 1
    19   14   19 2
    20   14   21 1
    21   14   22 1
    22   15   16 1
    23   15   21 2
    24   16   17 1
    25   17   22 1
    26   20   22 1
    27    1   24 1
    28    2   25 1
    29    3   26 1
    30    4   27 1
    31    5   28 1
    32    6   29 1
    33    7   30 1
    34    8   31 1
    35    9   32 1
    36   16   33 1
    37   16   34 1
    38   17   35 1
    39   18   36 1
    40   18   37 1
    41   18   38 1
