@<TRIPOS>MOLECULE
AS-938/12583055
   40    43     0
SMALL
USER_CHARGE


@<TRIPOS>ATOM
      1 C1          0.2034    1.2194   -0.4571 C.ar      1 <1>        -0.0604
      2 C2          0.7180    3.5077    0.1219 C.ar      1 <1>        -0.0501
      3 C3          4.4694   -1.4023    2.3232 C.ar      1 <1>        -0.0375
      4 C4          5.8473   -2.2812    0.5438 C.ar      1 <1>        -0.0416
      5 C5         -1.0480    1.3483    0.1455 C.ar      1 <1>        -0.0613
      6 C6         -0.5333    3.6368    0.7245 C.ar      1 <1>        -0.0512
      7 C7          4.8840   -2.4407    3.1572 C.ar      1 <1>        -0.0400
      8 C8          6.2620   -3.3196    1.3779 C.ar      1 <1>        -0.0422
      9 C9          3.3247    0.3402    0.2476 C.2       1 <1>         0.0201
     10 C10         3.3730    1.2722   -0.7482 C.ar      1 <1>         0.0338
     11 C11         1.0865    2.2990   -0.4689 C.ar      1 <1>        -0.0269
     12 C12         4.6620    1.1530   -1.3837 C.ar      1 <1>         0.0472
     13 C13         4.9511   -1.3227    1.0165 C.ar      1 <1>        -0.0091
     14 C14        -1.4163    2.5569    0.7363 C.ar      1 <1>        -0.0345
     15 C15         5.7802   -3.3993    2.6845 C.ar      1 <1>        -0.0047
     16 C16         2.3693    2.1672   -1.0867 C.ar      1 <1>         0.0344
     17 C17         4.9982    1.9938   -2.4545 C.ar      1 <1>         0.0260
     18 C18         6.2768    1.9932   -3.2083 C.3       1 <1>         0.0131
     19 C19        -3.4909    1.5394    1.2991 C.3       1 <1>         0.0113
     20 N1          5.3598    0.1758   -0.7798 N.2       1 <1>        -0.3222
     21 N2          2.7244    2.9675   -2.1269 N.ar      1 <1>        -0.3059
     22 N3          4.0208    2.8794   -2.7989 N.ar      1 <1>        -0.3064
     23 N4          4.5366   -0.2850    0.1835 N.pl3     1 <1>        -0.2997
     24 O1         -2.6375    2.6827    1.3236 O.3       1 <1>        -0.4622
     25 Cl1         6.2935   -4.6788    3.7146 Cl        1 <1>        -0.1758
     26 H1          0.4760    0.2708   -0.9135 H         1 <1>         0.1401
     27 H2          1.3951    4.3586    0.1210 H         1 <1>         0.1611
     28 H3          3.7705   -0.6618    2.7047 H         1 <1>         0.1717
     29 H4          6.2307   -2.2308   -0.4724 H         1 <1>         0.1596
     30 H5         -1.7317    0.5037    0.1512 H         1 <1>         0.1301
     31 H6         -0.8150    4.5808    1.1831 H         1 <1>         0.1499
     32 H7          4.5004   -2.4909    4.1730 H         1 <1>         0.1613
     33 H8          6.9604   -4.0599    0.9961 H         1 <1>         0.1600
     34 H9          2.5693    0.0687    0.9739 H         1 <1>         0.2530
     35 H10         6.2226    1.3080   -4.0661 H         1 <1>         0.1032
     36 H11         6.5247    2.9962   -3.5870 H         1 <1>         0.1037
     37 H12         7.1210    1.6821   -2.5746 H         1 <1>         0.1000
     38 H13        -4.4323    1.7755    1.8010 H         1 <1>         0.1095
     39 H14        -2.9970    0.7040    1.8020 H         1 <1>         0.1092
     40 H15        -3.6926    1.2686    0.2599 H         1 <1>         0.1331
@<TRIPOS>BOND
     1    1    5 ar
     2    1   11 ar
     3    2    6 ar
     4    2   11 ar
     5    3    7 ar
     6    3   13 ar
     7    4    8 ar
     8    4   13 ar
     9    5   14 ar
    10    6   14 ar
    11    7   15 ar
    12    8   15 ar
    13    9   10 2
    14    9   23 1
    15   10   12 ar
    16   10   16 ar
    17   11   16 1
    18   12   17 ar
    19   12   20 2
    20   13   23 1
    21   14   24 1
    22   15   25 1
    23   16   21 ar
    24   17   18 1
    25   17   22 ar
    26   19   24 1
    27   20   23 1
    28   21   22 ar
    29    1   26 1
    30    2   27 1
    31    3   28 1
    32    4   29 1
    33    5   30 1
    34    6   31 1
    35    7   32 1
    36    8   33 1
    37    9   34 1
    38   18   35 1
    39   18   36 1
    40   18   37 1
    41   19   38 1
    42   19   39 1
    43   19   40 1
