@<TRIPOS>MOLECULE
AE-842/32998057
   41    44     0
SMALL
USER_CHARGE


@<TRIPOS>ATOM
      1 C1         -1.2876    3.0073    0.2627 C.ar      1 <1>        -0.0967
      2 C2         -0.0995    3.7146    0.4459 C.ar      1 <1>        -0.0919
      3 C3         -1.2501    1.6408   -0.0153 C.ar      1 <1>        -0.0913
      4 C4          1.1263    3.0556    0.3510 C.ar      1 <1>        -0.0751
      5 C5         -0.0243    0.9819   -0.1102 C.ar      1 <1>        -0.0743
      6 C6          5.6435   -2.2125    0.5559 C.ar      1 <1>        -0.0545
      7 C7          4.3118   -1.5565    2.4620 C.ar      1 <1>        -0.0550
      8 C8          6.2643   -3.1947    1.3276 C.ar      1 <1>        -0.0512
      9 C9          4.9327   -2.5387    3.2337 C.ar      1 <1>        -0.0515
     10 C10         1.1639    1.6892    0.0729 C.ar      1 <1>        -0.0503
     11 C11         4.6673   -1.3934    1.1231 C.ar      1 <1>        -0.0388
     12 C12         5.9089   -3.3578    2.6665 C.ar      1 <1>        -0.0166
     13 C13         2.4568    0.9942   -0.0273 C.2       1 <1>        -0.0257
     14 C14         5.0862    2.7059   -2.3853 C.3       1 <1>        -0.0549
     15 C15         6.2343    1.7830   -1.9349 C.3       1 <1>        -0.0543
     16 C16         3.9129    2.7771   -1.3905 C.3       1 <1>        -0.0382
     17 C17         5.7640    0.4283   -1.3706 C.3       1 <1>        -0.0378
     18 C18         3.5185    1.3608   -1.0302 C.3       1 <1>         0.0044
     19 C19         4.7067    0.7030   -0.3146 C.3       1 <1>         0.0041
     20 N1          2.7576   -0.0527    0.6866 N.2       1 <1>        -0.3692
     21 N2          4.0488   -0.4109    0.3519 N.pl3     1 <1>        -0.3558
     22 Cl1         6.6751   -4.5696    3.6183 Cl        1 <1>        -0.1916
     23 H1         -2.2419    3.5203    0.3365 H         1 <1>         0.1178
     24 H2         -0.1289    4.7785    0.6621 H         1 <1>         0.1198
     25 H3         -2.1752    1.0900   -0.1577 H         1 <1>         0.1199
     26 H4          2.0460    3.6165    0.4955 H         1 <1>         0.1357
     27 H5         -0.0071   -0.0831   -0.3274 H         1 <1>         0.1378
     28 H6          5.9285   -2.0930   -0.4862 H         1 <1>         0.1493
     29 H7          3.5534   -0.9226    2.9144 H         1 <1>         0.1480
     30 H8          7.0246   -3.8244    0.8725 H         1 <1>         0.1487
     31 H9          4.6466   -2.6528    4.2763 H         1 <1>         0.1489
     32 H10         5.4746    3.7139   -2.5698 H         1 <1>         0.0454
     33 H11         4.7055    2.3363   -3.3462 H         1 <1>         0.0419
     34 H12         6.9207    1.6143   -2.7724 H         1 <1>         0.0478
     35 H13         6.8105    2.3028   -1.1584 H         1 <1>         0.0440
     36 H14         4.2020    3.3461   -0.4990 H         1 <1>         0.0575
     37 H15         3.0703    3.3092   -1.8454 H         1 <1>         0.0613
     38 H16         5.3693   -0.2033   -2.1756 H         1 <1>         0.0622
     39 H17         6.6158   -0.1064   -0.9359 H         1 <1>         0.0631
     40 H18         3.2507    0.8105   -1.9453 H         1 <1>         0.1055
     41 H19         5.1163    1.3735    0.4568 H         1 <1>         0.1119
@<TRIPOS>BOND
     1    1    2 ar
     2    1    3 ar
     3    2    4 ar
     4    3    5 ar
     5    4   10 ar
     6    5   10 ar
     7    6    8 ar
     8    6   11 ar
     9    7    9 ar
    10    7   11 ar
    11    8   12 ar
    12    9   12 ar
    13   10   13 1
    14   11   21 1
    15   12   22 1
    16   13   18 1
    17   13   20 2
    18   14   15 1
    19   14   16 1
    20   15   17 1
    21   16   18 1
    22   17   19 1
    23   18   19 1
    24   19   21 1
    25   20   21 1
    26    1   23 1
    27    2   24 1
    28    3   25 1
    29    4   26 1
    30    5   27 1
    31    6   28 1
    32    7   29 1
    33    8   30 1
    34    9   31 1
    35   14   32 1
    36   14   33 1
    37   15   34 1
    38   15   35 1
    39   16   36 1
    40   16   37 1
    41   17   38 1
    42   17   39 1
    43   18   40 1
    44   19   41 1
