@<TRIPOS>MOLECULE
AS-980/15246972
   40    43     0
SMALL
USER_CHARGE


@<TRIPOS>ATOM
      1 C1         -1.7631    2.9313    0.5706 C.ar      1 <1>        -0.0954
      2 C2          5.9439   -3.0832    2.2605 C.ar      1 <1>        -0.0915
      3 C3         -1.5899    1.8446   -0.2866 C.ar      1 <1>        -0.0902
      4 C4         -0.6710    3.4549    1.2627 C.ar      1 <1>        -0.0898
      5 C5          6.1326   -2.7964    0.9086 C.ar      1 <1>        -0.0826
      6 C6          5.0103   -2.3604    3.0032 C.ar      1 <1>        -0.0818
      7 C7         -0.3244    1.2813   -0.4514 C.ar      1 <1>        -0.0709
      8 C8          0.5943    2.8914    1.0979 C.ar      1 <1>        -0.0705
      9 C9          5.3877   -1.7868    0.2993 C.ar      1 <1>        -0.0566
     10 C10         4.2653   -1.3507    2.3938 C.ar      1 <1>        -0.0556
     11 C11         4.4071    2.4842   -2.6233 C.ar      1 <1>        -0.0643
     12 C12         3.0524    1.5795   -0.8794 C.ar      1 <1>         0.0074
     13 C13         0.7676    1.8046    0.2407 C.ar      1 <1>        -0.0350
     14 C14         3.1999    2.4999   -1.9245 C.ar      1 <1>        -0.0580
     15 C15         4.4540   -1.0639    1.0419 C.ar      1 <1>        -0.0121
     16 C16         2.0750    1.2227    0.0708 C.2       1 <1>         0.0256
     17 C17         5.3874    1.5699   -2.2524 C.ar      1 <1>        -0.0483
     18 C18         4.1096    0.7230   -0.6143 C.ar      1 <1>         0.0349
     19 C19         2.1452    3.4802   -2.3192 C.3       1 <1>        -0.0241
     20 C20         6.6761    1.5647   -3.0113 C.3       1 <1>        -0.0103
     21 N1          2.4701    0.2279    0.8721 N.2       1 <1>        -0.3177
     22 N2          5.2921    0.6619   -1.2511 N.ar      1 <1>        -0.3742
     23 N3          3.7096   -0.0548    0.4320 N.pl3     1 <1>        -0.2876
     24 H1         -2.7481    3.3707    0.6982 H         1 <1>         0.1194
     25 H2          6.5224   -3.8703    2.7351 H         1 <1>         0.1191
     26 H3         -2.4397    1.4377   -0.8265 H         1 <1>         0.1214
     27 H4         -0.8061    4.3017    1.9290 H         1 <1>         0.1216
     28 H5          6.8586   -3.3599    0.3299 H         1 <1>         0.1277
     29 H6          4.8629   -2.5852    4.0556 H         1 <1>         0.1290
     30 H7         -0.2056    0.4344   -1.1232 H         1 <1>         0.1376
     31 H8          1.4355    3.3112    1.6446 H         1 <1>         0.1376
     32 H9          5.5439   -1.5739   -0.7554 H         1 <1>         0.1474
     33 H10         3.5403   -0.7955    2.9842 H         1 <1>         0.1498
     34 H11         4.5784    3.1764   -3.4430 H         1 <1>         0.1395
     35 H12         1.4860    3.0441   -3.0791 H         1 <1>         0.0762
     36 H13         1.5357    3.7761   -1.4564 H         1 <1>         0.0719
     37 H14         2.5885    4.3977   -2.7262 H         1 <1>         0.0743
     38 H15         7.3922    2.2494   -2.5444 H         1 <1>         0.0932
     39 H16         7.1150    0.5606   -3.0363 H         1 <1>         0.0917
     40 H17         6.5219    1.8736   -4.0520 H         1 <1>         0.0911
@<TRIPOS>BOND
     1    1    3 ar
     2    1    4 ar
     3    2    5 ar
     4    2    6 ar
     5    3    7 ar
     6    4    8 ar
     7    5    9 ar
     8    6   10 ar
     9    7   13 ar
    10    8   13 ar
    11    9   15 ar
    12   10   15 ar
    13   11   14 ar
    14   11   17 ar
    15   12   14 ar
    16   12   16 1
    17   12   18 ar
    18   13   16 1
    19   14   19 1
    20   15   23 1
    21   16   21 2
    22   17   20 1
    23   17   22 ar
    24   18   22 ar
    25   18   23 1
    26   21   23 1
    27    1   24 1
    28    2   25 1
    29    3   26 1
    30    4   27 1
    31    5   28 1
    32    6   29 1
    33    7   30 1
    34    8   31 1
    35    9   32 1
    36   10   33 1
    37   11   34 1
    38   19   35 1
    39   19   36 1
    40   19   37 1
    41   20   38 1
    42   20   39 1
    43   20   40 1
