@<TRIPOS>MOLECULE
AG-205/32388062
   41    44     0
SMALL
USER_CHARGE


@<TRIPOS>ATOM
      1 C1          7.3970    2.6206   -4.5518 C.ar      1 <1>        -0.0981
      2 C2          5.9471   -3.3493    2.5361 C.ar      1 <1>        -0.0981
      3 C3          6.1501    2.1056   -4.9060 C.ar      1 <1>        -0.0923
      4 C4          7.7673    2.6893   -3.2086 C.ar      1 <1>        -0.0942
      5 C5          5.0329   -2.4533    3.0900 C.ar      1 <1>        -0.0942
      6 C6          6.3446   -3.2077    1.2066 C.ar      1 <1>        -0.0923
      7 C7          5.2733    1.6593   -3.9172 C.ar      1 <1>        -0.0754
      8 C8          6.8906    2.2429   -2.2198 C.ar      1 <1>        -0.0792
      9 C9          4.5163   -1.4152    2.3144 C.ar      1 <1>        -0.0792
     10 C10         5.8280   -2.1696    0.4310 C.ar      1 <1>        -0.0754
     11 C11         1.0952    3.2372   -0.4996 C.ar      1 <1>        -0.0751
     12 C12         0.3128    1.0978    0.3055 C.ar      1 <1>        -0.0751
     13 C13        -0.1772    3.7751   -0.3071 C.ar      1 <1>        -0.0685
     14 C14        -0.9598    1.6359    0.4981 C.ar      1 <1>        -0.0685
     15 C15         3.4823    1.8359   -1.3985 C.ar      1 <1>        -0.0488
     16 C16         3.1087    0.3028    0.4165 C.ar      1 <1>        -0.0488
     17 C17         1.3402    1.8986   -0.1934 C.ar      1 <1>        -0.0682
     18 C18         5.6435    1.7279   -2.5741 C.ar      1 <1>        -0.0555
     19 C19         4.9138   -1.2735    0.9849 C.ar      1 <1>        -0.0555
     20 C20         2.6593    1.3396   -0.3936 C.ar      1 <1>        -0.0530
     21 C21        -1.2047    2.9744    0.1919 C.ar      1 <1>        -0.0411
     22 C22         4.7358    1.2657   -1.5510 C.ar      1 <1>        -0.0289
     23 C23         4.3790   -0.1990    0.1827 C.ar      1 <1>        -0.0289
     24 N1          5.2070    0.2574   -0.7835 N.ar      1 <1>        -0.3878
     25 I1         -3.0996    3.7763    0.4796 I         1 <1>        -0.1315
     26 H1          8.0802    2.9666   -5.3219 H         1 <1>         0.1165
     27 H2          6.3505   -4.1564    3.1406 H         1 <1>         0.1165
     28 H3          5.8623    2.0507   -5.9519 H         1 <1>         0.1187
     29 H4          8.7386    3.0888   -2.9321 H         1 <1>         0.1176
     30 H5          4.7246   -2.5624    4.1256 H         1 <1>         0.1176
     31 H6          7.0575   -3.9041    0.7750 H         1 <1>         0.1187
     32 H7          4.3049    1.2602   -4.2096 H         1 <1>         0.1408
     33 H8          7.1931    2.3021   -1.1770 H         1 <1>         0.1296
     34 H9          3.8047   -0.7247    2.7610 H         1 <1>         0.1296
     35 H10         6.1476   -2.0713   -0.6037 H         1 <1>         0.1408
     36 H11         1.8861    3.8735   -0.8899 H         1 <1>         0.1387
     37 H12         0.4881    0.0525    0.5479 H         1 <1>         0.1387
     38 H13        -0.3459    4.8202   -0.5529 H         1 <1>         0.1405
     39 H14        -1.7462    0.9943    0.8877 H         1 <1>         0.1405
     40 H15         3.1524    2.6449   -2.0447 H         1 <1>         0.1545
     41 H16         2.4836   -0.1001    1.2085 H         1 <1>         0.1545
@<TRIPOS>BOND
     1    1    3 ar
     2    1    4 ar
     3    2    5 ar
     4    2    6 ar
     5    3    7 ar
     6    4    8 ar
     7    5    9 ar
     8    6   10 ar
     9    7   18 ar
    10    8   18 ar
    11    9   19 ar
    12   10   19 ar
    13   11   13 ar
    14   11   17 ar
    15   12   14 ar
    16   12   17 ar
    17   13   21 ar
    18   14   21 ar
    19   15   20 ar
    20   15   22 ar
    21   16   20 ar
    22   16   23 ar
    23   17   20 1
    24   18   22 1
    25   19   23 1
    26   21   25 1
    27   22   24 ar
    28   23   24 ar
    29    1   26 1
    30    2   27 1
    31    3   28 1
    32    4   29 1
    33    5   30 1
    34    6   31 1
    35    7   32 1
    36    8   33 1
    37    9   34 1
    38   10   35 1
    39   11   36 1
    40   12   37 1
    41   13   38 1
    42   14   39 1
    43   15   40 1
    44   16   41 1
