@<TRIPOS>MOLECULE
AO-476/43380440
   38    41     0
SMALL
USER_CHARGE


@<TRIPOS>ATOM
      1 C1          5.8877   -3.4145    2.6512 C.ar      1 <1>        -0.0955
      2 C2          5.4918   -2.2189    3.2505 C.ar      1 <1>        -0.0913
      3 C3          5.7640   -3.5775    1.2713 C.ar      1 <1>        -0.0892
      4 C4         -1.0745    2.1642   -0.2416 C.2       1 <1>        -0.0794
      5 C5          4.9721   -1.1862    2.4701 C.ar      1 <1>        -0.0734
      6 C6          5.2444   -2.5448    0.4909 C.ar      1 <1>        -0.0694
      7 C7          0.0251    1.3706   -0.6786 C.2       1 <1>        -0.0726
      8 C8          3.0240    0.1901    0.5177 C.ar      1 <1>        -0.0236
      9 C9         -0.6884    3.1325    0.6590 C.2       1 <1>        -0.0494
     10 C10         3.3678    1.7352   -1.2775 C.ar      1 <1>         0.0325
     11 C11         4.8485   -1.3491    1.0902 C.ar      1 <1>        -0.0430
     12 C12         2.5295    1.2231   -0.2762 C.ar      1 <1>        -0.0081
     13 C13         3.2796    2.7416   -2.2718 C.2       1 <1>         0.0297
     14 C14         4.3098   -0.2783    0.2815 C.ar      1 <1>         0.0017
     15 C15         1.2102    1.7627   -0.0955 C.2       1 <1>        -0.0314
     16 C16         4.4835    2.7321   -2.9367 C.2       1 <1>         0.0844
     17 C17         4.6367    1.1733   -1.4072 C.ar      1 <1>         0.0835
     18 C18         4.9738    3.5139   -4.0221 C.2       1 <1>         0.0735
     19 C19         6.3756    3.2463   -4.5307 C.3       1 <1>         0.0285
     20 N1          5.1602    0.1766   -0.6678 N.ar      1 <1>        -0.3303
     21 N2          2.2349    3.5567   -2.5308 N.pl3     1 <1>        -0.3373
     22 O1          4.3540    4.4254   -4.6119 O.2       1 <1>        -0.5145
     23 O2          5.3119    1.7868   -2.4219 O.3       1 <1>        -0.3473
     24 S1          0.9939    3.0824    0.9740 S.3       1 <1>        -0.1713
     25 H1          6.2939   -4.2179    3.2588 H         1 <1>         0.1198
     26 H2          5.5895   -2.0912    4.3245 H         1 <1>         0.1199
     27 H3          6.0735   -4.5077    0.8038 H         1 <1>         0.1214
     28 H4         -2.0968    2.0323   -0.5711 H         1 <1>         0.1215
     29 H5          4.6680   -0.2599    2.9522 H         1 <1>         0.1353
     30 H6          5.1545   -2.6860   -0.5835 H         1 <1>         0.1468
     31 H7         -0.0572    0.5553   -1.3868 H         1 <1>         0.1320
     32 H8          2.4114   -0.2392    1.3070 H         1 <1>         0.1740
     33 H9         -1.3137    3.8672    1.1464 H         1 <1>         0.1784
     34 H10         6.4121    2.4910   -5.3315 H         1 <1>         0.1008
     35 H11         7.0632    2.9183   -3.7359 H         1 <1>         0.1113
     36 H12         6.8710    4.1268   -4.9777 H         1 <1>         0.1113
     37 H13         1.3410    3.4800   -2.0234 H         1 <1>         0.2547
     38 H14         2.2462    4.2309   -3.3102 H         1 <1>         0.2660
@<TRIPOS>BOND
     1    1    2 ar
     2    1    3 ar
     3    2    5 ar
     4    3    6 ar
     5    4    7 1
     6    4    9 2
     7    5   11 ar
     8    6   11 ar
     9    7   15 2
    10    8   12 ar
    11    8   14 ar
    12    9   24 1
    13   10   12 ar
    14   10   13 1
    15   10   17 ar
    16   11   14 1
    17   12   15 1
    18   13   16 2
    19   13   21 1
    20   14   20 ar
    21   15   24 1
    22   16   18 1
    23   16   23 1
    24   17   20 ar
    25   17   23 1
    26   18   19 1
    27   18   22 2
    28    1   25 1
    29    2   26 1
    30    3   27 1
    31    4   28 1
    32    5   29 1
    33    6   30 1
    34    7   31 1
    35    8   32 1
    36    9   33 1
    37   19   34 1
    38   19   35 1
    39   19   36 1
    40   21   37 1
    41   21   38 1
