@<TRIPOS>MOLECULE
AN-919/13952015
   39    41     0
SMALL
USER_CHARGE


@<TRIPOS>ATOM
      1 C1          3.1628    2.7422   -2.1467 C.1       1 <1>         0.0357
      2 C2          5.8741   -3.5138    2.7499 C.ar      1 <1>        -0.0963
      3 C3          4.9645   -2.5969    3.2767 C.ar      1 <1>        -0.0921
      4 C4          6.3005   -3.3919    1.4274 C.ar      1 <1>        -0.0908
      5 C5          4.4812   -1.5582    2.4811 C.ar      1 <1>        -0.0757
      6 C6          5.8172   -2.3532    0.6317 C.ar      1 <1>        -0.0730
      7 C7          0.2804    0.9407   -0.2040 C.ar      1 <1>        -0.0833
      8 C8          1.2588    3.1068    0.2294 C.ar      1 <1>        -0.0821
      9 C9         -0.9923    1.4760   -0.0068 C.ar      1 <1>        -0.0972
     10 C10        -0.0140    3.6422    0.4267 C.ar      1 <1>        -0.0967
     11 C11         3.1416    0.1644    0.5387 C.ar      1 <1>        -0.0242
     12 C12         3.5774    1.6727   -1.2833 C.ar      1 <1>         0.0956
     13 C13         1.4060    1.7560   -0.0859 C.ar      1 <1>        -0.0562
     14 C14         4.9075   -1.4363    1.1585 C.ar      1 <1>        -0.0500
     15 C15         2.7262    1.2006   -0.2903 C.ar      1 <1>         0.0063
     16 C16        -1.1397    2.8268    0.3085 C.ar      1 <1>        -0.1097
     17 C17         4.4074   -0.3612    0.3354 C.ar      1 <1>        -0.0139
     18 C18         4.8238    1.0798   -1.4048 C.ar      1 <1>         0.0484
     19 C19        -2.5004    3.3992    0.5197 C.3       1 <1>        -0.0424
     20 C20         5.0360    1.2757   -4.1306 C.3       1 <1>         0.0053
     21 N1          2.8277    3.6067   -2.8446 N.1       1 <1>        -0.3791
     22 N2          5.2622    0.0714   -0.6184 N.ar      1 <1>        -0.3602
     23 S1          6.0063    1.6047   -2.6451 S.3       1 <1>        -0.1546
     24 H1          6.2516   -4.3214    3.3702 H         1 <1>         0.1191
     25 H2          4.6337   -2.6907    4.3069 H         1 <1>         0.1197
     26 H3          7.0098   -4.1047    1.0169 H         1 <1>         0.1198
     27 H4          3.7727   -0.8513    2.9065 H         1 <1>         0.1345
     28 H5          6.1590   -2.2706   -0.3973 H         1 <1>         0.1422
     29 H6          0.3788   -0.1143   -0.4487 H         1 <1>         0.1274
     30 H7          2.1266    3.7554    0.3243 H         1 <1>         0.1322
     31 H8         -1.8637    0.8332   -0.0997 H         1 <1>         0.1206
     32 H9         -0.1194    4.6958    0.6714 H         1 <1>         0.1211
     33 H10         2.4959   -0.2224    1.3223 H         1 <1>         0.1718
     34 H11        -2.7893    3.3187    1.5749 H         1 <1>         0.0615
     35 H12        -2.5373    4.4571    0.2286 H         1 <1>         0.0591
     36 H13        -3.2512    2.8767   -0.0874 H         1 <1>         0.0589
     37 H14         5.6135    1.5435   -5.0187 H         1 <1>         0.0969
     38 H15         4.1167    1.8662   -4.1118 H         1 <1>         0.0969
     39 H16         4.7784    0.2148   -4.1782 H         1 <1>         0.1036
@<TRIPOS>BOND
     1    1   12 1
     2    1   21 3
     3    2    3 ar
     4    2    4 ar
     5    3    5 ar
     6    4    6 ar
     7    5   14 ar
     8    6   14 ar
     9    7    9 ar
    10    7   13 ar
    11    8   10 ar
    12    8   13 ar
    13    9   16 ar
    14   10   16 ar
    15   11   15 ar
    16   11   17 ar
    17   12   15 ar
    18   12   18 ar
    19   13   15 1
    20   14   17 1
    21   16   19 1
    22   17   22 ar
    23   18   22 ar
    24   18   23 1
    25   20   23 1
    26    2   24 1
    27    3   25 1
    28    4   26 1
    29    5   27 1
    30    6   28 1
    31    7   29 1
    32    8   30 1
    33    9   31 1
    34   10   32 1
    35   11   33 1
    36   19   34 1
    37   19   35 1
    38   19   36 1
    39   20   37 1
    40   20   38 1
    41   20   39 1
