@<TRIPOS>MOLECULE
AG-690/12404942
   38    41     0
SMALL
USER_CHARGE


@<TRIPOS>ATOM
      1 C1          4.5179   -1.5605    2.3882 C.ar      1 <1>        -0.0675
      2 C2          5.9067   -2.2379    0.5308 C.ar      1 <1>        -0.0718
      3 C3          0.9285    3.3660    0.4457 C.ar      1 <1>        -0.0738
      4 C4          0.3487    1.1285   -0.2572 C.ar      1 <1>        -0.0723
      5 C5          5.0427   -2.5979    3.1590 C.ar      1 <1>        -0.0902
      6 C6          6.4317   -3.2752    1.3017 C.ar      1 <1>        -0.0926
      7 C7         -0.4160    3.7327    0.3880 C.ar      1 <1>        -0.0664
      8 C8         -0.9959    1.4950   -0.3148 C.ar      1 <1>        -0.0658
      9 C9          4.1719    2.8221   -2.7810 C.2       1 <1>         0.0557
     10 C10         4.9500   -1.3807    1.0741 C.ar      1 <1>        -0.0414
     11 C11         1.3109    2.0639    0.1231 C.ar      1 <1>        -0.0602
     12 C12         5.9997   -3.4551    2.6159 C.ar      1 <1>        -0.1062
     13 C13        -1.3783    2.7972    0.0078 C.ar      1 <1>        -0.0367
     14 C14         4.6068    1.2477   -1.4441 C.2       1 <1>         0.0752
     15 C15         4.3899   -0.2717    0.2493 C.2       1 <1>         0.0005
     16 C16         2.9576    0.1839    0.5303 C.3       1 <1>         0.0389
     17 C17         2.7702    1.6661    0.1857 C.3       1 <1>         0.0584
     18 C18         6.5614   -4.5634    3.4408 C.3       1 <1>        -0.0409
     19 N1          5.0409    1.7896   -2.5676 N.2       1 <1>        -0.3130
     20 N2          3.2170    2.9735   -1.8631 N.2       1 <1>        -0.3206
     21 N3          5.1212    0.2329   -0.7032 N.2       1 <1>        -0.3239
     22 N4          3.4888    1.9416   -1.0515 N.pl3     1 <1>        -0.2906
     23 Br1        -3.1997    3.2948   -0.0707 Br        1 <1>        -0.1389
     24 H1          3.7727   -0.8980    2.8209 H         1 <1>         0.1515
     25 H2          6.2508   -2.1072   -0.4918 H         1 <1>         0.1394
     26 H3          1.6713    4.1015    0.7432 H         1 <1>         0.1342
     27 H4          0.6374    0.1119   -0.5111 H         1 <1>         0.1403
     28 H5          4.7007   -2.7305    4.1819 H         1 <1>         0.1241
     29 H6          7.1773   -3.9381    0.8707 H         1 <1>         0.1223
     30 H7         -0.6971    4.7517    0.6416 H         1 <1>         0.1425
     31 H8         -1.7332    0.7541   -0.6127 H         1 <1>         0.1436
     32 H9          4.2400    3.4840   -3.6315 H         1 <1>         0.3086
     33 H10         2.2424   -0.4515    0.0093 H         1 <1>         0.1351
     34 H11         2.8105    0.0508    1.6054 H         1 <1>         0.1424
     35 H12         3.2576    2.2842    0.9899 H         1 <1>         0.1758
     36 H13         5.9581   -5.4717    3.3217 H         1 <1>         0.0635
     37 H14         7.5951   -4.7917    3.1507 H         1 <1>         0.0605
     38 H15         6.5819   -4.2964    4.5054 H         1 <1>         0.0603
@<TRIPOS>BOND
     1    1    5 ar
     2    1   10 ar
     3    2    6 ar
     4    2   10 ar
     5    3    7 ar
     6    3   11 ar
     7    4    8 ar
     8    4   11 ar
     9    5   12 ar
    10    6   12 ar
    11    7   13 ar
    12    8   13 ar
    13    9   19 1
    14    9   20 2
    15   10   15 1
    16   11   17 1
    17   12   18 1
    18   13   23 1
    19   14   19 2
    20   14   21 1
    21   14   22 1
    22   15   16 1
    23   15   21 2
    24   16   17 1
    25   17   22 1
    26   20   22 1
    27    1   24 1
    28    2   25 1
    29    3   26 1
    30    4   27 1
    31    5   28 1
    32    6   29 1
    33    7   30 1
    34    8   31 1
    35    9   32 1
    36   16   33 1
    37   16   34 1
    38   17   35 1
    39   18   36 1
    40   18   37 1
    41   18   38 1
