@<TRIPOS>MOLECULE
AM-879/15041697
   38    40     0
SMALL
USER_CHARGE


@<TRIPOS>ATOM
      1 C1          3.1924    2.8501   -2.2813 C.1       1 <1>         0.0251
      2 C2          5.9162   -3.4056    2.6118 C.ar      1 <1>        -0.0971
      3 C3          5.0058   -2.4916    3.1420 C.ar      1 <1>        -0.0924
      4 C4          6.3397   -3.2807    1.2886 C.ar      1 <1>        -0.0911
      5 C5          0.0031    3.7477    0.3059 C.ar      1 <1>        -0.0826
      6 C6          4.5185   -1.4526    2.3489 C.ar      1 <1>        -0.0748
      7 C7          5.8526   -2.2417    0.4956 C.ar      1 <1>        -0.0719
      8 C8          1.2765    3.2146    0.1064 C.ar      1 <1>        -0.0769
      9 C9         -1.1212    2.9303    0.1896 C.ar      1 <1>        -0.0686
     10 C10         0.3013    1.0468   -0.3259 C.ar      1 <1>        -0.0485
     11 C11         3.1701    0.2727    0.4102 C.ar      1 <1>        -0.0271
     12 C12         3.5982    1.7838   -1.4113 C.ar      1 <1>         0.0885
     13 C13         4.9420   -1.3276    1.0257 C.ar      1 <1>        -0.0486
     14 C14         1.4257    1.8642   -0.2095 C.ar      1 <1>        -0.0424
     15 C15         2.7505    1.3086   -0.4169 C.ar      1 <1>         0.0081
     16 C16        -0.9721    1.5799   -0.1264 C.ar      1 <1>        -0.0355
     17 C17         4.4367   -0.2497    0.2036 C.ar      1 <1>        -0.0137
     18 C18         4.8457    1.1938   -1.5363 C.ar      1 <1>         0.0398
     19 C19        -1.8450   -0.5884   -0.5651 C.3       1 <1>         0.0106
     20 N1          2.8642    3.7126   -2.9851 N.1       1 <1>        -0.3928
     21 N2          5.2883    0.1856   -0.7518 N.ar      1 <1>        -0.3626
     22 N3          5.7251    1.6639   -2.5446 N.pl3     1 <1>        -0.3208
     23 O1         -2.0693    0.7825   -0.2397 O.3       1 <1>        -0.4631
     24 H1          6.2967   -4.2135    3.2300 H         1 <1>         0.1175
     25 H2          4.6772   -2.5877    4.1726 H         1 <1>         0.1184
     26 H3          7.0497   -3.9913    0.8756 H         1 <1>         0.1185
     27 H4         -0.1131    4.7992    0.5515 H         1 <1>         0.1287
     28 H5          3.8093   -0.7478    2.7768 H         1 <1>         0.1356
     29 H6          6.1922   -2.1567   -0.5339 H         1 <1>         0.1441
     30 H7          2.1431    3.8647    0.2007 H         1 <1>         0.1291
     31 H8         -2.1109    3.3508    0.3461 H         1 <1>         0.1274
     32 H9          0.4080   -0.0076   -0.5728 H         1 <1>         0.1506
     33 H10         2.5270   -0.1160    1.1951 H         1 <1>         0.1588
     34 H11        -2.8028   -1.1111   -0.6247 H         1 <1>         0.1327
     35 H12        -1.2145   -1.0470    0.2009 H         1 <1>         0.1088
     36 H13        -1.3401   -0.6462   -1.5323 H         1 <1>         0.1084
     37 H14         5.4064    2.3734   -3.1670 H         1 <1>         0.2793
     38 H15         6.6031    1.2093   -2.6657 H         1 <1>         0.2809
@<TRIPOS>BOND
     1    1   12 1
     2    1   20 3
     3    2    3 ar
     4    2    4 ar
     5    3    6 ar
     6    4    7 ar
     7    5    8 ar
     8    5    9 ar
     9    6   13 ar
    10    7   13 ar
    11    8   14 ar
    12    9   16 ar
    13   10   14 ar
    14   10   16 ar
    15   11   15 ar
    16   11   17 ar
    17   12   15 ar
    18   12   18 ar
    19   13   17 1
    20   14   15 1
    21   16   23 1
    22   17   21 ar
    23   18   21 ar
    24   18   22 1
    25   19   23 1
    26    2   24 1
    27    3   25 1
    28    4   26 1
    29    5   27 1
    30    6   28 1
    31    7   29 1
    32    8   30 1
    33    9   31 1
    34   10   32 1
    35   11   33 1
    36   19   34 1
    37   19   35 1
    38   19   36 1
    39   22   37 1
    40   22   38 1
