@<TRIPOS>MOLECULE
AG-401/43339472
   30    32     0
SMALL
USER_CHARGE


@<TRIPOS>ATOM
      1 C1          5.7901   -3.3472    2.6245 C.ar      1 <1>        -0.0942
      2 C2          6.2429   -3.2466    1.3090 C.ar      1 <1>        -0.0872
      3 C3          4.8880   -2.4086    3.1254 C.ar      1 <1>        -0.0870
      4 C4          5.7937   -2.2072    0.4945 C.ar      1 <1>        -0.0618
      5 C5          4.4388   -1.3693    2.3107 C.ar      1 <1>        -0.0613
      6 C6          1.2770    3.1223    0.2031 C.ar      1 <1>        -0.0457
      7 C7         -0.0049    3.6093    0.4581 C.ar      1 <1>        -0.0346
      8 C8          3.5611    1.8099   -1.4186 C.ar      1 <1>        -0.0293
      9 C9          0.3574    0.9318   -0.2367 C.ar      1 <1>        -0.0218
     10 C10         4.8104    1.2440   -1.5708 C.ar      1 <1>        -0.0123
     11 C11         4.8916   -1.2685    0.9953 C.ar      1 <1>        -0.0262
     12 C12         1.4582    1.7836   -0.1444 C.ar      1 <1>        -0.0257
     13 C13        -1.1056    2.7576    0.3658 C.ar      1 <1>         0.0275
     14 C14        -0.9246    1.4189    0.0184 C.ar      1 <1>         0.0307
     15 C15         2.7851    1.2804   -0.4078 C.ar      1 <1>        -0.0063
     16 C16         4.4258   -0.1907    0.1500 C.ar      1 <1>         0.0164
     17 N1          5.2768    0.2386   -0.8013 N.ar      1 <1>        -0.3670
     18 N2          3.1873    0.2761    0.3985 N.ar      1 <1>        -0.3590
     19 Cl1        -2.6677    3.4202    0.6972 Cl        1 <1>        -0.1546
     20 Cl2        -2.2487    0.3144   -0.1081 Cl        1 <1>        -0.1549
     21 H1          6.1385   -4.1577    3.2579 H         1 <1>         0.1200
     22 H2          6.9439   -3.9782    0.9184 H         1 <1>         0.1206
     23 H3          4.5339   -2.4873    4.1490 H         1 <1>         0.1210
     24 H4          6.1558   -2.1424   -0.5289 H         1 <1>         0.1481
     25 H5          3.7350   -0.6453    2.7148 H         1 <1>         0.1496
     26 H6          2.1250    3.7991    0.2768 H         1 <1>         0.1667
     27 H7         -0.1275    4.6557    0.7266 H         1 <1>         0.1618
     28 H8          3.2253    2.6163   -2.0585 H         1 <1>         0.1620
     29 H9          0.5005   -0.1121   -0.5091 H         1 <1>         0.1733
     30 H10         5.4917    1.5939   -2.3390 H         1 <1>         0.2314
@<TRIPOS>BOND
     1    1    2 ar
     2    1    3 ar
     3    2    4 ar
     4    3    5 ar
     5    4   11 ar
     6    5   11 ar
     7    6    7 ar
     8    6   12 ar
     9    7   13 ar
    10    8   10 ar
    11    8   15 ar
    12    9   12 ar
    13    9   14 ar
    14   10   17 ar
    15   11   16 1
    16   12   15 1
    17   13   14 ar
    18   13   19 1
    19   14   20 1
    20   15   18 ar
    21   16   17 ar
    22   16   18 ar
    23    1   21 1
    24    2   22 1
    25    3   23 1
    26    4   24 1
    27    5   25 1
    28    6   26 1
    29    7   27 1
    30    8   28 1
    31    9   29 1
    32   10   30 1
