@<TRIPOS>MOLECULE
AF-826/30392059
   38    40     0
SMALL
USER_CHARGE


@<TRIPOS>ATOM
      1 C1          1.0321    3.1751    0.5873 C.ar      1 <1>        -0.0527
      2 C2          0.0959    1.5616   -0.9482 C.ar      1 <1>        -0.0509
      3 C3         -0.2138    3.3166    1.1982 C.ar      1 <1>        -0.0504
      4 C4         -1.1500    1.7031   -0.3372 C.ar      1 <1>        -0.0489
      5 C5          3.4189    1.2100   -0.7038 C.ar      1 <1>         0.0395
      6 C6          1.1870    2.2977   -0.4861 C.ar      1 <1>        -0.0256
      7 C7          3.4247    0.2225    0.3310 C.2       1 <1>         0.0350
      8 C8         -1.3048    2.5806    0.7361 C.ar      1 <1>        -0.0098
      9 C9          2.4713    2.1523   -1.1164 C.ar      1 <1>         0.0262
     10 C10         4.6004   -0.4952    0.3688 C.2       1 <1>         0.1060
     11 C11         4.6135    1.1911   -1.4120 C.ar      1 <1>         0.0760
     12 C12         3.9418    2.8494   -2.7446 C.ar      1 <1>         0.0658
     13 C13         4.9906   -1.5543    1.2453 C.2       1 <1>         0.1524
     14 C14         3.0917   -3.0811    4.0165 C.3       1 <1>        -0.0293
     15 C15         5.9217    3.4214   -4.5519 C.3       1 <1>         0.0229
     16 C16         4.2882   -2.9105    3.1049 C.3       1 <1>         0.0297
     17 N1          2.7402    2.9795   -2.1491 N.ar      1 <1>        -0.3290
     18 N2          4.9339    1.9910   -2.4478 N.ar      1 <1>        -0.3154
     19 N3          2.3995   -0.0002    1.1906 N.pl3     1 <1>        -0.3394
     20 O1          6.0877   -2.1578    1.2108 O.2       1 <1>        -0.4703
     21 O2          4.0149   -1.8633    2.1676 O.3       1 <1>        -0.3914
     22 S1          5.7019    0.0123   -0.8375 S.3       1 <1>        -0.0340
     23 S2          4.2577    3.9615   -4.1051 S.3       1 <1>        -0.1154
     24 Cl1        -2.8420    2.7569    1.4895 Cl        1 <1>        -0.1770
     25 H1          1.8730    3.7558    0.9587 H         1 <1>         0.1539
     26 H2          0.2005    0.8742   -1.7845 H         1 <1>         0.1579
     27 H3         -0.3209    4.0053    2.0325 H         1 <1>         0.1494
     28 H4         -1.9918    1.1242   -0.7086 H         1 <1>         0.1515
     29 H5          2.8892   -2.1607    4.5710 H         1 <1>         0.0586
     30 H6          2.2010   -3.3489    3.4384 H         1 <1>         0.0585
     31 H7          3.2635   -3.8933    4.7307 H         1 <1>         0.0656
     32 H8          6.2899    4.0107   -5.3952 H         1 <1>         0.1074
     33 H9          5.9058    2.3659   -4.8345 H         1 <1>         0.1075
     34 H10         6.5954    3.5538   -3.7020 H         1 <1>         0.1195
     35 H11         4.4853   -3.8347    2.5533 H         1 <1>         0.1221
     36 H12         5.1769   -2.6422    3.6839 H         1 <1>         0.1221
     37 H13         1.5485    0.5755    1.1798 H         1 <1>         0.2596
     38 H14         2.4683   -0.6900    1.9489 H         1 <1>         0.2523
@<TRIPOS>BOND
     1    1    3 ar
     2    1    6 ar
     3    2    4 ar
     4    2    6 ar
     5    3    8 ar
     6    4    8 ar
     7    5    7 1
     8    5    9 ar
     9    5   11 ar
    10    6    9 1
    11    7   10 2
    12    7   19 1
    13    8   24 1
    14    9   17 ar
    15   10   13 1
    16   10   22 1
    17   11   18 ar
    18   11   22 1
    19   12   17 ar
    20   12   18 ar
    21   12   23 1
    22   13   20 2
    23   13   21 1
    24   14   16 1
    25   15   23 1
    26   16   21 1
    27    1   25 1
    28    2   26 1
    29    3   27 1
    30    4   28 1
    31   14   29 1
    32   14   30 1
    33   14   31 1
    34   15   32 1
    35   15   33 1
    36   15   34 1
    37   16   35 1
    38   16   36 1
    39   19   37 1
    40   19   38 1
