@<TRIPOS>MOLECULE
AE-848/34408043
   40    42     0
SMALL
USER_CHARGE


@<TRIPOS>ATOM
      1 C1          3.1625    2.7423   -2.1465 C.1       1 <1>         0.0353
      2 C2          5.8742   -3.5138    2.7499 C.ar      1 <1>        -0.0964
      3 C3          4.9646   -2.5969    3.2767 C.ar      1 <1>        -0.0922
      4 C4          6.3006   -3.3919    1.4273 C.ar      1 <1>        -0.0909
      5 C5          4.4811   -1.5582    2.4811 C.ar      1 <1>        -0.0757
      6 C6          5.8171   -2.3531    0.6317 C.ar      1 <1>        -0.0730
      7 C7          0.2805    0.9405   -0.2039 C.ar      1 <1>        -0.0658
      8 C8          1.2591    3.1066    0.2292 C.ar      1 <1>        -0.0699
      9 C9         -0.9923    1.4762   -0.0067 C.ar      1 <1>        -0.0573
     10 C10        -0.0137    3.6422    0.4264 C.ar      1 <1>        -0.0639
     11 C11         3.1415    0.1645    0.5388 C.ar      1 <1>        -0.0248
     12 C12         3.5771    1.6727   -1.2832 C.ar      1 <1>         0.0951
     13 C13         1.4061    1.7558   -0.0857 C.ar      1 <1>        -0.0500
     14 C14         4.9075   -1.4363    1.1584 C.ar      1 <1>        -0.0501
     15 C15         2.7260    1.2005   -0.2902 C.ar      1 <1>         0.0066
     16 C16        -1.1394    2.8269    0.3083 C.ar      1 <1>        -0.0365
     17 C17         4.4073   -0.3611    0.3355 C.ar      1 <1>        -0.0143
     18 C18         4.8235    1.0798   -1.4048 C.ar      1 <1>         0.0481
     19 C19        -2.4596    4.7378    0.8195 C.3       1 <1>         0.0113
     20 C20         5.5230    0.5057   -3.9920 C.3       1 <1>         0.0053
     21 N1          2.8274    3.6068   -2.8444 N.1       1 <1>        -0.3793
     22 N2          5.2621    0.0714   -0.6183 N.ar      1 <1>        -0.3605
     23 O1         -2.3812    3.3496    0.5000 O.3       1 <1>        -0.4626
     24 S1          6.0060    1.6049   -2.6451 S.3       1 <1>        -0.1547
     25 H1          6.2517   -4.3214    3.3701 H         1 <1>         0.1189
     26 H2          4.6338   -2.6908    4.3069 H         1 <1>         0.1194
     27 H3          7.0098   -4.1046    1.0169 H         1 <1>         0.1197
     28 H4          3.7727   -0.8514    2.9065 H         1 <1>         0.1345
     29 H5          6.1590   -2.2706   -0.3973 H         1 <1>         0.1422
     30 H6          0.3788   -0.1142   -0.4490 H         1 <1>         0.1426
     31 H7          2.1266    3.7551    0.3247 H         1 <1>         0.1405
     32 H8         -1.8655    0.8362   -0.1003 H         1 <1>         0.1468
     33 H9         -0.1222    4.6953    0.6714 H         1 <1>         0.1308
     34 H10         2.4958   -0.2225    1.3224 H         1 <1>         0.1711
     35 H11        -3.5063    5.0249    0.9462 H         1 <1>         0.1095
     36 H12        -2.0048    5.3237    0.0168 H         1 <1>         0.1098
     37 H13        -1.9190    4.9192    1.7516 H         1 <1>         0.1333
     38 H14         6.1554    0.6867   -4.8647 H         1 <1>         0.0969
     39 H15         4.4802    0.6877   -4.2638 H         1 <1>         0.1035
     40 H16         5.6344   -0.5355   -3.6796 H         1 <1>         0.0969
@<TRIPOS>BOND
     1    1   12 1
     2    1   21 3
     3    2    3 ar
     4    2    4 ar
     5    3    5 ar
     6    4    6 ar
     7    5   14 ar
     8    6   14 ar
     9    7    9 ar
    10    7   13 ar
    11    8   10 ar
    12    8   13 ar
    13    9   16 ar
    14   10   16 ar
    15   11   15 ar
    16   11   17 ar
    17   12   15 ar
    18   12   18 ar
    19   13   15 1
    20   14   17 1
    21   16   23 1
    22   17   22 ar
    23   18   22 ar
    24   18   24 1
    25   19   23 1
    26   20   24 1
    27    2   25 1
    28    3   26 1
    29    4   27 1
    30    5   28 1
    31    6   29 1
    32    7   30 1
    33    8   31 1
    34    9   32 1
    35   10   33 1
    36   11   34 1
    37   19   35 1
    38   19   36 1
    39   19   37 1
    40   20   38 1
    41   20   39 1
    42   20   40 1
