@<TRIPOS>MOLECULE
AS-938/12583062
   43    46     0
SMALL
USER_CHARGE


@<TRIPOS>ATOM
      1 C1          0.2028    1.2169   -0.4611 C.ar      1 <1>        -0.0552
      2 C2          0.7151    3.5055    0.1196 C.ar      1 <1>        -0.0557
      3 C3          4.8830   -2.4425    3.1568 C.ar      1 <1>        -0.0815
      4 C4          6.2635   -3.3181    1.3778 C.ar      1 <1>        -0.0834
      5 C5          4.4679   -1.4039    2.3234 C.ar      1 <1>        -0.0542
      6 C6          5.8482   -2.2795    0.5444 C.ar      1 <1>        -0.0581
      7 C7         -1.0493    1.3447    0.1401 C.ar      1 <1>        -0.0544
      8 C8         -0.5371    3.6333    0.7207 C.ar      1 <1>        -0.0586
      9 C9          3.3239    0.3397    0.2471 C.2       1 <1>         0.0186
     10 C10         3.3726    1.2720   -0.7483 C.ar      1 <1>         0.0324
     11 C11         1.0851    2.2973   -0.4712 C.ar      1 <1>        -0.0273
     12 C12         5.7810   -3.3995    2.6840 C.ar      1 <1>        -0.1010
     13 C13         4.6625    1.1541   -1.3822 C.ar      1 <1>         0.0457
     14 C14         4.9504   -1.3223    1.0173 C.ar      1 <1>        -0.0186
     15 C15        -1.4193    2.5529    0.7309 C.ar      1 <1>        -0.0349
     16 C16         2.3687    2.1665   -1.0875 C.ar      1 <1>         0.0332
     17 C17         4.9995    1.9956   -2.4523 C.ar      1 <1>         0.0248
     18 C18         6.2249   -4.5101    3.5749 C.3       1 <1>        -0.0399
     19 C19         6.2790    1.9963   -3.2046 C.3       1 <1>         0.0125
     20 C20        -3.4938    1.5335    1.2909 C.3       1 <1>         0.0113
     21 N1          5.3604    0.1771   -0.7779 N.2       1 <1>        -0.3238
     22 N2          2.7246    2.9675   -2.1270 N.ar      1 <1>        -0.3073
     23 N3          4.0218    2.8807   -2.7975 N.ar      1 <1>        -0.3078
     24 N4          4.5362   -0.2846    0.1841 N.pl3     1 <1>        -0.3028
     25 O1         -2.6413    2.6775    1.3169 O.3       1 <1>        -0.4625
     26 H1          0.4767    0.2688   -0.9176 H         1 <1>         0.1472
     27 H2          1.3916    4.3568    0.1199 H         1 <1>         0.1537
     28 H3          4.5024   -2.4988    4.1731 H         1 <1>         0.1348
     29 H4          6.9633   -4.0592    1.0010 H         1 <1>         0.1340
     30 H5          3.7682   -0.6638    2.7047 H         1 <1>         0.1583
     31 H6          6.2329   -2.2283   -0.4713 H         1 <1>         0.1469
     32 H7         -1.7325    0.4997    0.1447 H         1 <1>         0.1463
     33 H8         -0.8199    4.5769    1.1794 H         1 <1>         0.1330
     34 H9          2.5677    0.0673    0.9723 H         1 <1>         0.2518
     35 H10         5.5522   -5.3709    3.4766 H         1 <1>         0.0634
     36 H11         7.2442   -4.8352    3.3289 H         1 <1>         0.0606
     37 H12         6.2369   -4.1963    4.6270 H         1 <1>         0.0606
     38 H13         6.2262    1.3112   -4.0627 H         1 <1>         0.1027
     39 H14         6.5266    2.9996   -3.5825 H         1 <1>         0.1031
     40 H15         7.1226    1.6855   -2.5700 H         1 <1>         0.0996
     41 H16        -4.4360    1.7689    1.7918 H         1 <1>         0.1330
     42 H17        -3.0000    0.6985    1.7940 H         1 <1>         0.1096
     43 H18        -3.6941    1.2632    0.2513 H         1 <1>         0.1099
@<TRIPOS>BOND
     1    1    7 ar
     2    1   11 ar
     3    2    8 ar
     4    2   11 ar
     5    3    5 ar
     6    3   12 ar
     7    4    6 ar
     8    4   12 ar
     9    5   14 ar
    10    6   14 ar
    11    7   15 ar
    12    8   15 ar
    13    9   10 2
    14    9   24 1
    15   10   13 ar
    16   10   16 ar
    17   11   16 1
    18   12   18 1
    19   13   17 ar
    20   13   21 2
    21   14   24 1
    22   15   25 1
    23   16   22 ar
    24   17   19 1
    25   17   23 ar
    26   20   25 1
    27   21   24 1
    28   22   23 ar
    29    1   26 1
    30    2   27 1
    31    3   28 1
    32    4   29 1
    33    5   30 1
    34    6   31 1
    35    7   32 1
    36    8   33 1
    37    9   34 1
    38   18   35 1
    39   18   36 1
    40   18   37 1
    41   19   38 1
    42   19   39 1
    43   19   40 1
    44   20   41 1
    45   20   42 1
    46   20   43 1
