@<TRIPOS>MOLECULE
AI-211/36556007
   36    38     0
SMALL
USER_CHARGE


@<TRIPOS>ATOM
      1 C1          3.0979    2.9096   -2.2872 C.1       1 <1>         0.0471
      2 C2          5.9158   -3.3454    2.5488 C.ar      1 <1>        -0.0955
      3 C3          5.0017   -2.4435    3.0932 C.ar      1 <1>        -0.0912
      4 C4          6.3253   -3.2086    1.2224 C.ar      1 <1>        -0.0900
      5 C5          4.4971   -1.4044    2.3112 C.ar      1 <1>        -0.0743
      6 C6          5.8205   -2.1695    0.4404 C.ar      1 <1>        -0.0716
      7 C7          1.1906    3.2452    0.1242 C.ar      1 <1>        -0.0554
      8 C8         -0.0851    3.7672    0.3379 C.ar      1 <1>        -0.0382
      9 C9          0.2287    1.0717   -0.3089 C.ar      1 <1>        -0.0269
     10 C10         3.1136    0.3193    0.3964 C.ar      1 <1>        -0.0186
     11 C11         3.5079    1.8436   -1.4216 C.ar      1 <1>         0.1223
     12 C12         4.9065   -1.2675    0.9848 C.ar      1 <1>        -0.0470
     13 C13         1.3475    1.8974   -0.1992 C.ar      1 <1>        -0.0290
     14 C14         2.6752    1.3551   -0.4210 C.ar      1 <1>         0.0236
     15 C15        -1.2039    2.9416    0.2282 C.ar      1 <1>         0.0268
     16 C16        -1.0470    1.5937   -0.0951 C.ar      1 <1>         0.0295
     17 C17         4.3831   -0.1896    0.1742 C.ar      1 <1>        -0.0039
     18 C18         4.7599    1.2667   -1.5624 C.ar      1 <1>         0.0948
     19 C19         6.5013    2.7672   -2.1717 C.3       1 <1>         0.0347
     20 N1          2.7659    3.7728   -2.9881 N.1       1 <1>        -0.3783
     21 N2          5.2204    0.2591   -0.7876 N.ar      1 <1>        -0.3349
     22 O1          5.6191    1.7125   -2.5340 O.3       1 <1>        -0.4078
     23 Cl1        -2.7570    3.6470    0.5083 Cl        1 <1>        -0.1541
     24 Cl2        -2.3945    0.5204   -0.2414 Cl        1 <1>        -0.1537
     25 H1          6.3099   -4.1535    3.1583 H         1 <1>         0.1201
     26 H2          4.6841   -2.5489    4.1264 H         1 <1>         0.1205
     27 H3          7.0379   -3.9097    0.7983 H         1 <1>         0.1205
     28 H4          3.7855   -0.7091    2.7502 H         1 <1>         0.1361
     29 H5          6.1495   -2.0751   -0.5918 H         1 <1>         0.1437
     30 H6          2.0530    3.9021    0.2111 H         1 <1>         0.1506
     31 H7         -0.1885    4.8203    0.5883 H         1 <1>         0.1614
     32 H8          0.3528    0.0206   -0.5626 H         1 <1>         0.1714
     33 H9          2.4819   -0.0801    1.1854 H         1 <1>         0.1709
     34 H10         7.1288    3.0285   -3.0274 H         1 <1>         0.1256
     35 H11         7.1251    2.4496   -1.3324 H         1 <1>         0.1256
     36 H12         5.9117    3.6381   -1.8757 H         1 <1>         0.1450
@<TRIPOS>BOND
     1    1   11 1
     2    1   20 3
     3    2    3 ar
     4    2    4 ar
     5    3    5 ar
     6    4    6 ar
     7    5   12 ar
     8    6   12 ar
     9    7    8 ar
    10    7   13 ar
    11    8   15 ar
    12    9   13 ar
    13    9   16 ar
    14   10   14 ar
    15   10   17 ar
    16   11   14 ar
    17   11   18 ar
    18   12   17 1
    19   13   14 1
    20   15   16 ar
    21   15   23 1
    22   16   24 1
    23   17   21 ar
    24   18   21 ar
    25   18   22 1
    26   19   22 1
    27    2   25 1
    28    3   26 1
    29    4   27 1
    30    5   28 1
    31    6   29 1
    32    7   30 1
    33    8   31 1
    34    9   32 1
    35   10   33 1
    36   19   34 1
    37   19   35 1
    38   19   36 1
