@<TRIPOS>MOLECULE
AG-205/36992102
   42    45     0
SMALL
USER_CHARGE


@<TRIPOS>ATOM
      1 C1          5.3283   -2.8170    2.8614 C.2       1 <1>        -0.0733
      2 C2          0.1458    0.9692   -0.1531 C.ar      1 <1>        -0.0598
      3 C3          1.1171    3.1388    0.2789 C.ar      1 <1>        -0.0601
      4 C4         -1.1283    1.4990    0.0511 C.ar      1 <1>        -0.0299
      5 C5         -0.1571    3.6686    0.4831 C.ar      1 <1>        -0.0299
      6 C6          4.5954   -1.6750    2.4266 C.2       1 <1>        -0.0582
      7 C7          3.0553    0.2036    0.5504 C.ar      1 <1>        -0.0261
      8 C8          6.1229   -3.3334    1.8617 C.2       1 <1>        -0.0417
      9 C9          3.4239    1.7432   -1.2678 C.ar      1 <1>         0.0120
     10 C10         1.2685    1.7890   -0.0391 C.ar      1 <1>        -0.0551
     11 C11         2.5875    1.2406   -0.2504 C.ar      1 <1>        -0.0250
     12 C12         3.2474    2.7796   -2.2399 C.2       1 <1>         0.0220
     13 C13        -1.2797    2.8485    0.3692 C.ar      1 <1>         0.0476
     14 C14         4.3258   -0.2889    0.3099 C.ar      1 <1>         0.0086
     15 C15         4.8580   -1.3622    1.1108 C.2       1 <1>        -0.0081
     16 C16         4.3482    2.9351   -3.0533 C.2       1 <1>         0.0985
     17 C17         4.6771    1.1536   -1.3972 C.ar      1 <1>         0.0579
     18 C18         4.5601    3.8507   -4.1301 C.2       1 <1>         0.1490
     19 C19         2.3449    4.1526   -6.3950 C.3       1 <1>        -0.0295
     20 C20         3.2437    5.1382   -5.6789 C.3       1 <1>         0.0293
     21 N1          5.1734    0.1482   -0.6461 N.ar      1 <1>        -0.3428
     22 N2          2.1308    3.5393   -2.3677 N.pl3     1 <1>        -0.3436
     23 O1          5.6001    3.9261   -4.8241 O.2       1 <1>        -0.4722
     24 O2          3.4762    4.6734   -4.3450 O.3       1 <1>        -0.3922
     25 F1         -2.5032    3.3573    0.5651 F         1 <1>        -0.3379
     26 S1          5.9836   -2.4428    0.4058 S.3       1 <1>        -0.1516
     27 S2          5.5998    1.8399   -2.6565 S.3       1 <1>        -0.0447
     28 H1          5.2762   -3.2381    3.8570 H         1 <1>         0.1213
     29 H2          0.2474   -0.0850   -0.4002 H         1 <1>         0.1489
     30 H3          1.9824    3.7909    0.3712 H         1 <1>         0.1481
     31 H4         -2.0026    0.8607   -0.0374 H         1 <1>         0.1560
     32 H5         -0.2757    4.7193    0.7305 H         1 <1>         0.1566
     33 H6          3.9126   -1.1158    3.0543 H         1 <1>         0.1438
     34 H7          2.4369   -0.2077    1.3441 H         1 <1>         0.1713
     35 H8          6.7788   -4.1908    1.9170 H         1 <1>         0.1814
     36 H9          2.8115    3.1648   -6.4460 H         1 <1>         0.0585
     37 H10         1.3828    4.0631   -5.8801 H         1 <1>         0.0585
     38 H11         2.1305    4.4950   -7.4127 H         1 <1>         0.0653
     39 H12         2.7712    6.1239   -5.6315 H         1 <1>         0.1216
     40 H13         4.2048    5.2258   -6.1942 H         1 <1>         0.1216
     41 H14         1.2989    3.3818   -1.7858 H         1 <1>         0.2555
     42 H15         2.0348    4.2398   -3.1128 H         1 <1>         0.2484
@<TRIPOS>BOND
     1    1    6 1
     2    1    8 2
     3    2    4 ar
     4    2   10 ar
     5    3    5 ar
     6    3   10 ar
     7    4   13 ar
     8    5   13 ar
     9    6   15 2
    10    7   11 ar
    11    7   14 ar
    12    8   26 1
    13    9   11 ar
    14    9   12 1
    15    9   17 ar
    16   10   11 1
    17   12   16 2
    18   12   22 1
    19   13   25 1
    20   14   15 1
    21   14   21 ar
    22   15   26 1
    23   16   18 1
    24   16   27 1
    25   17   21 ar
    26   17   27 1
    27   18   23 2
    28   18   24 1
    29   19   20 1
    30   20   24 1
    31    1   28 1
    32    2   29 1
    33    3   30 1
    34    4   31 1
    35    5   32 1
    36    6   33 1
    37    7   34 1
    38    8   35 1
    39   19   36 1
    40   19   37 1
    41   19   38 1
    42   20   39 1
    43   20   40 1
    44   22   41 1
    45   22   42 1
