@<TRIPOS>MOLECULE
AG-205/36992071
   42    45     0
SMALL
USER_CHARGE


@<TRIPOS>ATOM
      1 C1          5.3278   -2.8170    2.8615 C.2       1 <1>        -0.0732
      2 C2          0.1457    0.9693   -0.1534 C.ar      1 <1>        -0.0682
      3 C3          1.1170    3.1387    0.2790 C.ar      1 <1>        -0.0685
      4 C4         -1.1283    1.4989    0.0510 C.ar      1 <1>        -0.0564
      5 C5         -0.1570    3.6684    0.4835 C.ar      1 <1>        -0.0564
      6 C6          4.5950   -1.6751    2.4265 C.2       1 <1>        -0.0582
      7 C7          3.0553    0.2035    0.5502 C.ar      1 <1>        -0.0258
      8 C8          6.1225   -3.3335    1.8619 C.2       1 <1>        -0.0417
      9 C9          3.4240    1.7432   -1.2679 C.ar      1 <1>         0.0123
     10 C10         1.2685    1.7891   -0.0394 C.ar      1 <1>        -0.0578
     11 C11         2.5875    1.2407   -0.2505 C.ar      1 <1>        -0.0248
     12 C12         3.2476    2.7796   -2.2399 C.2       1 <1>         0.0222
     13 C13        -1.2797    2.8486    0.3695 C.ar      1 <1>        -0.0143
     14 C14         4.3257   -0.2889    0.3098 C.ar      1 <1>         0.0088
     15 C15         4.8578   -1.3622    1.1108 C.2       1 <1>        -0.0081
     16 C16         4.3485    2.9351   -3.0532 C.2       1 <1>         0.0986
     17 C17         4.6772    1.1536   -1.3972 C.ar      1 <1>         0.0582
     18 C18         4.5606    3.8508   -4.1299 C.2       1 <1>         0.1491
     19 C19         2.3456    4.1527   -6.3951 C.3       1 <1>        -0.0295
     20 C20         3.2443    5.1383   -5.6790 C.3       1 <1>         0.0293
     21 N1          5.1733    0.1482   -0.6460 N.ar      1 <1>        -0.3426
     22 N2          2.1311    3.5393   -2.3679 N.pl3     1 <1>        -0.3435
     23 O1          5.6005    3.9261   -4.8240 O.2       1 <1>        -0.4721
     24 O2          3.4767    4.6735   -4.3450 O.3       1 <1>        -0.3922
     25 S1          5.9835   -2.4429    0.4058 S.3       1 <1>        -0.1515
     26 S2          5.6000    1.8399   -2.6562 S.3       1 <1>        -0.0446
     27 Cl1        -2.8520    3.5010    0.6231 Cl        1 <1>        -0.1804
     28 H1          5.2756   -3.2381    3.8570 H         1 <1>         0.1213
     29 H2          0.2474   -0.0847   -0.4008 H         1 <1>         0.1450
     30 H3          1.9826    3.7904    0.3724 H         1 <1>         0.1442
     31 H4         -1.9947    0.8483   -0.0391 H         1 <1>         0.1466
     32 H5         -0.2599    4.7216    0.7323 H         1 <1>         0.1473
     33 H6          3.9122   -1.1159    3.0542 H         1 <1>         0.1439
     34 H7          2.4366   -0.2077    1.3439 H         1 <1>         0.1715
     35 H8          6.7784   -4.1908    1.9171 H         1 <1>         0.1815
     36 H9          2.8121    3.1650   -6.4460 H         1 <1>         0.0585
     37 H10         1.3834    4.0632   -5.8803 H         1 <1>         0.0585
     38 H11         2.1313    4.4951   -7.4129 H         1 <1>         0.0653
     39 H12         2.7718    6.1241   -5.6315 H         1 <1>         0.1216
     40 H13         4.2055    5.2259   -6.1941 H         1 <1>         0.1216
     41 H14         1.2991    3.3818   -1.7861 H         1 <1>         0.2557
     42 H15         2.0352    4.2399   -3.1130 H         1 <1>         0.2486
@<TRIPOS>BOND
     1    1    6 1
     2    1    8 2
     3    2    4 ar
     4    2   10 ar
     5    3    5 ar
     6    3   10 ar
     7    4   13 ar
     8    5   13 ar
     9    6   15 2
    10    7   11 ar
    11    7   14 ar
    12    8   25 1
    13    9   11 ar
    14    9   12 1
    15    9   17 ar
    16   10   11 1
    17   12   16 2
    18   12   22 1
    19   13   27 1
    20   14   15 1
    21   14   21 ar
    22   15   25 1
    23   16   18 1
    24   16   26 1
    25   17   21 ar
    26   17   26 1
    27   18   23 2
    28   18   24 1
    29   19   20 1
    30   20   24 1
    31    1   28 1
    32    2   29 1
    33    3   30 1
    34    4   31 1
    35    5   32 1
    36    6   33 1
    37    7   34 1
    38    8   35 1
    39   19   36 1
    40   19   37 1
    41   19   38 1
    42   20   39 1
    43   20   40 1
    44   22   41 1
    45   22   42 1
