@<TRIPOS>MOLECULE
AG-690/40749964
   45    47     0
SMALL
USER_CHARGE


@<TRIPOS>ATOM
      1 C1          3.1630    2.7420   -2.1470 C.1       1 <1>         0.0363
      2 C2          5.0286   -1.2607    2.5372 C.ar      1 <1>        -0.0724
      3 C3          5.2699   -2.6504    0.5757 C.ar      1 <1>        -0.0752
      4 C4          0.2803    0.9407   -0.2042 C.ar      1 <1>        -0.0667
      5 C5          1.2587    3.1067    0.2294 C.ar      1 <1>        -0.0653
      6 C6          5.5118   -2.2997    3.3327 C.ar      1 <1>        -0.0935
      7 C7          5.7530   -3.6894    1.3712 C.ar      1 <1>        -0.0947
      8 C8         -0.9924    1.4761   -0.0067 C.ar      1 <1>        -0.0562
      9 C9         -0.0140    3.6421    0.4269 C.ar      1 <1>        -0.0556
     10 C10         3.1416    0.1646    0.5386 C.ar      1 <1>        -0.0230
     11 C11         3.5775    1.6727   -1.2834 C.ar      1 <1>         0.0971
     12 C12         1.4060    1.7560   -0.0861 C.ar      1 <1>        -0.0468
     13 C13         4.9077   -1.4362    1.1587 C.ar      1 <1>        -0.0489
     14 C14         2.7263    1.2005   -0.2905 C.ar      1 <1>         0.0093
     15 C15         5.8740   -3.5140    2.7497 C.ar      1 <1>        -0.1087
     16 C16        -1.1397    2.8268    0.3088 C.ar      1 <1>        -0.0144
     17 C17         4.4073   -0.3611    0.3355 C.ar      1 <1>        -0.0124
     18 C18         4.8238    1.0797   -1.4048 C.ar      1 <1>         0.0499
     19 C19         6.3904   -4.6249    3.6003 C.3       1 <1>        -0.0425
     20 C20         6.8065    2.8553   -0.3583 C.3       1 <1>        -0.0445
     21 C21         8.1573    0.8774   -1.1356 C.3       1 <1>        -0.0429
     22 C22         7.3611    2.1046   -1.5631 C.3       1 <1>        -0.0051
     23 N1          2.8280    3.6065   -2.8449 N.1       1 <1>        -0.3786
     24 N2          5.2623    0.0714   -0.6183 N.ar      1 <1>        -0.3581
     25 S1          6.0064    1.6046   -2.6452 S.3       1 <1>        -0.1575
     26 Cl1        -2.7104    3.4863    0.5539 Cl        1 <1>        -0.1814
     27 H1          4.7498   -0.3204    3.0067 H         1 <1>         0.1440
     28 H2          5.1819   -2.8024   -0.4975 H         1 <1>         0.1359
     29 H3          0.3789   -0.1141   -0.4495 H         1 <1>         0.1407
     30 H4          2.1266    3.7550    0.3258 H         1 <1>         0.1459
     31 H5          5.6017   -2.1545    4.4060 H         1 <1>         0.1201
     32 H6          6.0334   -4.6320    0.9085 H         1 <1>         0.1201
     33 H7         -1.8611    0.8289   -0.1000 H         1 <1>         0.1468
     34 H8         -0.1138    4.6963    0.6735 H         1 <1>         0.1474
     35 H9          2.4959   -0.2224    1.3223 H         1 <1>         0.1724
     36 H10         5.5635   -5.2570    3.9463 H         1 <1>         0.0615
     37 H11         7.1007   -5.2531    3.0473 H         1 <1>         0.0588
     38 H12         6.9246   -4.2391    4.4785 H         1 <1>         0.0586
     39 H13         6.1516    2.2019    0.2289 H         1 <1>         0.0470
     40 H14         7.6101    3.1928    0.3056 H         1 <1>         0.0538
     41 H15         6.2169    3.7294   -0.6573 H         1 <1>         0.0442
     42 H16         7.5231    0.1936   -0.5604 H         1 <1>         0.0492
     43 H17         9.0028    1.1535   -0.4958 H         1 <1>         0.0558
     44 H18         8.5446    0.3210   -1.9967 H         1 <1>         0.0492
     45 H19         8.0119    2.7740   -2.1355 H         1 <1>         0.1002
@<TRIPOS>BOND
     1    1   11 1
     2    1   23 3
     3    2    6 ar
     4    2   13 ar
     5    3    7 ar
     6    3   13 ar
     7    4    8 ar
     8    4   12 ar
     9    5    9 ar
    10    5   12 ar
    11    6   15 ar
    12    7   15 ar
    13    8   16 ar
    14    9   16 ar
    15   10   14 ar
    16   10   17 ar
    17   11   14 ar
    18   11   18 ar
    19   12   14 1
    20   13   17 1
    21   15   19 1
    22   16   26 1
    23   17   24 ar
    24   18   24 ar
    25   18   25 1
    26   20   22 1
    27   21   22 1
    28   22   25 1
    29    2   27 1
    30    3   28 1
    31    4   29 1
    32    5   30 1
    33    6   31 1
    34    7   32 1
    35    8   33 1
    36    9   34 1
    37   10   35 1
    38   19   36 1
    39   19   37 1
    40   19   38 1
    41   20   39 1
    42   20   40 1
    43   20   41 1
    44   21   42 1
    45   21   43 1
    46   21   44 1
    47   22   45 1
