@<TRIPOS>MOLECULE
AG-205/33140043
   49    53     0
SMALL
USER_CHARGE


@<TRIPOS>ATOM
      1 C1          5.8673   -3.4441    2.6781 C.ar      1 <1>        -0.0958
      2 C2          5.4970   -2.2396    3.2763 C.ar      1 <1>        -0.0917
      3 C3          5.7301   -3.6095    1.2999 C.ar      1 <1>        -0.0898
      4 C4          4.9895   -1.2007    2.4962 C.ar      1 <1>        -0.0745
      5 C5          5.2224   -2.5705    0.5199 C.ar      1 <1>        -0.0709
      6 C6          0.1456    0.9691   -0.1527 C.ar      1 <1>        -0.0686
      7 C7          1.1171    3.1387    0.2788 C.ar      1 <1>        -0.0735
      8 C8         -1.1283    1.4991    0.0511 C.ar      1 <1>        -0.0583
      9 C9         -0.1569    3.6686    0.4827 C.ar      1 <1>        -0.0652
     10 C10         3.0558    0.2035    0.5506 C.ar      1 <1>        -0.0352
     11 C11         3.4238    1.7431   -1.2676 C.ar      1 <1>        -0.0005
     12 C12         1.2684    1.7890   -0.0390 C.ar      1 <1>        -0.0629
     13 C13         4.8521   -1.3660    1.1180 C.ar      1 <1>        -0.0471
     14 C14         2.5876    1.2404   -0.2500 C.ar      1 <1>        -0.0329
     15 C15         3.2471    2.7795   -2.2397 C.2       1 <1>        -0.0007
     16 C16        -1.2797    2.8488    0.3688 C.ar      1 <1>        -0.0371
     17 C17         4.3262   -0.2889    0.3099 C.ar      1 <1>        -0.0116
     18 C18         4.3476    2.9350   -3.0533 C.2       1 <1>         0.0456
     19 C19         4.6770    1.1536   -1.3972 C.ar      1 <1>         0.0416
     20 C20         4.5596    3.8505   -4.1300 C.2       1 <1>         0.0476
     21 C21         2.9607    5.7526   -4.8892 C.3       1 <1>        -0.0294
     22 C22         3.5748    5.1803   -6.1331 C.3       1 <1>        -0.0296
     23 C23         3.3604    4.3069   -4.9318 C.3       1 <1>         0.0121
     24 C24        -2.6055    4.7534    0.8891 C.3       1 <1>         0.0116
     25 N1          5.1735    0.1482   -0.6462 N.ar      1 <1>        -0.3557
     26 N2          2.1304    3.5391   -2.3677 N.pl3     1 <1>        -0.3488
     27 O1          5.6595    4.3186   -4.4869 O.2       1 <1>        -0.5266
     28 O2         -2.5229    3.3658    0.5670 O.3       1 <1>        -0.4626
     29 S1          5.5994    1.8400   -2.6567 S.3       1 <1>        -0.0779
     30 H1          6.2640   -4.2522    3.2854 H         1 <1>         0.1197
     31 H2          5.6054   -2.1100    4.3492 H         1 <1>         0.1196
     32 H3          6.0195   -4.5466    0.8333 H         1 <1>         0.1210
     33 H4          4.7055   -0.2676    2.9775 H         1 <1>         0.1347
     34 H5          5.1218   -2.7138   -0.5533 H         1 <1>         0.1450
     35 H6          0.2474   -0.0849   -0.3999 H         1 <1>         0.1451
     36 H7          1.9826    3.7907    0.3711 H         1 <1>         0.1388
     37 H8         -1.9993    0.8555   -0.0392 H         1 <1>         0.1463
     38 H9         -0.2688    4.7209    0.7298 H         1 <1>         0.1296
     39 H10         2.4376   -0.2079    1.3444 H         1 <1>         0.1657
     40 H11         3.5641    6.4279   -4.2949 H         1 <1>         0.0677
     41 H12         1.9067    6.0012   -4.9170 H         1 <1>         0.0670
     42 H13         2.9326    5.0475   -6.9953 H         1 <1>         0.0676
     43 H14         4.5912    5.4685   -6.3725 H         1 <1>         0.0661
     44 H15         2.5563    3.5815   -4.9935 H         1 <1>         0.0994
     45 H16        -3.6529    5.0358    1.0212 H         1 <1>         0.1339
     46 H17        -2.1570    5.3421    0.0850 H         1 <1>         0.1099
     47 H18        -2.0612    4.9356    1.8187 H         1 <1>         0.1100
     48 H19         1.2986    3.3818   -1.7858 H         1 <1>         0.2478
     49 H20         2.0346    4.2397   -3.1129 H         1 <1>         0.2532
@<TRIPOS>BOND
     1    1    2 ar
     2    1    3 ar
     3    2    4 ar
     4    3    5 ar
     5    4   13 ar
     6    5   13 ar
     7    6    8 ar
     8    6   12 ar
     9    7    9 ar
    10    7   12 ar
    11    8   16 ar
    12    9   16 ar
    13   10   14 ar
    14   10   17 ar
    15   11   14 ar
    16   11   15 1
    17   11   19 ar
    18   12   14 1
    19   13   17 1
    20   15   18 2
    21   15   26 1
    22   16   28 1
    23   17   25 ar
    24   18   20 1
    25   18   29 1
    26   19   25 ar
    27   19   29 1
    28   20   23 1
    29   20   27 2
    30   21   22 1
    31   21   23 1
    32   22   23 1
    33   24   28 1
    34    1   30 1
    35    2   31 1
    36    3   32 1
    37    4   33 1
    38    5   34 1
    39    6   35 1
    40    7   36 1
    41    8   37 1
    42    9   38 1
    43   10   39 1
    44   21   40 1
    45   21   41 1
    46   22   42 1
    47   22   43 1
    48   23   44 1
    49   24   45 1
    50   24   46 1
    51   24   47 1
    52   26   48 1
    53   26   49 1
