@<TRIPOS>MOLECULE
AO-081/15246973
   43    46     0
SMALL
USER_CHARGE


@<TRIPOS>ATOM
      1 C1          5.9443   -3.0837    2.2602 C.ar      1 <1>        -0.0915
      2 C2          6.1329   -2.7968    0.9082 C.ar      1 <1>        -0.0819
      3 C3          5.0108   -2.3610    3.0030 C.ar      1 <1>        -0.0826
      4 C4         -0.3238    1.2807   -0.4508 C.ar      1 <1>        -0.0703
      5 C5          0.5942    2.8919    1.0979 C.ar      1 <1>        -0.0706
      6 C6         -1.5893    1.8441   -0.2869 C.ar      1 <1>        -0.0927
      7 C7         -0.6713    3.4554    1.2618 C.ar      1 <1>        -0.0930
      8 C8          5.3878   -1.7871    0.2991 C.ar      1 <1>        -0.0556
      9 C9          4.2658   -1.3513    2.3938 C.ar      1 <1>        -0.0565
     10 C10         4.4071    2.4843   -2.6228 C.ar      1 <1>        -0.0643
     11 C11         3.0526    1.5795   -0.8789 C.ar      1 <1>         0.0072
     12 C12         0.7679    1.8046    0.2416 C.ar      1 <1>        -0.0345
     13 C13        -1.7629    2.9314    0.5694 C.ar      1 <1>        -0.1081
     14 C14         3.2000    2.4999   -1.9239 C.ar      1 <1>        -0.0581
     15 C15         4.4543   -1.0642    1.0419 C.ar      1 <1>        -0.0122
     16 C16         2.0753    1.2227    0.0714 C.2       1 <1>         0.0255
     17 C17         5.3874    1.5699   -2.2522 C.ar      1 <1>        -0.0481
     18 C18         4.1097    0.7228   -0.6140 C.ar      1 <1>         0.0348
     19 C19        -3.1161    3.5339    0.7429 C.3       1 <1>        -0.0425
     20 C20         2.1452    3.4803   -2.3184 C.3       1 <1>        -0.0243
     21 C21         6.6759    1.5648   -3.0113 C.3       1 <1>        -0.0102
     22 N1          2.4704    0.2276    0.8725 N.2       1 <1>        -0.3180
     23 N2          5.2921    0.6618   -1.2509 N.ar      1 <1>        -0.3741
     24 N3          3.7098   -0.0551    0.4322 N.pl3     1 <1>        -0.2878
     25 H1          6.5229   -3.8710    2.7344 H         1 <1>         0.1190
     26 H2          6.8587   -3.3603    0.3294 H         1 <1>         0.1289
     27 H3          4.8635   -2.5860    4.0555 H         1 <1>         0.1277
     28 H4         -0.2053    0.4330   -1.1215 H         1 <1>         0.1389
     29 H5          1.4353    3.3118    1.6447 H         1 <1>         0.1389
     30 H6         -2.4343    1.4305   -0.8307 H         1 <1>         0.1218
     31 H7         -0.7983    4.3025    1.9307 H         1 <1>         0.1217
     32 H8          5.5439   -1.5741   -0.7556 H         1 <1>         0.1497
     33 H9          3.5409   -0.7960    2.9844 H         1 <1>         0.1475
     34 H10         4.5782    3.1766   -3.4425 H         1 <1>         0.1393
     35 H11        -3.6495    3.0444    1.5670 H         1 <1>         0.0611
     36 H12        -3.0493    4.6077    0.9609 H         1 <1>         0.0586
     37 H13        -3.7176    3.4321   -0.1700 H         1 <1>         0.0585
     38 H14         1.4859    3.0445   -3.0781 H         1 <1>         0.0758
     39 H15         1.5359    3.7763   -1.4553 H         1 <1>         0.0716
     40 H16         2.5885    4.3979   -2.7253 H         1 <1>         0.0742
     41 H17         7.3922    2.2495   -2.5443 H         1 <1>         0.0934
     42 H18         7.1148    0.5606   -3.0365 H         1 <1>         0.0912
     43 H19         6.5217    1.8738   -4.0518 H         1 <1>         0.0919
@<TRIPOS>BOND
     1    1    2 ar
     2    1    3 ar
     3    2    8 ar
     4    3    9 ar
     5    4    6 ar
     6    4   12 ar
     7    5    7 ar
     8    5   12 ar
     9    6   13 ar
    10    7   13 ar
    11    8   15 ar
    12    9   15 ar
    13   10   14 ar
    14   10   17 ar
    15   11   14 ar
    16   11   16 1
    17   11   18 ar
    18   12   16 1
    19   13   19 1
    20   14   20 1
    21   15   24 1
    22   16   22 2
    23   17   21 1
    24   17   23 ar
    25   18   23 ar
    26   18   24 1
    27   22   24 1
    28    1   25 1
    29    2   26 1
    30    3   27 1
    31    4   28 1
    32    5   29 1
    33    6   30 1
    34    7   31 1
    35    8   32 1
    36    9   33 1
    37   10   34 1
    38   19   35 1
    39   19   36 1
    40   19   37 1
    41   20   38 1
    42   20   39 1
    43   20   40 1
    44   21   41 1
    45   21   42 1
    46   21   43 1
