@<TRIPOS>MOLECULE
AG-690/11481222
   39    41     0
SMALL
USER_CHARGE


@<TRIPOS>ATOM
      1 C1          3.0966    2.9091   -2.2867 C.1       1 <1>         0.0464
      2 C2          5.9137   -3.3432    2.5478 C.ar      1 <1>        -0.0957
      3 C3          5.0001   -2.4409    3.0924 C.ar      1 <1>        -0.0914
      4 C4          6.3228   -3.2067    1.2212 C.ar      1 <1>        -0.0902
      5 C5          4.4954   -1.4019    2.3103 C.ar      1 <1>        -0.0745
      6 C6          5.8180   -2.1678    0.4392 C.ar      1 <1>        -0.0718
      7 C7          0.2325    1.0697   -0.3084 C.ar      1 <1>        -0.0678
      8 C8          1.1934    3.2438    0.1244 C.ar      1 <1>        -0.0663
      9 C9         -1.0435    1.5912   -0.0951 C.ar      1 <1>        -0.0641
     10 C10        -0.0826    3.7653    0.3379 C.ar      1 <1>        -0.0635
     11 C11         3.1127    0.3192    0.3975 C.ar      1 <1>        -0.0200
     12 C12         3.5067    1.8432   -1.4210 C.ar      1 <1>         0.1213
     13 C13         1.3510    1.8960   -0.1986 C.ar      1 <1>        -0.0437
     14 C14         4.9044   -1.2654    0.9837 C.ar      1 <1>        -0.0474
     15 C15         2.6743    1.3550   -0.4200 C.ar      1 <1>         0.0197
     16 C16        -1.2011    2.9389    0.2281 C.ar      1 <1>        -0.0354
     17 C17         4.3820   -0.1898    0.1747 C.ar      1 <1>        -0.0047
     18 C18         4.7585    1.2661   -1.5622 C.ar      1 <1>         0.0941
     19 C19         7.8039    0.7835   -2.2601 C.3       1 <1>        -0.0295
     20 C20         6.5254    0.7572   -3.0705 C.3       1 <1>         0.0259
     21 N1          2.7644    3.7723   -2.9876 N.1       1 <1>        -0.3792
     22 N2          5.2191    0.2585   -0.7874 N.ar      1 <1>        -0.3355
     23 O1          5.6174    1.7113   -2.5341 O.3       1 <1>        -0.4109
     24 Br1        -2.9297    3.6464    0.5164 Br        1 <1>        -0.1381
     25 H1          6.3078   -4.1511    3.1574 H         1 <1>         0.1198
     26 H2          4.6828   -2.5460    4.1257 H         1 <1>         0.1202
     27 H3          7.0351   -3.9081    0.7970 H         1 <1>         0.1203
     28 H4          3.7839   -0.7064    2.7495 H         1 <1>         0.1359
     29 H5          6.1466   -2.0735   -0.5931 H         1 <1>         0.1435
     30 H6          0.3391    0.0171   -0.5596 H         1 <1>         0.1409
     31 H7          2.0553    3.9008    0.2129 H         1 <1>         0.1462
     32 H8         -1.9047    0.9341   -0.1851 H         1 <1>         0.1449
     33 H9         -0.1882    4.8173    0.5888 H         1 <1>         0.1455
     34 H10         2.4812   -0.0799    1.1867 H         1 <1>         0.1696
     35 H11         8.2713    1.7713   -2.3007 H         1 <1>         0.0671
     36 H12         7.6032    0.5300   -1.2141 H         1 <1>         0.0582
     37 H13         8.5147    0.0405   -2.6368 H         1 <1>         0.0582
     38 H14         6.0631   -0.2334   -3.0256 H         1 <1>         0.1260
     39 H15         6.7277    1.0114   -4.1152 H         1 <1>         0.1260
@<TRIPOS>BOND
     1    1   12 1
     2    1   21 3
     3    2    3 ar
     4    2    4 ar
     5    3    5 ar
     6    4    6 ar
     7    5   14 ar
     8    6   14 ar
     9    7    9 ar
    10    7   13 ar
    11    8   10 ar
    12    8   13 ar
    13    9   16 ar
    14   10   16 ar
    15   11   15 ar
    16   11   17 ar
    17   12   15 ar
    18   12   18 ar
    19   13   15 1
    20   14   17 1
    21   16   24 1
    22   17   22 ar
    23   18   22 ar
    24   18   23 1
    25   19   20 1
    26   20   23 1
    27    2   25 1
    28    3   26 1
    29    4   27 1
    30    5   28 1
    31    6   29 1
    32    7   30 1
    33    8   31 1
    34    9   32 1
    35   10   33 1
    36   11   34 1
    37   19   35 1
    38   19   36 1
    39   19   37 1
    40   20   38 1
    41   20   39 1
