@<TRIPOS>MOLECULE
AK-777/36504058
   45    49     0
SMALL
USER_CHARGE


@<TRIPOS>ATOM
      1 C1          5.8670   -3.4442    2.6780 C.ar      1 <1>        -0.0954
      2 C2          5.4967   -2.2399    3.2762 C.ar      1 <1>        -0.0895
      3 C3          5.7298   -3.6096    1.2998 C.ar      1 <1>        -0.0915
      4 C4          4.9893   -1.2008    2.4962 C.ar      1 <1>        -0.0707
      5 C5          5.2222   -2.5706    0.5197 C.ar      1 <1>        -0.0744
      6 C6          1.0904    2.8592    0.8377 C.ar      1 <1>        -0.0605
      7 C7          0.1725    1.2486   -0.7117 C.ar      1 <1>        -0.0608
      8 C8         -0.1837    3.3892    1.0416 C.ar      1 <1>        -0.0303
      9 C9         -1.1016    1.7785   -0.5079 C.ar      1 <1>        -0.0303
     10 C10         3.0557    0.2035    0.5505 C.ar      1 <1>        -0.0337
     11 C11         3.4239    1.7431   -1.2677 C.ar      1 <1>         0.0008
     12 C12         1.2684    1.7890   -0.0390 C.ar      1 <1>        -0.0569
     13 C13         4.8519   -1.3662    1.1180 C.ar      1 <1>        -0.0467
     14 C14         2.5875    1.2405   -0.2501 C.ar      1 <1>        -0.0305
     15 C15         3.2471    2.7795   -2.2396 C.2       1 <1>        -0.0002
     16 C16        -1.2797    2.8487    0.3690 C.ar      1 <1>         0.0472
     17 C17         4.3261   -0.2890    0.3099 C.ar      1 <1>        -0.0106
     18 C18         4.3478    2.9351   -3.0532 C.2       1 <1>         0.0468
     19 C19         4.6770    1.1535   -1.3972 C.ar      1 <1>         0.0430
     20 C20         4.5598    3.8506   -4.1299 C.2       1 <1>         0.0487
     21 C21         6.0586    2.8253   -5.9881 C.3       1 <1>        -0.0293
     22 C22         5.9486    4.2930   -6.2807 C.3       1 <1>        -0.0294
     23 C23         5.8820    3.8033   -4.8638 C.3       1 <1>         0.0125
     24 N1          5.1734    0.1482   -0.6462 N.ar      1 <1>        -0.3545
     25 N2          2.1306    3.5393   -2.3676 N.pl3     1 <1>        -0.3490
     26 O1          3.7476    4.7079   -4.5321 O.2       1 <1>        -0.5255
     27 F1         -2.5032    3.3577    0.5648 F         1 <1>        -0.3383
     28 S1          5.5995    1.8400   -2.6566 S.3       1 <1>        -0.0761
     29 H1          6.2637   -4.2525    3.2853 H         1 <1>         0.1202
     30 H2          5.6050   -2.1103    4.3491 H         1 <1>         0.1214
     31 H3          6.0192   -4.5468    0.8331 H         1 <1>         0.1200
     32 H4          4.7053   -0.2678    2.9775 H         1 <1>         0.1454
     33 H5          5.1216   -2.7139   -0.5534 H         1 <1>         0.1346
     34 H6          1.9347    3.2916    1.3695 H         1 <1>         0.1481
     35 H7          0.2950    0.4143   -1.3982 H         1 <1>         0.1475
     36 H8         -0.3227    4.2225    1.7240 H         1 <1>         0.1556
     37 H9         -1.9555    1.3583   -1.0311 H         1 <1>         0.1561
     38 H10         2.4374   -0.2080    1.3442 H         1 <1>         0.1672
     39 H11         5.2169    2.1956   -6.2489 H         1 <1>         0.0678
     40 H12         7.0261    2.3568   -6.1220 H         1 <1>         0.0672
     41 H13         6.8420    4.8077   -6.6128 H         1 <1>         0.0678
     42 H14         5.0322    4.6496   -6.7349 H         1 <1>         0.0664
     43 H15         6.7504    3.9910   -4.2416 H         1 <1>         0.0995
     44 H16         1.2987    3.3819   -1.7858 H         1 <1>         0.2464
     45 H17         2.0348    4.2398   -3.1129 H         1 <1>         0.2535
@<TRIPOS>BOND
     1    1    2 ar
     2    1    3 ar
     3    2    4 ar
     4    3    5 ar
     5    4   13 ar
     6    5   13 ar
     7    6    8 ar
     8    6   12 ar
     9    7    9 ar
    10    7   12 ar
    11    8   16 ar
    12    9   16 ar
    13   10   14 ar
    14   10   17 ar
    15   11   14 ar
    16   11   15 1
    17   11   19 ar
    18   12   14 1
    19   13   17 1
    20   15   18 2
    21   15   25 1
    22   16   27 1
    23   17   24 ar
    24   18   20 1
    25   18   28 1
    26   19   24 ar
    27   19   28 1
    28   20   23 1
    29   20   26 2
    30   21   22 1
    31   21   23 1
    32   22   23 1
    33    1   29 1
    34    2   30 1
    35    3   31 1
    36    4   32 1
    37    5   33 1
    38    6   34 1
    39    7   35 1
    40    8   36 1
    41    9   37 1
    42   10   38 1
    43   21   39 1
    44   21   40 1
    45   22   41 1
    46   22   42 1
    47   23   43 1
    48   25   44 1
    49   25   45 1
