@<TRIPOS>MOLECULE
AM-807/41930361
   40    44     0
SMALL
USER_CHARGE


@<TRIPOS>ATOM
      1 C1          5.8516   -3.4418    2.6871 C.ar      1 <1>        -0.0990
      2 C2          5.4832   -2.2356    3.2826 C.ar      1 <1>        -0.0922
      3 C3          5.7168   -3.6089    1.3088 C.ar      1 <1>        -0.0943
      4 C4          4.9797   -1.1965    2.5000 C.ar      1 <1>        -0.0727
      5 C5          5.2135   -2.5699    0.5261 C.ar      1 <1>        -0.0765
      6 C6          1.0890    2.8603    0.8379 C.ar      1 <1>        -0.0704
      7 C7          0.1720    1.2491   -0.7115 C.ar      1 <1>        -0.0703
      8 C8         -0.1858    3.3876    1.0438 C.ar      1 <1>        -0.0563
      9 C9         -1.1028    1.7766   -0.5055 C.ar      1 <1>        -0.0572
     10 C10         3.0533    0.2089    0.5489 C.ar      1 <1>        -0.0375
     11 C11         3.4249    1.7460   -1.2711 C.ar      1 <1>         0.0085
     12 C12         1.2680    1.7909   -0.0398 C.ar      1 <1>        -0.0614
     13 C13         4.8449   -1.3637    1.1218 C.ar      1 <1>        -0.0494
     14 C14         2.5871    1.2455   -0.2534 C.ar      1 <1>        -0.0318
     15 C15         3.2752    2.7706   -2.2479 C.2       1 <1>         0.0195
     16 C16        -1.2816    2.8459    0.3722 C.ar      1 <1>        -0.0152
     17 C17         4.3232   -0.2863    0.3109 C.ar      1 <1>        -0.0143
     18 C18         4.3785    2.9157   -3.0543 C.2       1 <1>         0.0528
     19 C19         4.6809    1.1519   -1.3983 C.ar      1 <1>         0.0459
     20 C20         3.2213    4.7430   -4.2677 C.2       1 <1>        -0.0240
     21 C21         4.4534    3.8933   -4.1165 C.2       1 <1>         0.0435
     22 C22         2.1587    4.5585   -3.4436 C.2       1 <1>        -0.0342
     23 N1          5.1731    0.1467   -0.6444 N.ar      1 <1>        -0.3565
     24 N2          2.2006    3.5760   -2.4469 N.pl3     1 <1>        -0.3282
     25 O1          1.0528    5.1611   -3.4119 O.3       1 <1>        -0.5164
     26 O2          5.4102    4.0641   -4.8655 O.2       1 <1>        -0.5639
     27 S1          5.6165    1.8322   -2.6616 S.3       1 <1>        -0.0706
     28 Cl1        -2.8539    3.4983    0.6257 Cl        1 <1>        -0.1831
     29 H1          6.2453   -4.2501    3.2964 H         1 <1>         0.1139
     30 H2          5.5896   -2.1047    4.3556 H         1 <1>         0.1177
     31 H3          6.0050   -4.5474    0.8442 H         1 <1>         0.1160
     32 H4          4.6969   -0.2621    2.9793 H         1 <1>         0.1440
     33 H5          5.1147   -2.7146   -0.5470 H         1 <1>         0.1328
     34 H6          1.9334    3.2936    1.3687 H         1 <1>         0.1403
     35 H7          0.2954    0.4160   -1.3996 H         1 <1>         0.1420
     36 H8         -0.3107    4.2224    1.7293 H         1 <1>         0.1501
     37 H9         -1.9475    1.3452   -1.0366 H         1 <1>         0.1461
     38 H10         2.4341   -0.2007    1.3432 H         1 <1>         0.1615
     39 H11         3.2280    5.4925   -5.0528 H         1 <1>         0.1319
     40 H12         1.3565    3.5209   -1.8871 H         1 <1>         0.3086
@<TRIPOS>BOND
     1    1    2 ar
     2    1    3 ar
     3    2    4 ar
     4    3    5 ar
     5    4   13 ar
     6    5   13 ar
     7    6    8 ar
     8    6   12 ar
     9    7    9 ar
    10    7   12 ar
    11    8   16 ar
    12    9   16 ar
    13   10   14 ar
    14   10   17 ar
    15   11   14 ar
    16   11   15 1
    17   11   19 ar
    18   12   14 1
    19   13   17 1
    20   15   18 2
    21   15   24 1
    22   16   28 1
    23   17   23 ar
    24   18   21 1
    25   18   27 1
    26   19   23 ar
    27   19   27 1
    28   20   21 1
    29   20   22 2
    30   21   26 2
    31   22   24 1
    32   22   25 1
    33    1   29 1
    34    2   30 1
    35    3   31 1
    36    4   32 1
    37    5   33 1
    38    6   34 1
    39    7   35 1
    40    8   36 1
    41    9   37 1
    42   10   38 1
    43   20   39 1
    44   24   40 1
