@<TRIPOS>MOLECULE
AI-060/41884474
   39    42     0
SMALL
USER_CHARGE


@<TRIPOS>ATOM
      1 C1          5.0701   -1.1962    2.4464 C.ar      1 <1>        -0.0711
      2 C2          5.3251   -2.6157    0.5082 C.ar      1 <1>        -0.0762
      3 C3          1.3910    2.9209    0.5983 C.ar      1 <1>        -0.0614
      4 C4          0.4711    1.3081   -0.9477 C.ar      1 <1>        -0.0690
      5 C5          5.5102   -2.2357    3.2656 C.ar      1 <1>        -0.0949
      6 C6          5.7654   -3.6553    1.3274 C.ar      1 <1>        -0.0979
      7 C7          0.1206    3.4658    0.7857 C.ar      1 <1>        -0.0568
      8 C8         -0.7992    1.8530   -0.7603 C.ar      1 <1>        -0.0625
      9 C9          3.2636    0.2452    0.3877 C.ar      1 <1>        -0.0358
     10 C10         1.5660    1.8421   -0.2684 C.ar      1 <1>        -0.0498
     11 C11         4.9774   -1.3862    1.0676 C.ar      1 <1>        -0.0480
     12 C12         2.8869    1.2760   -0.4638 C.ar      1 <1>        -0.0085
     13 C13         3.7804    1.7048   -1.4419 C.ar      1 <1>         0.0580
     14 C14         5.8579   -3.4652    2.7063 C.ar      1 <1>        -0.1117
     15 C15        -0.9744    2.9318    0.1065 C.ar      1 <1>        -0.0216
     16 C16         4.5216   -0.3102    0.2196 C.ar      1 <1>        -0.0124
     17 C17         5.0277    1.0919   -1.5432 C.ar      1 <1>         0.0512
     18 C18         3.4401    2.7945   -2.3757 C.2       1 <1>         0.1070
     19 C19         5.6628    2.4347   -3.3195 C.2       1 <1>        -0.0322
     20 C20         6.3283   -4.5767    3.5823 C.3       1 <1>        -0.0450
     21 N1          5.4092    0.0865   -0.7216 N.ar      1 <1>        -0.3519
     22 N2          5.9790    1.4751   -2.5070 N.2       1 <1>        -0.3569
     23 N3          4.4447    3.0922   -3.2821 N.am      1 <1>        -0.2831
     24 O1          2.3687    3.3884   -2.3610 O.2       1 <1>        -0.5053
     25 S1          6.9250    2.8783   -4.5288 S.3       1 <1>        -0.3382
     26 Cl1        -2.5413    3.6056    0.3373 Cl        1 <1>        -0.1943
     27 H1          4.8020   -0.2438    2.8976 H         1 <1>         0.1484
     28 H2          5.2590   -2.7791   -0.5649 H         1 <1>         0.1340
     29 H3          2.2347    3.3482    1.1347 H         1 <1>         0.1550
     30 H4          0.5916    0.4679   -1.6274 H         1 <1>         0.1386
     31 H5          5.5781   -2.0790    4.3390 H         1 <1>         0.1171
     32 H6          6.0347   -4.6099    0.8830 H         1 <1>         0.1139
     33 H7         -0.0014    4.3076    1.4627 H         1 <1>         0.1410
     34 H8         -1.6435    1.4275   -1.2969 H         1 <1>         0.1347
     35 H9          2.5945   -0.1186    1.1630 H         1 <1>         0.1472
     36 H10         5.4791   -5.1856    3.9161 H         1 <1>         0.0552
     37 H11         7.0367   -5.2279    3.0540 H         1 <1>         0.0571
     38 H12         6.8504   -4.1922    4.4682 H         1 <1>         0.0571
     39 H13         4.2782    3.8321   -3.9577 H         1 <1>         0.3688
@<TRIPOS>BOND
     1    1    5 ar
     2    1   11 ar
     3    2    6 ar
     4    2   11 ar
     5    3    7 ar
     6    3   10 ar
     7    4    8 ar
     8    4   10 ar
     9    5   14 ar
    10    6   14 ar
    11    7   15 ar
    12    8   15 ar
    13    9   12 ar
    14    9   16 ar
    15   10   12 1
    16   11   16 1
    17   12   13 ar
    18   13   17 ar
    19   13   18 1
    20   14   20 1
    21   15   26 1
    22   16   21 ar
    23   17   21 ar
    24   17   22 1
    25   18   23 am
    26   18   24 2
    27   19   22 2
    28   19   23 1
    29   19   25 1
    30    1   27 1
    31    2   28 1
    32    3   29 1
    33    4   30 1
    34    5   31 1
    35    6   32 1
    36    7   33 1
    37    8   34 1
    38    9   35 1
    39   20   36 1
    40   20   37 1
    41   20   38 1
    42   23   39 1
