@<TRIPOS>MOLECULE
AS-938/12583061
   42    45     0
SMALL
USER_CHARGE


@<TRIPOS>ATOM
      1 C1          0.4705    1.1846    0.1031 C.ar      1 <1>        -0.0678
      2 C2          0.4474    3.5376   -0.4444 C.ar      1 <1>        -0.0727
      3 C3         -0.7816    1.3120    0.7044 C.ar      1 <1>        -0.0913
      4 C4         -0.8047    3.6652    0.1571 C.ar      1 <1>        -0.0943
      5 C5          4.8830   -2.4425    3.1568 C.ar      1 <1>        -0.0834
      6 C6          6.2635   -3.3181    1.3778 C.ar      1 <1>        -0.0814
      7 C7          4.4679   -1.4039    2.3234 C.ar      1 <1>        -0.0582
      8 C8          5.8482   -2.2795    0.5444 C.ar      1 <1>        -0.0542
      9 C9          3.3239    0.3397    0.2471 C.2       1 <1>         0.0189
     10 C10         3.3726    1.2720   -0.7483 C.ar      1 <1>         0.0329
     11 C11         1.0851    2.2973   -0.4712 C.ar      1 <1>        -0.0336
     12 C12        -1.4192    2.5524    0.7314 C.ar      1 <1>        -0.1080
     13 C13         5.7810   -3.3995    2.6840 C.ar      1 <1>        -0.1010
     14 C14         4.6625    1.1541   -1.3822 C.ar      1 <1>         0.0462
     15 C15         4.9504   -1.3223    1.0173 C.ar      1 <1>        -0.0186
     16 C16         2.3687    2.1665   -1.0875 C.ar      1 <1>         0.0331
     17 C17         4.9995    1.9956   -2.4523 C.ar      1 <1>         0.0253
     18 C18        -2.7579    2.6890    1.3746 C.3       1 <1>        -0.0423
     19 C19         6.2249   -4.5101    3.5749 C.3       1 <1>        -0.0398
     20 C20         6.2790    1.9963   -3.2046 C.3       1 <1>         0.0128
     21 N1          5.3604    0.1771   -0.7779 N.2       1 <1>        -0.3236
     22 N2          2.7246    2.9675   -2.1270 N.ar      1 <1>        -0.3063
     23 N3          4.0218    2.8807   -2.7975 N.ar      1 <1>        -0.3070
     24 N4          4.5362   -0.2846    0.1841 N.pl3     1 <1>        -0.3027
     25 H1          0.9550    0.2111    0.0906 H         1 <1>         0.1454
     26 H2          0.9133    4.4142   -0.8883 H         1 <1>         0.1318
     27 H3         -1.2524    0.4401    1.1504 H         1 <1>         0.1234
     28 H4         -1.2946    4.6353    0.1730 H         1 <1>         0.1200
     29 H5          4.5024   -2.4988    4.1731 H         1 <1>         0.1340
     30 H6          6.9633   -4.0592    1.0010 H         1 <1>         0.1349
     31 H7          3.7682   -0.6638    2.7047 H         1 <1>         0.1467
     32 H8          6.2329   -2.2283   -0.4713 H         1 <1>         0.1584
     33 H9          2.5677    0.0673    0.9723 H         1 <1>         0.2520
     34 H10        -2.6474    2.9374    2.4373 H         1 <1>         0.0613
     35 H11        -3.3528    3.4759    0.8932 H         1 <1>         0.0591
     36 H12        -3.3358    1.7591    1.2927 H         1 <1>         0.0585
     37 H13         5.5522   -5.3709    3.4766 H         1 <1>         0.0635
     38 H14         7.2442   -4.8352    3.3289 H         1 <1>         0.0608
     39 H15         6.2369   -4.1963    4.6270 H         1 <1>         0.0607
     40 H16         6.2262    1.3112   -4.0627 H         1 <1>         0.1031
     41 H17         6.5266    2.9996   -3.5825 H         1 <1>         0.1035
     42 H18         7.1226    1.6855   -2.5700 H         1 <1>         0.0999
@<TRIPOS>BOND
     1    1    3 ar
     2    1   11 ar
     3    2    4 ar
     4    2   11 ar
     5    3   12 ar
     6    4   12 ar
     7    5    7 ar
     8    5   13 ar
     9    6    8 ar
    10    6   13 ar
    11    7   15 ar
    12    8   15 ar
    13    9   10 2
    14    9   24 1
    15   10   14 ar
    16   10   16 ar
    17   11   16 1
    18   12   18 1
    19   13   19 1
    20   14   17 ar
    21   14   21 2
    22   15   24 1
    23   16   22 ar
    24   17   20 1
    25   17   23 ar
    26   21   24 1
    27   22   23 ar
    28    1   25 1
    29    2   26 1
    30    3   27 1
    31    4   28 1
    32    5   29 1
    33    6   30 1
    34    7   31 1
    35    8   32 1
    36    9   33 1
    37   18   34 1
    38   18   35 1
    39   18   36 1
    40   19   37 1
    41   19   38 1
    42   19   39 1
    43   20   40 1
    44   20   41 1
    45   20   42 1
