@<TRIPOS>MOLECULE
AG-690/36427043
   39    41     0
SMALL
USER_CHARGE


@<TRIPOS>ATOM
      1 C1          3.1628    2.7421   -2.1467 C.1       1 <1>         0.0359
      2 C2         -1.1398    2.8268    0.3082 C.ar      1 <1>        -0.0969
      3 C3          5.8745   -3.5138    2.7498 C.ar      1 <1>        -0.0962
      4 C4         -0.9923    1.4760   -0.0069 C.ar      1 <1>        -0.0938
      5 C5         -0.0143    3.6424    0.4262 C.ar      1 <1>        -0.0943
      6 C6          5.5121   -2.2995    3.3327 C.ar      1 <1>        -0.0920
      7 C7          5.7534   -3.6894    1.3714 C.ar      1 <1>        -0.0908
      8 C8          0.2805    0.9407   -0.2037 C.ar      1 <1>        -0.0823
      9 C9          1.2586    3.1070    0.2293 C.ar      1 <1>        -0.0836
     10 C10         5.0286   -1.2608    2.5370 C.ar      1 <1>        -0.0756
     11 C11         5.2699   -2.6508    0.5757 C.ar      1 <1>        -0.0730
     12 C12         3.1415    0.1645    0.5388 C.ar      1 <1>        -0.0241
     13 C13         3.5773    1.6727   -1.2832 C.ar      1 <1>         0.0958
     14 C14         1.4061    1.7562   -0.0856 C.ar      1 <1>        -0.0567
     15 C15         4.9074   -1.4365    1.1586 C.ar      1 <1>        -0.0499
     16 C16         2.7262    1.2007   -0.2902 C.ar      1 <1>         0.0063
     17 C17         4.4073   -0.3612    0.3356 C.ar      1 <1>        -0.0137
     18 C18         4.8237    1.0796   -1.4049 C.ar      1 <1>         0.0485
     19 C19         4.4589    1.1560   -4.8554 C.3       1 <1>        -0.0418
     20 C20         5.5228    0.5051   -3.9922 C.3       1 <1>         0.0000
     21 N1          2.8278    3.6066   -2.8445 N.1       1 <1>        -0.3790
     22 N2          5.2621    0.0712   -0.6184 N.ar      1 <1>        -0.3599
     23 S1          6.0061    1.6046   -2.6452 S.3       1 <1>        -0.1567
     24 H1         -2.1311    3.2437    0.4597 H         1 <1>         0.1200
     25 H2          6.2525   -4.3218    3.3693 H         1 <1>         0.1192
     26 H3         -1.8686    0.8413   -0.1004 H         1 <1>         0.1209
     27 H4         -0.1285    4.6945    0.6701 H         1 <1>         0.1204
     28 H5          5.6078   -2.1620    4.4057 H         1 <1>         0.1197
     29 H6          6.0367   -4.6342    0.9167 H         1 <1>         0.1198
     30 H7          0.3789   -0.1142   -0.4490 H         1 <1>         0.1310
     31 H8          2.1267    3.7551    0.3242 H         1 <1>         0.1262
     32 H9          4.7504   -0.3200    3.0064 H         1 <1>         0.1346
     33 H10         5.1815   -2.8021   -0.4975 H         1 <1>         0.1421
     34 H11         2.4959   -0.2224    1.3224 H         1 <1>         0.1720
     35 H12         3.5624    1.3978   -4.2746 H         1 <1>         0.0485
     36 H13         4.8278    2.0740   -5.3253 H         1 <1>         0.0485
     37 H14         4.1590    0.4718   -5.6563 H         1 <1>         0.0552
     38 H15         6.4078    0.2725   -4.5922 H         1 <1>         0.0977
     39 H16         5.1457   -0.4294   -3.5660 H         1 <1>         0.0977
@<TRIPOS>BOND
     1    1   13 1
     2    1   21 3
     3    2    4 ar
     4    2    5 ar
     5    3    6 ar
     6    3    7 ar
     7    4    8 ar
     8    5    9 ar
     9    6   10 ar
    10    7   11 ar
    11    8   14 ar
    12    9   14 ar
    13   10   15 ar
    14   11   15 ar
    15   12   16 ar
    16   12   17 ar
    17   13   16 ar
    18   13   18 ar
    19   14   16 1
    20   15   17 1
    21   17   22 ar
    22   18   22 ar
    23   18   23 1
    24   19   20 1
    25   20   23 1
    26    2   24 1
    27    3   25 1
    28    4   26 1
    29    5   27 1
    30    6   28 1
    31    7   29 1
    32    8   30 1
    33    9   31 1
    34   10   32 1
    35   11   33 1
    36   12   34 1
    37   19   35 1
    38   19   36 1
    39   19   37 1
    40   20   38 1
    41   20   39 1
