@<TRIPOS>MOLECULE
AH-487/40652383
   40    43     0
SMALL
USER_CHARGE


@<TRIPOS>ATOM
      1 C1          5.9450   -3.0824    2.2614 C.ar      1 <1>        -0.0897
      2 C2          6.1337   -2.7958    0.9094 C.ar      1 <1>        -0.0809
      3 C3          5.0111   -2.3598    3.0038 C.ar      1 <1>        -0.0804
      4 C4         -0.6693    3.4550    1.2626 C.ar      1 <1>        -0.0740
      5 C5          0.5952    2.8903    1.0974 C.ar      1 <1>        -0.0581
      6 C6          5.3884   -1.7866    0.2999 C.ar      1 <1>        -0.0547
      7 C7          4.2658   -1.3505    2.3942 C.ar      1 <1>        -0.0541
      8 C8         -1.7622    2.9328    0.5707 C.ar      1 <1>        -0.0645
      9 C9         -0.3258    1.2810   -0.4515 C.ar      1 <1>        -0.0408
     10 C10         4.4067    2.4836   -2.6236 C.ar      1 <1>        -0.0027
     11 C11         3.0521    1.5787   -0.8797 C.ar      1 <1>         0.0650
     12 C12         0.7671    1.8033    0.2403 C.ar      1 <1>        -0.0181
     13 C13         3.1994    2.4990   -1.9249 C.ar      1 <1>         0.1061
     14 C14         4.4545   -1.0639    1.0422 C.ar      1 <1>        -0.0085
     15 C15        -1.5903    1.8459   -0.2863 C.ar      1 <1>        -0.0282
     16 C16         2.0747    1.2218    0.0705 C.2       1 <1>         0.0469
     17 C17         5.3873    1.5696   -2.2525 C.ar      1 <1>        -0.0247
     18 C18         4.1096    0.7225   -0.6142 C.ar      1 <1>         0.0571
     19 C19         6.6759    1.5647   -3.0113 C.3       1 <1>        -0.0023
     20 C20         2.1443    3.4787   -2.3199 C.3       1 <1>         0.3536
     21 N1          2.4701    0.2272    0.8721 N.2       1 <1>        -0.3068
     22 N2          5.2921    0.6618   -1.2510 N.ar      1 <1>        -0.3577
     23 N3          3.7097   -0.0552    0.4321 N.pl3     1 <1>        -0.2783
     24 F1          2.5059    4.2784   -3.3659 F         1 <1>        -0.2089
     25 F2          0.9734    2.8927   -2.7062 F         1 <1>        -0.2075
     26 F3          1.8130    4.3286   -1.3053 F         1 <1>        -0.2070
     27 Br1        -3.0713    1.1374   -1.2229 Br        1 <1>        -0.1363
     28 H1          6.5237   -3.8693    2.7360 H         1 <1>         0.1219
     29 H2          6.8599   -3.3592    0.3309 H         1 <1>         0.1300
     30 H3          4.8637   -2.5845    4.0563 H         1 <1>         0.1309
     31 H4         -0.8030    4.3010    1.9305 H         1 <1>         0.1368
     32 H5          1.4375    3.3089    1.6435 H         1 <1>         0.1547
     33 H6          5.5447   -1.5739   -0.7549 H         1 <1>         0.1496
     34 H7          3.5406   -0.7955    2.9844 H         1 <1>         0.1509
     35 H8         -2.7410    3.3844    0.7108 H         1 <1>         0.1453
     36 H9         -0.1909    0.4327   -1.1198 H         1 <1>         0.1616
     37 H10         4.5777    3.1757   -3.4435 H         1 <1>         0.1782
     38 H11         7.3918    2.2498   -2.5444 H         1 <1>         0.1000
     39 H12         7.1152    0.5607   -3.0361 H         1 <1>         0.0981
     40 H13         6.5217    1.8733   -4.0520 H         1 <1>         0.0978
@<TRIPOS>BOND
     1    1    2 ar
     2    1    3 ar
     3    2    6 ar
     4    3    7 ar
     5    4    5 ar
     6    4    8 ar
     7    5   12 ar
     8    6   14 ar
     9    7   14 ar
    10    8   15 ar
    11    9   12 ar
    12    9   15 ar
    13   10   13 ar
    14   10   17 ar
    15   11   13 ar
    16   11   16 1
    17   11   18 ar
    18   12   16 1
    19   13   20 1
    20   14   23 1
    21   15   27 1
    22   16   21 2
    23   17   19 1
    24   17   22 ar
    25   18   22 ar
    26   18   23 1
    27   20   24 1
    28   20   25 1
    29   20   26 1
    30   21   23 1
    31    1   28 1
    32    2   29 1
    33    3   30 1
    34    4   31 1
    35    5   32 1
    36    6   33 1
    37    7   34 1
    38    8   35 1
    39    9   36 1
    40   10   37 1
    41   19   38 1
    42   19   39 1
    43   19   40 1
