@<TRIPOS>MOLECULE
AE-842/32998057
   41    44     0
SMALL
USER_CHARGE


@<TRIPOS>ATOM
      1 C1         -1.3138    2.9619    0.2174 C.ar      1 <1>        -0.0967
      2 C2         -0.2062    3.6741   -0.2425 C.ar      1 <1>        -0.0914
      3 C3         -1.1695    1.6363    0.6273 C.ar      1 <1>        -0.0919
      4 C4          1.0457    3.0609   -0.2925 C.ar      1 <1>        -0.0743
      5 C5          0.0823    1.0233    0.5772 C.ar      1 <1>        -0.0751
      6 C6          5.0612   -2.4418    0.5360 C.ar      1 <1>        -0.0550
      7 C7          4.9673   -1.1992    2.6058 C.ar      1 <1>        -0.0545
      8 C8          5.6260   -3.5239    1.2111 C.ar      1 <1>        -0.0515
      9 C9          5.5320   -2.2813    3.2810 C.ar      1 <1>        -0.0512
     10 C10         1.1900    1.7354    0.1174 C.ar      1 <1>        -0.0504
     11 C11         4.7320   -1.2795    1.2333 C.ar      1 <1>        -0.0388
     12 C12         5.8613   -3.4436    2.5836 C.ar      1 <1>        -0.0166
     13 C13         2.5102    1.0888    0.0645 C.2       1 <1>        -0.0257
     14 C14         4.6633    1.9641   -3.0983 C.3       1 <1>        -0.0548
     15 C15         5.7270    0.8936   -2.7894 C.3       1 <1>        -0.0544
     16 C16         3.3077    1.7164   -2.4108 C.3       1 <1>        -0.0382
     17 C17         5.8040    0.4990   -1.3017 C.3       1 <1>        -0.0378
     18 C18         3.5688    1.4496   -0.9439 C.3       1 <1>         0.0044
     19 C19         4.3982    0.1625   -0.8337 C.3       1 <1>         0.0041
     20 N1          2.9064    0.2094    0.9396 N.2       1 <1>        -0.3693
     21 N2          4.1698   -0.1979    0.5575 N.pl3     1 <1>        -0.3559
     22 Cl1         6.5579   -4.7788    3.4163 Cl        1 <1>        -0.1916
     23 H1         -2.2885    3.4394    0.2562 H         1 <1>         0.1178
     24 H2         -0.3187    4.7061   -0.5618 H         1 <1>         0.1199
     25 H3         -2.0320    1.0819    0.9856 H         1 <1>         0.1197
     26 H4          1.9021    3.6253   -0.6526 H         1 <1>         0.1378
     27 H5          0.1828   -0.0101    0.8990 H         1 <1>         0.1358
     28 H6          4.8829   -2.5141   -0.5338 H         1 <1>         0.1480
     29 H7          4.7159   -0.2974    3.1584 H         1 <1>         0.1493
     30 H8          5.8791   -4.4224    0.6543 H         1 <1>         0.1488
     31 H9          5.7113   -2.2033    4.3504 H         1 <1>         0.1486
     32 H10         5.0487    2.9370   -2.7668 H         1 <1>         0.0426
     33 H11         4.5189    2.0384   -4.1821 H         1 <1>         0.0453
     34 H12         5.4938   -0.0041   -3.3765 H         1 <1>         0.0474
     35 H13         6.7090    1.2425   -3.1287 H         1 <1>         0.0438
     36 H14         2.6612    2.5919   -2.5353 H         1 <1>         0.0584
     37 H15         2.7902    0.8716   -2.8807 H         1 <1>         0.0601
     38 H16         6.4688   -0.3638   -1.1823 H         1 <1>         0.0621
     39 H17         6.2358    1.3169   -0.7125 H         1 <1>         0.0631
     40 H18         4.1031    2.3062   -0.5046 H         1 <1>         0.1061
     41 H19         3.9736   -0.6297   -1.4700 H         1 <1>         0.1120
@<TRIPOS>BOND
     1    1    2 ar
     2    1    3 ar
     3    2    4 ar
     4    3    5 ar
     5    4   10 ar
     6    5   10 ar
     7    6    8 ar
     8    6   11 ar
     9    7    9 ar
    10    7   11 ar
    11    8   12 ar
    12    9   12 ar
    13   10   13 1
    14   11   21 1
    15   12   22 1
    16   13   18 1
    17   13   20 2
    18   14   15 1
    19   14   16 1
    20   15   17 1
    21   16   18 1
    22   17   19 1
    23   18   19 1
    24   19   21 1
    25   20   21 1
    26    1   23 1
    27    2   24 1
    28    3   25 1
    29    4   26 1
    30    5   27 1
    31    6   28 1
    32    7   29 1
    33    8   30 1
    34    9   31 1
    35   14   32 1
    36   14   33 1
    37   15   34 1
    38   15   35 1
    39   16   36 1
    40   16   37 1
    41   17   38 1
    42   17   39 1
    43   18   40 1
    44   19   41 1
