@<TRIPOS>MOLECULE
AG-690/13704183
   48    51     0
SMALL
USER_CHARGE


@<TRIPOS>ATOM
      1 C1          5.8892   -3.4336    2.6564 C.ar      1 <1>        -0.0955
      2 C2          5.5199   -2.2277    3.2525 C.ar      1 <1>        -0.0915
      3 C3          5.7539   -3.6005    1.2783 C.ar      1 <1>        -0.0895
      4 C4          5.0153   -1.1887    2.4703 C.ar      1 <1>        -0.0744
      5 C5          5.2494   -2.5617    0.4960 C.ar      1 <1>        -0.0706
      6 C6          1.1258    2.8754    0.8000 C.ar      1 <1>        -0.0692
      7 C7          0.2078    1.2646   -0.7492 C.ar      1 <1>        -0.0690
      8 C8         -0.1478    3.4080    1.0008 C.ar      1 <1>        -0.0569
      9 C9         -1.0656    1.7971   -0.5484 C.ar      1 <1>        -0.0566
     10 C10         3.0872    0.2161    0.5196 C.ar      1 <1>        -0.0327
     11 C11         3.4608    1.7526   -1.3001 C.ar      1 <1>         0.0097
     12 C12         1.3036    1.8037   -0.0750 C.ar      1 <1>        -0.0592
     13 C13         4.8800   -1.3557    1.0920 C.ar      1 <1>        -0.0465
     14 C14         2.6221    1.2528   -0.2832 C.ar      1 <1>        -0.0281
     15 C15         3.2874    2.7880   -2.2737 C.2       1 <1>         0.0213
     16 C16        -1.2433    2.8687    0.3266 C.ar      1 <1>        -0.0146
     17 C17         4.3572   -0.2788    0.2817 C.ar      1 <1>        -0.0096
     18 C18         4.3897    2.9406   -3.0857 C.2       1 <1>         0.0968
     19 C19         4.7134    1.1609   -1.4268 C.ar      1 <1>         0.0533
     20 C20         4.6049    3.8544   -4.1632 C.2       1 <1>         0.1480
     21 C21         7.6807    4.8267   -5.8263 C.3       1 <1>        -0.0346
     22 C22         5.7251    3.9267   -7.1368 C.3       1 <1>        -0.0310
     23 C23         6.1818    4.5675   -5.8351 C.3       1 <1>         0.0237
     24 N1          5.2068    0.1557   -0.6737 N.ar      1 <1>        -0.3518
     25 N2          2.1724    3.5494   -2.4045 N.pl3     1 <1>        -0.3427
     26 O1          3.7823    4.7094   -4.5647 O.2       1 <1>        -0.4728
     27 O2          5.8462    3.7058   -4.7423 O.3       1 <1>        -0.3939
     28 S1          5.6389    1.8440   -2.6856 S.3       1 <1>        -0.0487
     29 Cl1        -2.8142    3.5273    0.5736 Cl        1 <1>        -0.1806
     30 H1          6.2836   -4.2416    3.2655 H         1 <1>         0.1201
     31 H2          5.6266   -2.0969    4.3253 H         1 <1>         0.1199
     32 H3          6.0425   -4.5386    0.8133 H         1 <1>         0.1214
     33 H4          4.7321   -0.2547    2.9498 H         1 <1>         0.1345
     34 H5          5.1502   -2.7062   -0.5772 H         1 <1>         0.1457
     35 H6          1.9699    3.3067    1.3327 H         1 <1>         0.1434
     36 H7          0.3305    0.4296   -1.4352 H         1 <1>         0.1440
     37 H8         -0.2719    4.2444    1.6841 H         1 <1>         0.1464
     38 H9         -1.9103    1.3677   -1.0813 H         1 <1>         0.1472
     39 H10         2.4670   -0.1933    1.3129 H         1 <1>         0.1680
     40 H11         8.2447    3.9006   -5.9745 H         1 <1>         0.0530
     41 H12         7.9501    5.5315   -6.6201 H         1 <1>         0.0572
     42 H13         7.9968    5.2821   -4.8812 H         1 <1>         0.0499
     43 H14         6.2425    2.9793   -7.3163 H         1 <1>         0.0572
     44 H15         5.9200    4.5973   -7.9807 H         1 <1>         0.0643
     45 H16         4.6457    3.7398   -7.1266 H         1 <1>         0.0591
     46 H17         5.6470    5.5110   -5.6849 H         1 <1>         0.1277
     47 H18         1.3393    3.3942   -1.8239 H         1 <1>         0.2499
     48 H19         2.0790    4.2491   -3.1508 H         1 <1>         0.2580
@<TRIPOS>BOND
     1    1    2 ar
     2    1    3 ar
     3    2    4 ar
     4    3    5 ar
     5    4   13 ar
     6    5   13 ar
     7    6    8 ar
     8    6   12 ar
     9    7    9 ar
    10    7   12 ar
    11    8   16 ar
    12    9   16 ar
    13   10   14 ar
    14   10   17 ar
    15   11   14 ar
    16   11   15 1
    17   11   19 ar
    18   12   14 1
    19   13   17 1
    20   15   18 2
    21   15   25 1
    22   16   29 1
    23   17   24 ar
    24   18   20 1
    25   18   28 1
    26   19   24 ar
    27   19   28 1
    28   20   26 2
    29   20   27 1
    30   21   23 1
    31   22   23 1
    32   23   27 1
    33    1   30 1
    34    2   31 1
    35    3   32 1
    36    4   33 1
    37    5   34 1
    38    6   35 1
    39    7   36 1
    40    8   37 1
    41    9   38 1
    42   10   39 1
    43   21   40 1
    44   21   41 1
    45   21   42 1
    46   22   43 1
    47   22   44 1
    48   22   45 1
    49   23   46 1
    50   25   47 1
    51   25   48 1
