@<TRIPOS>MOLECULE
AM-807/12426015
   45    48     0
SMALL
USER_CHARGE


@<TRIPOS>ATOM
      1 C1          5.6232   -2.6521    2.8864 C.2       1 <1>        -0.0733
      2 C2          0.1458    0.9692   -0.1531 C.ar      1 <1>        -0.0598
      3 C3          1.1171    3.1387    0.2790 C.ar      1 <1>        -0.0600
      4 C4         -1.1282    1.4990    0.0510 C.ar      1 <1>        -0.0299
      5 C5         -0.1571    3.6685    0.4831 C.ar      1 <1>        -0.0299
      6 C6          5.0764   -1.4039    2.4704 C.2       1 <1>        -0.0582
      7 C7          3.0554    0.2036    0.5504 C.ar      1 <1>        -0.0262
      8 C8          5.8016   -3.5171    1.8292 C.2       1 <1>        -0.0418
      9 C9          3.4239    1.7432   -1.2678 C.ar      1 <1>         0.0119
     10 C10         1.2685    1.7891   -0.0391 C.ar      1 <1>        -0.0551
     11 C11         2.5875    1.2407   -0.2503 C.ar      1 <1>        -0.0251
     12 C12         3.2474    2.7796   -2.2398 C.2       1 <1>         0.0220
     13 C13        -1.2797    2.8485    0.3691 C.ar      1 <1>         0.0476
     14 C14         4.3258   -0.2889    0.3098 C.ar      1 <1>         0.0085
     15 C15         4.8580   -1.3622    1.1107 C.2       1 <1>        -0.0082
     16 C16         4.3482    2.9352   -3.0532 C.2       1 <1>         0.0988
     17 C17         4.6772    1.1537   -1.3972 C.ar      1 <1>         0.0579
     18 C18         4.5602    3.8509   -4.1299 C.2       1 <1>         0.1494
     19 C19         7.9208    4.7543   -5.1596 C.3       1 <1>        -0.0346
     20 C20         5.9714    4.9910   -6.7395 C.3       1 <1>        -0.0310
     21 C21         6.4092    4.8653   -5.2882 C.3       1 <1>         0.0237
     22 N1          5.1734    0.1482   -0.6461 N.ar      1 <1>        -0.3428
     23 N2          2.1309    3.5393   -2.3676 N.pl3     1 <1>        -0.3436
     24 O1          3.7353    4.7049   -4.5288 O.2       1 <1>        -0.4717
     25 O2          5.8007    3.7050   -4.7110 O.3       1 <1>        -0.3936
     26 F1         -2.5033    3.3572    0.5652 F         1 <1>        -0.3380
     27 S1          5.3111   -2.8238    0.3422 S.3       1 <1>        -0.1516
     28 S2          5.5998    1.8399   -2.6564 S.3       1 <1>        -0.0447
     29 H1          5.8736   -2.9031    3.9088 H         1 <1>         0.1212
     30 H2          0.2474   -0.0850   -0.4003 H         1 <1>         0.1489
     31 H3          1.9823    3.7909    0.3713 H         1 <1>         0.1482
     32 H4         -2.0026    0.8607   -0.0375 H         1 <1>         0.1559
     33 H5         -0.2757    4.7191    0.7305 H         1 <1>         0.1566
     34 H6          4.8586   -0.5819    3.1412 H         1 <1>         0.1437
     35 H7          2.4369   -0.2078    1.3441 H         1 <1>         0.1711
     36 H8          6.1971   -4.5225    1.8588 H         1 <1>         0.1814
     37 H9          8.3042    3.8924   -5.7142 H         1 <1>         0.0529
     38 H10         8.4032    5.6599   -5.5428 H         1 <1>         0.0571
     39 H11         8.2214    4.6580   -4.1105 H         1 <1>         0.0498
     40 H12         6.3084    4.1349   -7.3317 H         1 <1>         0.0571
     41 H13         6.3796    5.9057   -7.1828 H         1 <1>         0.0643
     42 H14         4.8811    5.0635   -6.8173 H         1 <1>         0.0590
     43 H15         6.0575    5.7352   -4.7237 H         1 <1>         0.1277
     44 H16         1.2990    3.3818   -1.7858 H         1 <1>         0.2483
     45 H17         2.0349    4.2399   -3.1128 H         1 <1>         0.2556
@<TRIPOS>BOND
     1    1    6 1
     2    1    8 2
     3    2    4 ar
     4    2   10 ar
     5    3    5 ar
     6    3   10 ar
     7    4   13 ar
     8    5   13 ar
     9    6   15 2
    10    7   11 ar
    11    7   14 ar
    12    8   27 1
    13    9   11 ar
    14    9   12 1
    15    9   17 ar
    16   10   11 1
    17   12   16 2
    18   12   23 1
    19   13   26 1
    20   14   15 1
    21   14   22 ar
    22   15   27 1
    23   16   18 1
    24   16   28 1
    25   17   22 ar
    26   17   28 1
    27   18   24 2
    28   18   25 1
    29   19   21 1
    30   20   21 1
    31   21   25 1
    32    1   29 1
    33    2   30 1
    34    3   31 1
    35    4   32 1
    36    5   33 1
    37    6   34 1
    38    7   35 1
    39    8   36 1
    40   19   37 1
    41   19   38 1
    42   19   39 1
    43   20   40 1
    44   20   41 1
    45   20   42 1
    46   21   43 1
    47   23   44 1
    48   23   45 1
