@<TRIPOS>MOLECULE
AO-476/42008147
   44    47     0
SMALL
USER_CHARGE


@<TRIPOS>ATOM
      1 C1          3.0097    2.9164   -2.2914 C.1       1 <1>         0.0481
      2 C2          6.5563   -3.0744    1.3812 C.ar      1 <1>        -0.0892
      3 C3          5.9313   -3.3718    2.5884 C.ar      1 <1>        -0.0945
      4 C4          6.0730   -2.0406    0.5753 C.ar      1 <1>        -0.0703
      5 C5          1.1738    3.2674    0.0917 C.ar      1 <1>        -0.0644
      6 C6          0.2115    1.0834   -0.2842 C.ar      1 <1>        -0.0650
      7 C7          4.8191   -2.6381    2.9935 C.ar      1 <1>        -0.0916
      8 C8         -0.1017    3.7949    0.2924 C.ar      1 <1>        -0.0555
      9 C9         -1.0641    1.6109   -0.0834 C.ar      1 <1>        -0.0557
     10 C10         3.4538    1.8566   -1.4338 C.ar      1 <1>         0.1232
     11 C11         1.3305    1.9115   -0.1967 C.ar      1 <1>        -0.0431
     12 C12         4.9509   -1.2881    0.9606 C.ar      1 <1>        -0.0468
     13 C13         2.6616    1.3612   -0.4067 C.ar      1 <1>         0.0182
     14 C14         4.3184   -1.6088    2.1840 C.ar      1 <1>        -0.0812
     15 C15         3.1413    0.3324    0.4056 C.ar      1 <1>        -0.0298
     16 C16        -1.2207    2.9667    0.2049 C.ar      1 <1>        -0.0145
     17 C17         4.4135   -0.1897    0.1383 C.ar      1 <1>        -0.0043
     18 C18         4.7018    1.2895   -1.6183 C.ar      1 <1>         0.0986
     19 C19         6.8272   -0.3966   -3.8305 C.2       1 <1>        -0.1119
     20 C20         7.3910    0.2978   -2.8359 C.2       1 <1>        -0.0900
     21 C21         3.1456   -0.7814    2.6578 C.3       1 <1>        -0.0190
     22 C22         2.2932   -0.2665    1.4941 C.3       1 <1>        -0.0078
     23 C23         6.9236    1.6432   -2.3891 C.3       1 <1>         0.0408
     24 N1          2.6502    3.7741   -2.9855 N.1       1 <1>        -0.3780
     25 N2          5.1967    0.2829   -0.8630 N.ar      1 <1>        -0.3323
     26 O1          5.5237    1.7404   -2.6193 O.3       1 <1>        -0.4025
     27 Cl1        -2.7943    3.6186    0.4512 Cl        1 <1>        -0.1820
     28 H1          7.4243   -3.6459    1.0649 H         1 <1>         0.1202
     29 H2          6.3128   -4.1717    3.2159 H         1 <1>         0.1214
     30 H3          6.5878   -1.8372   -0.3609 H         1 <1>         0.1441
     31 H4          2.0363    3.9257    0.1630 H         1 <1>         0.1457
     32 H5          0.3171    0.0247   -0.5091 H         1 <1>         0.1430
     33 H6          4.3465   -2.8702    3.9444 H         1 <1>         0.1227
     34 H7         -0.2095    4.8536    0.5145 H         1 <1>         0.1474
     35 H8         -1.9272    0.9541   -0.1559 H         1 <1>         0.1471
     36 H9          7.1992   -1.3722   -4.1232 H         1 <1>         0.0861
     37 H10         5.9774    0.0073   -4.3696 H         1 <1>         0.0903
     38 H11         8.2469   -0.1308   -2.3212 H         1 <1>         0.1087
     39 H12         2.5087   -1.3678    3.3306 H         1 <1>         0.0828
     40 H13         3.5420    0.0652    3.2334 H         1 <1>         0.0802
     41 H14         1.5782    0.4550    1.9040 H         1 <1>         0.0849
     42 H15         1.7176   -1.0945    1.0605 H         1 <1>         0.0871
     43 H16         7.4231    2.4543   -2.9281 H         1 <1>         0.1430
     44 H17         7.1104    1.7633   -1.3174 H         1 <1>         0.1457
@<TRIPOS>BOND
     1    1   10 1
     2    1   24 3
     3    2    3 ar
     4    2    4 ar
     5    3    7 ar
     6    4   12 ar
     7    5    8 ar
     8    5   11 ar
     9    6    9 ar
    10    6   11 ar
    11    7   14 ar
    12    8   16 ar
    13    9   16 ar
    14   10   13 ar
    15   10   18 ar
    16   11   13 1
    17   12   14 ar
    18   12   17 1
    19   13   15 ar
    20   14   21 1
    21   15   17 ar
    22   15   22 1
    23   16   27 1
    24   17   25 ar
    25   18   25 ar
    26   18   26 1
    27   19   20 2
    28   20   23 1
    29   21   22 1
    30   23   26 1
    31    2   28 1
    32    3   29 1
    33    4   30 1
    34    5   31 1
    35    6   32 1
    36    7   33 1
    37    8   34 1
    38    9   35 1
    39   19   36 1
    40   19   37 1
    41   20   38 1
    42   21   39 1
    43   21   40 1
    44   22   41 1
    45   22   42 1
    46   23   43 1
    47   23   44 1
