@<TRIPOS>MOLECULE
AF-399/15336046
   26    29     0
SMALL
USER_CHARGE


@<TRIPOS>ATOM
      1 C1         -1.3716    2.6148    0.6661 C.ar      1 <1>        -0.0994
      2 C2         -0.4607    3.6711    0.6590 C.ar      1 <1>        -0.0982
      3 C3         -1.0206    1.3874    0.1038 C.ar      1 <1>        -0.0949
      4 C4          0.8012    3.5001    0.0898 C.ar      1 <1>        -0.0889
      5 C5          0.2412    1.2164   -0.4655 C.ar      1 <1>        -0.0856
      6 C6          2.8551    2.8840   -2.1189 C.2       1 <1>         0.0049
      7 C7          4.4031   -1.4041    1.4275 C.2       1 <1>         0.0720
      8 C8          1.1521    2.2727   -0.4725 C.ar      1 <1>        -0.0675
      9 C9          2.4538    2.0960   -1.0601 C.2       1 <1>        -0.0138
     10 C10         3.4689    1.1810   -0.7100 C.2       1 <1>         0.0384
     11 C11         4.6162    1.2723   -1.4841 C.2       1 <1>         0.0580
     12 C12         3.5067    0.2103    0.2780 C.2       1 <1>         0.0783
     13 C13         5.7503   -0.3848   -0.4313 C.2       1 <1>         0.0640
     14 N1          3.1965   -1.1800    1.9096 N.2       1 <1>        -0.2857
     15 N2          2.6234   -0.1492    1.1763 N.2       1 <1>        -0.2819
     16 N3          5.7602    0.5176   -1.3763 N.2       1 <1>        -0.3212
     17 N4          4.6408   -0.5494    0.3972 N.pl3     1 <1>        -0.2605
     18 S1          4.4406    2.5030   -2.6604 S.3       1 <1>        -0.0915
     19 H1         -2.3538    2.7475    1.1103 H         1 <1>         0.1147
     20 H2         -0.7333    4.6264    1.0979 H         1 <1>         0.1143
     21 H3         -1.7295    0.5647    0.1106 H         1 <1>         0.1189
     22 H4          1.5002    4.3331    0.0921 H         1 <1>         0.1232
     23 H5          0.4995    0.2534   -0.8997 H         1 <1>         0.1282
     24 H6          2.3025    3.6733   -2.6110 H         1 <1>         0.2159
     25 H7          5.1121   -2.1416    1.7753 H         1 <1>         0.3148
     26 H8          6.6246   -1.0357   -0.2715 H         1 <1>         0.3438
@<TRIPOS>BOND
     1    1    2 ar
     2    1    3 ar
     3    2    4 ar
     4    3    5 ar
     5    4    8 ar
     6    5    8 ar
     7    6    9 2
     8    6   18 1
     9    7   14 2
    10    7   17 1
    11    8    9 1
    12    9   10 1
    13   10   11 2
    14   10   12 1
    15   11   16 1
    16   11   18 1
    17   12   15 2
    18   12   17 1
    19   13   16 2
    20   13   17 1
    21   14   15 1
    22    1   19 1
    23    2   20 1
    24    3   21 1
    25    4   22 1
    26    5   23 1
    27    6   24 1
    28    7   25 1
    29   13   26 1
