@<TRIPOS>MOLECULE
AO-476/14976017
   28    30     0
SMALL
USER_CHARGE


@<TRIPOS>ATOM
      1 C1          5.5972   -3.3546    2.7476 C.ar      1 <1>        -0.0823
      2 C2          4.7400   -2.3195    3.1207 C.ar      1 <1>        -0.0744
      3 C3          6.1684   -3.3629    1.4750 C.ar      1 <1>        -0.0752
      4 C4          4.4540   -1.2924    2.2213 C.ar      1 <1>        -0.0492
      5 C5          5.8822   -2.3359    0.5755 C.ar      1 <1>        -0.0508
      6 C6          5.0400    1.0778   -1.5342 C.2       1 <1>         0.0688
      7 C7          1.5562    1.1840    0.4211 C.ar      1 <1>         0.0967
      8 C8          3.7433    1.3509   -1.0490 C.ar      1 <1>         0.0849
      9 C9          5.0251   -1.3007    0.9486 C.ar      1 <1>        -0.0017
     10 C10         3.5824    0.4452   -0.0122 C.ar      1 <1>         0.0995
     11 C11         2.7090    2.2298   -1.3495 C.ar      1 <1>         0.0722
     12 N1          5.6497    0.0912   -0.8691 N.2       1 <1>        -0.2964
     13 N2          2.5064    0.3001    0.7762 N.ar      1 <1>        -0.2800
     14 N3          4.7387   -0.2737    0.0502 N.pl3     1 <1>        -0.2632
     15 N4          1.6359    2.0867   -0.5639 N.ar      1 <1>        -0.3110
     16 N5          2.7670    3.1802   -2.3791 N.pl3     1 <1>        -0.2957
     17 N6          0.4659    2.9582   -0.7783 N.pl3     1 <1>        -0.2948
     18 H1          5.8217   -4.1536    3.4482 H         1 <1>         0.1351
     19 H2          4.2963   -2.3122    4.1119 H         1 <1>         0.1396
     20 H3          6.8369   -4.1687    1.1857 H         1 <1>         0.1390
     21 H4          3.7847   -0.4911    2.5250 H         1 <1>         0.1573
     22 H5          6.3348   -2.3542   -0.4130 H         1 <1>         0.1527
     23 H6          5.5680    1.5573   -2.3463 H         1 <1>         0.2955
     24 H7          0.6359    1.1592    0.9950 H         1 <1>         0.3932
     25 H8          3.6102    3.2804   -2.9144 H         1 <1>         0.3155
     26 H9          2.0011    3.8156   -2.5108 H         1 <1>         0.3032
     27 H10        -0.3600    2.4275   -0.5258 H         1 <1>         0.3058
     28 H11         0.4260    3.1766   -1.7674 H         1 <1>         0.3157
@<TRIPOS>BOND
     1    1    2 ar
     2    1    3 ar
     3    2    4 ar
     4    3    5 ar
     5    4    9 ar
     6    5    9 ar
     7    6    8 1
     8    6   12 2
     9    7   13 ar
    10    7   15 ar
    11    8   10 ar
    12    8   11 ar
    13    9   14 1
    14   10   13 ar
    15   10   14 1
    16   11   15 ar
    17   11   16 1
    18   12   14 1
    19   15   17 1
    20    1   18 1
    21    2   19 1
    22    3   20 1
    23    4   21 1
    24    5   22 1
    25    6   23 1
    26    7   24 1
    27   16   25 1
    28   16   26 1
    29   17   27 1
    30   17   28 1
