@<TRIPOS>MOLECULE
AG-205/08567008
   43    45     0
SMALL
USER_CHARGE


@<TRIPOS>ATOM
      1 C1          3.1625    2.7423   -2.1465 C.1       1 <1>         0.0349
      2 C2          5.8744   -3.5137    2.7498 C.ar      1 <1>        -0.0963
      3 C3          5.5120   -2.2995    3.3327 C.ar      1 <1>        -0.0921
      4 C4          5.7535   -3.6893    1.3713 C.ar      1 <1>        -0.0909
      5 C5          5.0284   -1.2608    2.5371 C.ar      1 <1>        -0.0756
      6 C6          5.2699   -2.6507    0.5757 C.ar      1 <1>        -0.0731
      7 C7          0.2804    0.9406   -0.2039 C.ar      1 <1>        -0.0712
      8 C8          1.2591    3.1066    0.2292 C.ar      1 <1>        -0.0645
      9 C9         -0.9924    1.4763   -0.0068 C.ar      1 <1>        -0.0645
     10 C10        -0.0137    3.6423    0.4264 C.ar      1 <1>        -0.0568
     11 C11         3.1414    0.1644    0.5388 C.ar      1 <1>        -0.0247
     12 C12         3.5770    1.6727   -1.2831 C.ar      1 <1>         0.0950
     13 C13         1.4061    1.7558   -0.0857 C.ar      1 <1>        -0.0500
     14 C14         4.9074   -1.4364    1.1585 C.ar      1 <1>        -0.0500
     15 C15         2.7260    1.2005   -0.2902 C.ar      1 <1>         0.0066
     16 C16        -1.1394    2.8270    0.3082 C.ar      1 <1>        -0.0365
     17 C17         4.4072   -0.3611    0.3356 C.ar      1 <1>        -0.0142
     18 C18         4.8235    1.0798   -1.4047 C.ar      1 <1>         0.0479
     19 C19         7.9826   -0.1950   -2.0679 C.3       1 <1>        -0.0420
     20 C20        -2.4596    4.7379    0.8194 C.3       1 <1>         0.0113
     21 C21         7.5364    1.2235   -1.7685 C.3       1 <1>        -0.0002
     22 N1          2.8275    3.6068   -2.8443 N.1       1 <1>        -0.3800
     23 N2          5.2621    0.0714   -0.6182 N.ar      1 <1>        -0.3604
     24 O1         -2.3813    3.3497    0.4999 O.3       1 <1>        -0.4626
     25 S1          6.0060    1.6048   -2.6450 S.3       1 <1>        -0.1571
     26 H1          6.2526   -4.3217    3.3693 H         1 <1>         0.1189
     27 H2          5.6076   -2.1621    4.4057 H         1 <1>         0.1196
     28 H3          6.0369   -4.6340    0.9166 H         1 <1>         0.1196
     29 H4          4.7501   -0.3201    3.0065 H         1 <1>         0.1348
     30 H5          5.1817   -2.8020   -0.4975 H         1 <1>         0.1420
     31 H6          0.3787   -0.1141   -0.4490 H         1 <1>         0.1354
     32 H7          2.1267    3.7551    0.3248 H         1 <1>         0.1478
     33 H8         -1.8655    0.8363   -0.1003 H         1 <1>         0.1302
     34 H9         -0.1222    4.6953    0.6714 H         1 <1>         0.1473
     35 H10         2.4957   -0.2225    1.3224 H         1 <1>         0.1714
     36 H11         7.2256   -0.9269   -1.7662 H         1 <1>         0.0551
     37 H12         8.1959   -0.3335   -3.1332 H         1 <1>         0.0484
     38 H13         8.9002   -0.4217   -1.5146 H         1 <1>         0.0483
     39 H14        -3.5063    5.0250    0.9462 H         1 <1>         0.1096
     40 H15        -2.0047    5.3238    0.0168 H         1 <1>         0.1095
     41 H16        -1.9189    4.9193    1.7515 H         1 <1>         0.1335
     42 H17         8.3068    1.9366   -2.0774 H         1 <1>         0.0976
     43 H18         7.3681    1.3491   -0.6946 H         1 <1>         0.0976
@<TRIPOS>BOND
     1    1   12 1
     2    1   22 3
     3    2    3 ar
     4    2    4 ar
     5    3    5 ar
     6    4    6 ar
     7    5   14 ar
     8    6   14 ar
     9    7    9 ar
    10    7   13 ar
    11    8   10 ar
    12    8   13 ar
    13    9   16 ar
    14   10   16 ar
    15   11   15 ar
    16   11   17 ar
    17   12   15 ar
    18   12   18 ar
    19   13   15 1
    20   14   17 1
    21   16   24 1
    22   17   23 ar
    23   18   23 ar
    24   18   25 1
    25   19   21 1
    26   20   24 1
    27   21   25 1
    28    2   26 1
    29    3   27 1
    30    4   28 1
    31    5   29 1
    32    6   30 1
    33    7   31 1
    34    8   32 1
    35    9   33 1
    36   10   34 1
    37   11   35 1
    38   19   36 1
    39   19   37 1
    40   19   38 1
    41   20   39 1
    42   20   40 1
    43   20   41 1
    44   21   42 1
    45   21   43 1
