@<TRIPOS>MOLECULE
AG-690/11481224
   42    44     0
SMALL
USER_CHARGE


@<TRIPOS>ATOM
      1 C1          3.1079    2.9160   -2.3039 C.1       1 <1>         0.0465
      2 C2          6.0803   -3.3317    2.4426 C.ar      1 <1>        -0.0957
      3 C3          5.7033   -2.1355    3.0532 C.ar      1 <1>        -0.0914
      4 C4          5.9272   -3.4904    1.0653 C.ar      1 <1>        -0.0902
      5 C5          5.1730   -1.0980    2.2863 C.ar      1 <1>        -0.0745
      6 C6          5.3969   -2.4528    0.2986 C.ar      1 <1>        -0.0718
      7 C7          0.2982    1.0233   -0.2982 C.ar      1 <1>        -0.0678
      8 C8          1.2355    3.2071    0.1369 C.ar      1 <1>        -0.0664
      9 C9         -0.9816    1.5257   -0.0626 C.ar      1 <1>        -0.0641
     10 C10        -0.0442    3.7095    0.3724 C.ar      1 <1>        -0.0635
     11 C11         3.1983    0.3073    0.3604 C.ar      1 <1>        -0.0200
     12 C12         3.5451    1.8497   -1.4522 C.ar      1 <1>         0.1215
     13 C13         1.4068    1.8641   -0.1984 C.ar      1 <1>        -0.0437
     14 C14         5.0197   -1.2567    0.9090 C.ar      1 <1>        -0.0473
     15 C15         2.7340    1.3429   -0.4430 C.ar      1 <1>         0.0198
     16 C16        -1.1528    2.8686    0.2727 C.ar      1 <1>        -0.0354
     17 C17         4.4711   -0.1827    0.1157 C.ar      1 <1>        -0.0045
     18 C18         4.8025    1.2909   -1.6157 C.ar      1 <1>         0.0945
     19 C19         7.4777    1.5048   -4.8122 C.3       1 <1>        -0.0564
     20 C20         7.7936    2.2442   -3.5244 C.3       1 <1>        -0.0315
     21 C21         7.0367    1.6650   -2.3392 C.3       1 <1>         0.0258
     22 N1          2.7539    3.7797   -2.9935 N.1       1 <1>        -0.3791
     23 N2          5.2880    0.2841   -0.8552 N.ar      1 <1>        -0.3352
     24 O1          5.6410    1.7548   -2.5965 O.3       1 <1>        -0.4104
     25 Br1        -2.8865    3.5502    0.5912 Br        1 <1>        -0.1381
     26 H1          6.4948   -4.1387    3.0397 H         1 <1>         0.1198
     27 H2          5.8240   -2.0113    4.1253 H         1 <1>         0.1203
     28 H3          6.2219   -4.4210    0.5891 H         1 <1>         0.1202
     29 H4          4.8839   -0.1716    2.7770 H         1 <1>         0.1359
     30 H5          5.2839   -2.5908   -0.7742 H         1 <1>         0.1435
     31 H6          0.4156   -0.0260   -0.5588 H         1 <1>         0.1409
     32 H7          2.0896    3.8753    0.2178 H         1 <1>         0.1461
     33 H8         -1.8350    0.8573   -0.1452 H         1 <1>         0.1449
     34 H9         -0.1604    4.7582    0.6328 H         1 <1>         0.1455
     35 H10         2.5838   -0.1061    1.1556 H         1 <1>         0.1697
     36 H11         7.7177    0.4406   -4.7221 H         1 <1>         0.0371
     37 H12         6.4130    1.5937   -5.0496 H         1 <1>         0.0371
     38 H13         8.0483    1.9163   -5.6509 H         1 <1>         0.0405
     39 H14         7.5465    3.3069   -3.6352 H         1 <1>         0.0618
     40 H15         8.8717    2.2049   -3.3274 H         1 <1>         0.0618
     41 H16         7.2958    0.6125   -2.1863 H         1 <1>         0.1273
     42 H17         7.2587    2.2227   -1.4236 H         1 <1>         0.1273
@<TRIPOS>BOND
     1    1   12 1
     2    1   22 3
     3    2    3 ar
     4    2    4 ar
     5    3    5 ar
     6    4    6 ar
     7    5   14 ar
     8    6   14 ar
     9    7    9 ar
    10    7   13 ar
    11    8   10 ar
    12    8   13 ar
    13    9   16 ar
    14   10   16 ar
    15   11   15 ar
    16   11   17 ar
    17   12   15 ar
    18   12   18 ar
    19   13   15 1
    20   14   17 1
    21   16   25 1
    22   17   23 ar
    23   18   23 ar
    24   18   24 1
    25   19   20 1
    26   20   21 1
    27   21   24 1
    28    2   26 1
    29    3   27 1
    30    4   28 1
    31    5   29 1
    32    6   30 1
    33    7   31 1
    34    8   32 1
    35    9   33 1
    36   10   34 1
    37   11   35 1
    38   19   36 1
    39   19   37 1
    40   19   38 1
    41   20   39 1
    42   20   40 1
    43   21   41 1
    44   21   42 1
