@<TRIPOS>MOLECULE
AS-938/12583060
   39    42     0
SMALL
USER_CHARGE


@<TRIPOS>ATOM
      1 C1          0.4705    1.1846    0.1031 C.ar      1 <1>        -0.0561
      2 C2          0.4476    3.5377   -0.4440 C.ar      1 <1>        -0.0512
      3 C3          4.8830   -2.4425    3.1568 C.ar      1 <1>        -0.0812
      4 C4          6.2635   -3.3181    1.3778 C.ar      1 <1>        -0.0832
      5 C5          4.4679   -1.4039    2.3234 C.ar      1 <1>        -0.0540
      6 C6          5.8482   -2.2795    0.5444 C.ar      1 <1>        -0.0579
      7 C7         -0.7815    1.3122    0.7048 C.ar      1 <1>        -0.0533
      8 C8         -0.8044    3.6654    0.1577 C.ar      1 <1>        -0.0503
      9 C9          3.3239    0.3397    0.2471 C.2       1 <1>         0.0193
     10 C10         3.3726    1.2720   -0.7483 C.ar      1 <1>         0.0341
     11 C11         1.0851    2.2973   -0.4712 C.ar      1 <1>        -0.0241
     12 C12         5.7810   -3.3995    2.6840 C.ar      1 <1>        -0.1007
     13 C13         4.6625    1.1541   -1.3822 C.ar      1 <1>         0.0472
     14 C14         4.9504   -1.3223    1.0173 C.ar      1 <1>        -0.0183
     15 C15        -1.4188    2.5526    0.7320 C.ar      1 <1>        -0.0129
     16 C16         2.3687    2.1665   -1.0875 C.ar      1 <1>         0.0364
     17 C17         4.9995    1.9956   -2.4523 C.ar      1 <1>         0.0265
     18 C18         6.2249   -4.5101    3.5749 C.3       1 <1>        -0.0397
     19 C19         6.2790    1.9963   -3.2046 C.3       1 <1>         0.0136
     20 N1          5.3604    0.1771   -0.7779 N.2       1 <1>        -0.3227
     21 N2          2.7246    2.9675   -2.1270 N.ar      1 <1>        -0.3043
     22 N3          4.0218    2.8807   -2.7975 N.ar      1 <1>        -0.3055
     23 N4          4.5362   -0.2846    0.1841 N.pl3     1 <1>        -0.3022
     24 Cl1        -2.9629    2.7097    1.4759 Cl        1 <1>        -0.1819
     25 H1          0.9548    0.2110    0.0900 H         1 <1>         0.1452
     26 H2          0.9141    4.4147   -0.8866 H         1 <1>         0.1588
     27 H3          4.5024   -2.4988    4.1731 H         1 <1>         0.1352
     28 H4          6.9633   -4.0592    1.0010 H         1 <1>         0.1344
     29 H5          3.7682   -0.6638    2.7047 H         1 <1>         0.1587
     30 H6          6.2329   -2.2283   -0.4713 H         1 <1>         0.1470
     31 H7         -1.2482    0.4372    1.1503 H         1 <1>         0.1464
     32 H8         -1.2890    4.6384    0.1726 H         1 <1>         0.1497
     33 H9          2.5677    0.0673    0.9723 H         1 <1>         0.2522
     34 H10         5.5522   -5.3709    3.4766 H         1 <1>         0.0637
     35 H11         7.2442   -4.8352    3.3289 H         1 <1>         0.0609
     36 H12         6.2369   -4.1963    4.6270 H         1 <1>         0.0610
     37 H13         6.2262    1.3112   -4.0627 H         1 <1>         0.1042
     38 H14         6.5266    2.9996   -3.5825 H         1 <1>         0.1008
     39 H15         7.1226    1.6855   -2.5700 H         1 <1>         0.1044
@<TRIPOS>BOND
     1    1    7 ar
     2    1   11 ar
     3    2    8 ar
     4    2   11 ar
     5    3    5 ar
     6    3   12 ar
     7    4    6 ar
     8    4   12 ar
     9    5   14 ar
    10    6   14 ar
    11    7   15 ar
    12    8   15 ar
    13    9   10 2
    14    9   23 1
    15   10   13 ar
    16   10   16 ar
    17   11   16 1
    18   12   18 1
    19   13   17 ar
    20   13   20 2
    21   14   23 1
    22   15   24 1
    23   16   21 ar
    24   17   19 1
    25   17   22 ar
    26   20   23 1
    27   21   22 ar
    28    1   25 1
    29    2   26 1
    30    3   27 1
    31    4   28 1
    32    5   29 1
    33    6   30 1
    34    7   31 1
    35    8   32 1
    36    9   33 1
    37   18   34 1
    38   18   35 1
    39   18   36 1
    40   19   37 1
    41   19   38 1
    42   19   39 1
