@<TRIPOS>MOLECULE
AG-690/40639050
   36    38     0
SMALL
USER_CHARGE


@<TRIPOS>ATOM
      1 C1          3.1152    2.9289   -2.2915 C.1       1 <1>         0.0470
      2 C2          5.8165   -2.5673    2.6425 C.2       1 <1>        -0.0743
      3 C3          1.2246    2.9151    0.7002 C.ar      1 <1>        -0.0805
      4 C4          0.3090    1.3152   -0.8615 C.ar      1 <1>        -0.0818
      5 C5         -0.0550    3.4176    0.9358 C.ar      1 <1>        -0.0961
      6 C6         -0.9707    1.8176   -0.6259 C.ar      1 <1>        -0.0966
      7 C7          5.2518   -1.3202    2.2476 C.2       1 <1>        -0.0598
      8 C8          3.1948    0.3010    0.3543 C.ar      1 <1>        -0.0148
      9 C9          5.9935   -3.4171    1.5728 C.2       1 <1>        -0.0422
     10 C10         3.5488    1.8560   -1.4461 C.ar      1 <1>         0.1222
     11 C11         1.4067    1.8639   -0.1985 C.ar      1 <1>        -0.0520
     12 C12         2.7340    1.3429   -0.4430 C.ar      1 <1>         0.0192
     13 C13        -1.1528    2.8689    0.2728 C.ar      1 <1>        -0.1092
     14 C14         4.4677   -0.1886    0.1097 C.ar      1 <1>         0.0123
     15 C15         5.0190   -1.2642    0.8908 C.2       1 <1>        -0.0094
     16 C16         4.8058    1.2968   -1.6099 C.ar      1 <1>         0.0970
     17 C17        -2.5209    3.4062    0.5244 C.3       1 <1>        -0.0422
     18 C18         6.9198    1.1394   -2.6878 C.3       1 <1>         0.0347
     19 N1          2.7642    3.7979   -2.9761 N.1       1 <1>        -0.3791
     20 N2          5.2880    0.2841   -0.8552 N.ar      1 <1>        -0.3282
     21 O1          5.6478    1.7667   -2.5852 O.3       1 <1>        -0.4073
     22 S1          5.4801   -2.7111    0.0996 S.3       1 <1>        -0.1521
     23 H1          6.0802   -2.8281    3.6590 H         1 <1>         0.1196
     24 H2          2.0704    3.3540    1.2243 H         1 <1>         0.1337
     25 H3          0.4345    0.4951   -1.5645 H         1 <1>         0.1288
     26 H4         -0.1873    4.2374    1.6368 H         1 <1>         0.1216
     27 H5         -1.8205    1.3838   -1.1464 H         1 <1>         0.1210
     28 H6          5.0318   -0.5092    2.9307 H         1 <1>         0.1411
     29 H7          2.5778   -0.1173    1.1450 H         1 <1>         0.1717
     30 H8          6.4003   -4.4183    1.5859 H         1 <1>         0.1806
     31 H9         -2.7468    4.2194   -0.1762 H         1 <1>         0.0616
     32 H10        -3.2835    2.6252    0.4085 H         1 <1>         0.0593
     33 H11        -2.6152    3.7926    1.5477 H         1 <1>         0.0589
     34 H12         7.4908    1.6018   -3.4967 H         1 <1>         0.1254
     35 H13         6.7862    0.0728   -2.8853 H         1 <1>         0.1448
     36 H14         7.4571    1.2689   -1.7454 H         1 <1>         0.1254
@<TRIPOS>BOND
     1    1   10 1
     2    1   19 3
     3    2    7 1
     4    2    9 2
     5    3    5 ar
     6    3   11 ar
     7    4    6 ar
     8    4   11 ar
     9    5   13 ar
    10    6   13 ar
    11    7   15 2
    12    8   12 ar
    13    8   14 ar
    14    9   22 1
    15   10   12 ar
    16   10   16 ar
    17   11   12 1
    18   13   17 1
    19   14   15 1
    20   14   20 ar
    21   15   22 1
    22   16   20 ar
    23   16   21 1
    24   18   21 1
    25    2   23 1
    26    3   24 1
    27    4   25 1
    28    5   26 1
    29    6   27 1
    30    7   28 1
    31    8   29 1
    32    9   30 1
    33   17   31 1
    34   17   32 1
    35   17   33 1
    36   18   34 1
    37   18   35 1
    38   18   36 1
