@<TRIPOS>MOLECULE
AO-476/40672138
   35    37     0
SMALL
USER_CHARGE


@<TRIPOS>ATOM
      1 C1          5.6203   -3.3574    2.7366 C.ar      1 <1>        -0.0820
      2 C2          4.7611   -2.3255    3.1142 C.ar      1 <1>        -0.0750
      3 C3          6.1876   -3.3615    1.4622 C.ar      1 <1>        -0.0739
      4 C4          4.4691   -1.2978    2.2176 C.ar      1 <1>        -0.0502
      5 C5          5.8956   -2.3337    0.5655 C.ar      1 <1>        -0.0484
      6 C6          5.0364    1.0809   -1.5356 C.2       1 <1>         0.0737
      7 C7          1.5585    1.1735    0.4309 C.ar      1 <1>         0.1155
      8 C8          3.7404    1.3493   -1.0458 C.ar      1 <1>         0.0967
      9 C9          5.0364   -1.3018    0.9432 C.ar      1 <1>        -0.0004
     10 C10         3.5855    0.4415   -0.0100 C.ar      1 <1>         0.1074
     11 C11         2.7025    2.2256   -1.3416 C.ar      1 <1>         0.0965
     12 C12        -0.5082    3.3301    0.1014 C.2       1 <1>        -0.0198
     13 C13        -2.0259    3.4397   -1.9355 C.3       1 <1>         0.0081
     14 N1          5.6511    0.0951   -0.8739 N.2       1 <1>        -0.2936
     15 N2          2.5125    0.2920    0.7817 N.ar      1 <1>        -0.2699
     16 N3          4.7441   -0.2740    0.0476 N.pl3     1 <1>        -0.2601
     17 N4          1.6324    2.0780   -0.5529 N.ar      1 <1>        -0.2793
     18 N5          2.7506    3.1816   -2.3655 N.pl3     1 <1>        -0.2844
     19 N6         -1.7276    3.5649   -0.5212 N.pl3     1 <1>        -0.3541
     20 N7          0.4629    2.9463   -0.7626 N.pl3     1 <1>        -0.2723
     21 S1         -0.4638    3.4982    1.7724 S.2       1 <1>        -0.2548
     22 H1          5.8494   -4.1568    3.4349 H         1 <1>         0.1354
     23 H2          4.3204   -2.3213    4.1068 H         1 <1>         0.1391
     24 H3          6.8576   -4.1646    1.1694 H         1 <1>         0.1401
     25 H4          3.7984   -0.4989    2.5248 H         1 <1>         0.1531
     26 H5          6.3451   -2.3488   -0.4243 H         1 <1>         0.1584
     27 H6          5.5603    1.5634   -2.3486 H         1 <1>         0.2991
     28 H7          0.6386    1.1474    1.0045 H         1 <1>         0.4062
     29 H8         -1.8249    4.3846   -2.4469 H         1 <1>         0.1178
     30 H9         -3.0784    3.1792   -2.0781 H         1 <1>         0.1184
     31 H10        -1.4075    2.6579   -2.3845 H         1 <1>         0.1219
     32 H11         3.5911    3.2906   -2.9041 H         1 <1>         0.3145
     33 H12         1.9801    3.8133   -2.4912 H         1 <1>         0.3265
     34 H13        -2.4888    3.8706    0.0773 H         1 <1>         0.3014
     35 H14         0.3940    3.2075   -1.7222 H         1 <1>         0.3886
@<TRIPOS>BOND
     1    1    2 ar
     2    1    3 ar
     3    2    4 ar
     4    3    5 ar
     5    4    9 ar
     6    5    9 ar
     7    6    8 1
     8    6   14 2
     9    7   15 ar
    10    7   17 ar
    11    8   10 ar
    12    8   11 ar
    13    9   16 1
    14   10   15 ar
    15   10   16 1
    16   11   17 ar
    17   11   18 1
    18   12   19 1
    19   12   20 1
    20   12   21 2
    21   13   19 1
    22   14   16 1
    23   17   20 1
    24    1   22 1
    25    2   23 1
    26    3   24 1
    27    4   25 1
    28    5   26 1
    29    6   27 1
    30    7   28 1
    31   13   29 1
    32   13   30 1
    33   13   31 1
    34   18   32 1
    35   18   33 1
    36   19   34 1
    37   20   35 1
