@<TRIPOS>MOLECULE
AG-690/40749446
   42    44     0
SMALL
USER_CHARGE


@<TRIPOS>ATOM
      1 C1          3.1632    2.7422   -2.1468 C.1       1 <1>         0.0366
      2 C2          5.8743   -3.5138    2.7499 C.ar      1 <1>        -0.0961
      3 C3          5.5117   -2.2995    3.3327 C.ar      1 <1>        -0.0919
      4 C4          5.7535   -3.6894    1.3714 C.ar      1 <1>        -0.0907
      5 C5          5.0282   -1.2608    2.5370 C.ar      1 <1>        -0.0755
      6 C6          5.2700   -2.6507    0.5758 C.ar      1 <1>        -0.0727
      7 C7          0.2803    0.9407   -0.2044 C.ar      1 <1>        -0.0667
      8 C8          1.2587    3.1067    0.2295 C.ar      1 <1>        -0.0653
      9 C9         -0.9925    1.4762   -0.0069 C.ar      1 <1>        -0.0561
     10 C10        -0.0140    3.6421    0.4269 C.ar      1 <1>        -0.0556
     11 C11         3.1415    0.1645    0.5386 C.ar      1 <1>        -0.0228
     12 C12         3.5775    1.6728   -1.2834 C.ar      1 <1>         0.0974
     13 C13         1.4060    1.7560   -0.0861 C.ar      1 <1>        -0.0467
     14 C14         4.9074   -1.4364    1.1586 C.ar      1 <1>        -0.0494
     15 C15         2.7263    1.2005   -0.2905 C.ar      1 <1>         0.0095
     16 C16        -1.1396    2.8269    0.3088 C.ar      1 <1>        -0.0143
     17 C17         4.4073   -0.3612    0.3355 C.ar      1 <1>        -0.0124
     18 C18         4.8239    1.0797   -1.4048 C.ar      1 <1>         0.0501
     19 C19         6.8066    2.8552   -0.3580 C.3       1 <1>        -0.0445
     20 C20         8.1574    0.8773   -1.1354 C.3       1 <1>        -0.0428
     21 C21         7.3612    2.1045   -1.5628 C.3       1 <1>        -0.0050
     22 N1          2.8281    3.6067   -2.8447 N.1       1 <1>        -0.3783
     23 N2          5.2623    0.0714   -0.6183 N.ar      1 <1>        -0.3579
     24 S1          6.0065    1.6047   -2.6450 S.3       1 <1>        -0.1573
     25 Cl1        -2.7104    3.4864    0.5539 Cl        1 <1>        -0.1813
     26 H1          6.2522   -4.3217    3.3694 H         1 <1>         0.1193
     27 H2          5.6073   -2.1620    4.4058 H         1 <1>         0.1199
     28 H3          6.0369   -4.6341    0.9167 H         1 <1>         0.1199
     29 H4          4.7500   -0.3200    3.0064 H         1 <1>         0.1345
     30 H5          5.1819   -2.8020   -0.4974 H         1 <1>         0.1427
     31 H6          0.3788   -0.1140   -0.4497 H         1 <1>         0.1407
     32 H7          2.1267    3.7550    0.3260 H         1 <1>         0.1460
     33 H8         -1.8610    0.8291   -0.1002 H         1 <1>         0.1469
     34 H9         -0.1137    4.6963    0.6736 H         1 <1>         0.1475
     35 H10         2.4958   -0.2225    1.3221 H         1 <1>         0.1727
     36 H11         6.1516    2.2017    0.2291 H         1 <1>         0.0442
     37 H12         7.6102    3.1925    0.3061 H         1 <1>         0.0470
     38 H13         6.2170    3.7293   -0.6568 H         1 <1>         0.0537
     39 H14         7.5231    0.1935   -0.5602 H         1 <1>         0.0492
     40 H15         9.0028    1.1533   -0.4955 H         1 <1>         0.0558
     41 H16         8.5447    0.3209   -1.9965 H         1 <1>         0.0492
     42 H17         8.0120    2.7740   -2.1352 H         1 <1>         0.1002
@<TRIPOS>BOND
     1    1   12 1
     2    1   22 3
     3    2    3 ar
     4    2    4 ar
     5    3    5 ar
     6    4    6 ar
     7    5   14 ar
     8    6   14 ar
     9    7    9 ar
    10    7   13 ar
    11    8   10 ar
    12    8   13 ar
    13    9   16 ar
    14   10   16 ar
    15   11   15 ar
    16   11   17 ar
    17   12   15 ar
    18   12   18 ar
    19   13   15 1
    20   14   17 1
    21   16   25 1
    22   17   23 ar
    23   18   23 ar
    24   18   24 1
    25   19   21 1
    26   20   21 1
    27   21   24 1
    28    2   26 1
    29    3   27 1
    30    4   28 1
    31    5   29 1
    32    6   30 1
    33    7   31 1
    34    8   32 1
    35    9   33 1
    36   10   34 1
    37   11   35 1
    38   19   36 1
    39   19   37 1
    40   19   38 1
    41   20   39 1
    42   20   40 1
    43   20   41 1
    44   21   42 1
