@<TRIPOS>MOLECULE
AM-807/12740324
   46    49     0
SMALL
USER_CHARGE


@<TRIPOS>ATOM
      1 C1          5.6236   -2.6522    2.8862 C.2       1 <1>        -0.0738
      2 C2          1.0904    2.8589    0.8380 C.ar      1 <1>        -0.0685
      3 C3          0.1726    1.2487   -0.7118 C.ar      1 <1>        -0.0687
      4 C4         -0.1836    3.3890    1.0417 C.ar      1 <1>        -0.0566
      5 C5         -1.1016    1.7788   -0.5080 C.ar      1 <1>        -0.0565
      6 C6          5.0768   -1.4040    2.4703 C.2       1 <1>        -0.0589
      7 C7          3.0555    0.2034    0.5504 C.ar      1 <1>        -0.0265
      8 C8          5.8021   -3.5171    1.8289 C.2       1 <1>        -0.0422
      9 C9          3.4238    1.7431   -1.2677 C.ar      1 <1>         0.0075
     10 C10         1.2684    1.7888   -0.0389 C.ar      1 <1>        -0.0581
     11 C11         2.5874    1.2404   -0.2502 C.ar      1 <1>        -0.0260
     12 C12         3.2472    2.7796   -2.2396 C.2       1 <1>         0.0114
     13 C13        -1.2796    2.8490    0.3688 C.ar      1 <1>        -0.0144
     14 C14         4.3259   -0.2890    0.3098 C.ar      1 <1>         0.0073
     15 C15         4.8582   -1.3623    1.1107 C.2       1 <1>        -0.0090
     16 C16         4.3480    2.9352   -3.0531 C.2       1 <1>         0.0672
     17 C17         4.6771    1.1537   -1.3972 C.ar      1 <1>         0.0496
     18 C18         4.5597    3.8509   -4.1298 C.2       1 <1>         0.0873
     19 C19         7.1044    3.9227   -6.8373 C.3       1 <1>        -0.0471
     20 C20         6.8223    5.9209   -5.3294 C.3       1 <1>        -0.0493
     21 C21         6.1684    4.6704   -5.8989 C.3       1 <1>        -0.0115
     22 N1          5.1734    0.1482   -0.6461 N.ar      1 <1>        -0.3458
     23 N2          2.1305    3.5392   -2.3674 N.pl3     1 <1>        -0.3455
     24 N3          5.7964    3.7988   -4.8078 N.am      1 <1>        -0.3367
     25 O1          3.6862    4.6935   -4.4564 O.2       1 <1>        -0.5144
     26 S1          5.3113   -2.8238    0.3420 S.3       1 <1>        -0.1523
     27 S2          5.5996    1.8401   -2.6564 S.3       1 <1>        -0.0644
     28 Cl1        -2.8511    3.5045    0.6196 Cl        1 <1>        -0.1807
     29 H1          5.8742   -2.9032    3.9085 H         1 <1>         0.1208
     30 H2          1.9348    3.2910    1.3696 H         1 <1>         0.1443
     31 H3          0.2953    0.4150   -1.3992 H         1 <1>         0.1438
     32 H4         -0.3079    4.2243    1.7265 H         1 <1>         0.1467
     33 H5         -1.9463    1.3488   -1.0401 H         1 <1>         0.1472
     34 H6          4.8588   -0.5822    3.1412 H         1 <1>         0.1427
     35 H7          2.4370   -0.2080    1.3442 H         1 <1>         0.1710
     36 H8          6.1976   -4.5225    1.8585 H         1 <1>         0.1808
     37 H9          8.0257    3.6341   -6.3208 H         1 <1>         0.0476
     38 H10         6.6346    3.0142   -7.2306 H         1 <1>         0.0542
     39 H11         7.3778    4.5488   -7.6937 H         1 <1>         0.0481
     40 H12         7.7394    5.6668   -4.7868 H         1 <1>         0.0485
     41 H13         6.1478    6.4318   -4.6346 H         1 <1>         0.0435
     42 H14         7.0942    6.6269   -6.1222 H         1 <1>         0.0456
     43 H15         5.2552    4.9487   -6.4361 H         1 <1>         0.1038
     44 H16         1.2987    3.3816   -1.7855 H         1 <1>         0.2565
     45 H17         2.0345    4.2398   -3.1125 H         1 <1>         0.2466
     46 H18         6.5012    3.1486   -4.4755 H         1 <1>         0.2846
@<TRIPOS>BOND
     1    1    6 1
     2    1    8 2
     3    2    4 ar
     4    2   10 ar
     5    3    5 ar
     6    3   10 ar
     7    4   13 ar
     8    5   13 ar
     9    6   15 2
    10    7   11 ar
    11    7   14 ar
    12    8   26 1
    13    9   11 ar
    14    9   12 1
    15    9   17 ar
    16   10   11 1
    17   12   16 2
    18   12   23 1
    19   13   28 1
    20   14   15 1
    21   14   22 ar
    22   15   26 1
    23   16   18 1
    24   16   27 1
    25   17   22 ar
    26   17   27 1
    27   18   24 am
    28   18   25 2
    29   19   21 1
    30   20   21 1
    31   21   24 1
    32    1   29 1
    33    2   30 1
    34    3   31 1
    35    4   32 1
    36    5   33 1
    37    6   34 1
    38    7   35 1
    39    8   36 1
    40   19   37 1
    41   19   38 1
    42   19   39 1
    43   20   40 1
    44   20   41 1
    45   20   42 1
    46   21   43 1
    47   23   44 1
    48   23   45 1
    49   24   46 1
