@<TRIPOS>MOLECULE
AO-081/40738502
   52    55     0
SMALL
USER_CHARGE


@<TRIPOS>ATOM
      1 C1          5.9443   -3.0837    2.2602 C.ar      1 <1>        -0.0901
      2 C2          6.1329   -2.7968    0.9082 C.ar      1 <1>        -0.0808
      3 C3          5.0108   -2.3610    3.0030 C.ar      1 <1>        -0.0813
      4 C4         -0.3238    1.2807   -0.4508 C.ar      1 <1>        -0.0685
      5 C5          0.5942    2.8919    1.0979 C.ar      1 <1>        -0.0675
      6 C6         -1.5893    1.8441   -0.2869 C.ar      1 <1>        -0.0897
      7 C7         -0.6713    3.4554    1.2618 C.ar      1 <1>        -0.0903
      8 C8          5.3878   -1.7871    0.2991 C.ar      1 <1>        -0.0545
      9 C9          4.2658   -1.3513    2.3938 C.ar      1 <1>        -0.0550
     10 C10         4.4071    2.4843   -2.6228 C.ar      1 <1>        -0.0035
     11 C11         3.0526    1.5795   -0.8789 C.ar      1 <1>         0.0633
     12 C12         0.7679    1.8046    0.2416 C.ar      1 <1>        -0.0303
     13 C13        -1.7629    2.9314    0.5694 C.ar      1 <1>        -0.1080
     14 C14         3.2000    2.4999   -1.9239 C.ar      1 <1>         0.1055
     15 C15         4.4543   -1.0642    1.0419 C.ar      1 <1>        -0.0092
     16 C16         2.0753    1.2227    0.0714 C.2       1 <1>         0.0421
     17 C17         5.3874    1.5699   -2.2522 C.ar      1 <1>        -0.0257
     18 C18         4.1097    0.7228   -0.6140 C.ar      1 <1>         0.0558
     19 C19         6.6759    1.5648   -3.0113 C.3       1 <1>        -0.0028
     20 C20        -4.1338    2.4891    1.2972 C.3       1 <1>        -0.0604
     21 C21        -3.6778    4.0638   -0.6130 C.3       1 <1>        -0.0606
     22 C22        -3.1892    4.7487    1.7267 C.3       1 <1>        -0.0604
     23 C23        -3.1161    3.5339    0.7429 C.3       1 <1>        -0.0511
     24 C24         2.1452    3.4803   -2.3184 C.3       1 <1>         0.3535
     25 N1          2.4704    0.2276    0.8725 N.2       1 <1>        -0.3093
     26 N2          5.2921    0.6618   -1.2509 N.ar      1 <1>        -0.3587
     27 N3          3.7098   -0.0551    0.4322 N.pl3     1 <1>        -0.2796
     28 F1          2.5069    4.2801   -3.3641 F         1 <1>        -0.2094
     29 F2          0.9739    2.8949   -2.7046 F         1 <1>        -0.2071
     30 F3          1.8145    4.3300   -1.3035 F         1 <1>        -0.2068
     31 H1          6.5229   -3.8710    2.7344 H         1 <1>         0.1212
     32 H2          6.8587   -3.3603    0.3294 H         1 <1>         0.1305
     33 H3          4.8635   -2.5860    4.0555 H         1 <1>         0.1295
     34 H4         -0.2053    0.4330   -1.1215 H         1 <1>         0.1385
     35 H5          1.4353    3.3118    1.6447 H         1 <1>         0.1444
     36 H6         -2.4343    1.4305   -0.8307 H         1 <1>         0.1270
     37 H7         -0.7983    4.3025    1.9307 H         1 <1>         0.1245
     38 H8          5.5439   -1.5741   -0.7556 H         1 <1>         0.1504
     39 H9          3.5409   -0.7960    2.9844 H         1 <1>         0.1492
     40 H10         4.5782    3.1766   -3.4425 H         1 <1>         0.1766
     41 H11         7.3922    2.2495   -2.5443 H         1 <1>         0.0995
     42 H12         7.1148    0.5606   -3.0365 H         1 <1>         0.0972
     43 H13         6.5217    1.8738   -4.0518 H         1 <1>         0.0976
     44 H14        -5.1379    2.9071    1.4341 H         1 <1>         0.0389
     45 H15        -4.2337    1.6303    0.6243 H         1 <1>         0.0404
     46 H16        -3.7953    2.1086    2.2682 H         1 <1>         0.0392
     47 H17        -4.6719    4.5072   -0.4896 H         1 <1>         0.0391
     48 H18        -3.0388    4.8314   -1.0653 H         1 <1>         0.0393
     49 H19        -3.7713    3.2415   -1.3320 H         1 <1>         0.0391
     50 H20        -4.2031    5.1560    1.8204 H         1 <1>         0.0392
     51 H21        -2.8661    4.4559    2.7325 H         1 <1>         0.0405
     52 H22        -2.5442    5.5664    1.3849 H         1 <1>         0.0389
@<TRIPOS>BOND
     1    1    2 ar
     2    1    3 ar
     3    2    8 ar
     4    3    9 ar
     5    4    6 ar
     6    4   12 ar
     7    5    7 ar
     8    5   12 ar
     9    6   13 ar
    10    7   13 ar
    11    8   15 ar
    12    9   15 ar
    13   10   14 ar
    14   10   17 ar
    15   11   14 ar
    16   11   16 1
    17   11   18 ar
    18   12   16 1
    19   13   23 1
    20   14   24 1
    21   15   27 1
    22   16   25 2
    23   17   19 1
    24   17   26 ar
    25   18   26 ar
    26   18   27 1
    27   20   23 1
    28   21   23 1
    29   22   23 1
    30   24   28 1
    31   24   29 1
    32   24   30 1
    33   25   27 1
    34    1   31 1
    35    2   32 1
    36    3   33 1
    37    4   34 1
    38    5   35 1
    39    6   36 1
    40    7   37 1
    41    8   38 1
    42    9   39 1
    43   10   40 1
    44   19   41 1
    45   19   42 1
    46   19   43 1
    47   20   44 1
    48   20   45 1
    49   20   46 1
    50   21   47 1
    51   21   48 1
    52   21   49 1
    53   22   50 1
    54   22   51 1
    55   22   52 1
