@<TRIPOS>MOLECULE
AG-690/40749461
   40    42     0
SMALL
USER_CHARGE


@<TRIPOS>ATOM
      1 C1          3.0868    2.7708   -2.1325 C.1       1 <1>         0.0355
      2 C2          5.0248   -1.2387    2.5167 C.ar      1 <1>        -0.0549
      3 C3          5.2605   -2.6168    0.5464 C.ar      1 <1>        -0.0628
      4 C4          1.1765    2.8280    0.8192 C.ar      1 <1>        -0.0654
      5 C5          0.2591    1.2190   -0.7321 C.ar      1 <1>        -0.0667
      6 C6          5.5234   -2.2773    3.3029 C.ar      1 <1>        -0.0534
      7 C7          5.7591   -3.6556    1.3326 C.ar      1 <1>        -0.0617
      8 C8         -0.0988    3.3527    1.0292 C.ar      1 <1>        -0.0557
      9 C9         -1.0161    1.7436   -0.5221 C.ar      1 <1>        -0.0561
     10 C10         3.1092    0.1808    0.5410 C.ar      1 <1>        -0.0239
     11 C11         3.5173    1.7009   -1.2776 C.ar      1 <1>         0.0960
     12 C12         1.3556    1.7611   -0.0615 C.ar      1 <1>        -0.0469
     13 C13         4.8933   -1.4085    1.1384 C.ar      1 <1>        -0.0427
     14 C14         2.6785    1.2173   -0.2797 C.ar      1 <1>         0.0086
     15 C15         5.8905   -3.4857    2.7109 C.ar      1 <1>        -0.0353
     16 C16        -1.1950    2.8105    0.3586 C.ar      1 <1>        -0.0145
     17 C17         4.3773   -0.3336    0.3246 C.ar      1 <1>        -0.0128
     18 C18         4.7673    1.1185   -1.4125 C.ar      1 <1>         0.0487
     19 C19         6.4862   -4.2572    4.8802 C.3       1 <1>         0.0114
     20 C20         7.2949    0.5303   -2.2950 C.3       1 <1>         0.0057
     21 N1          2.7388    3.6358   -2.8235 N.1       1 <1>        -0.3790
     22 N2          5.2206    0.1102   -0.6345 N.ar      1 <1>        -0.3602
     23 O1          6.3776   -4.4987    3.4781 O.3       1 <1>        -0.4624
     24 S1          5.9349    1.6587   -2.6603 S.3       1 <1>        -0.1540
     25 Cl1        -2.7679    3.4593    0.6171 Cl        1 <1>        -0.1816
     26 H1          4.7429   -0.3025    2.9927 H         1 <1>         0.1592
     27 H2          5.1640   -2.7646   -0.5266 H         1 <1>         0.1445
     28 H3          2.0213    3.2616    1.3492 H         1 <1>         0.1459
     29 H4          0.3826    0.3878   -1.4224 H         1 <1>         0.1409
     30 H5          5.6237   -2.1390    4.3759 H         1 <1>         0.1466
     31 H6          6.0437   -4.5946    0.8659 H         1 <1>         0.1300
     32 H7         -0.2236    4.1854    1.7169 H         1 <1>         0.1473
     33 H8         -1.8613    1.3119   -1.0524 H         1 <1>         0.1469
     34 H9          2.4733   -0.2149    1.3283 H         1 <1>         0.1714
     35 H10         6.8878   -5.1455    5.3737 H         1 <1>         0.1098
     36 H11         5.5009   -4.0155    5.2867 H         1 <1>         0.1332
     37 H12         7.1624   -3.4149    5.0444 H         1 <1>         0.1098
     38 H13         8.1266    0.7168   -2.9786 H         1 <1>         0.0974
     39 H14         6.9612   -0.5035   -2.4134 H         1 <1>         0.0974
     40 H15         7.6358    0.6805   -1.2678 H         1 <1>         0.1038
@<TRIPOS>BOND
     1    1   11 1
     2    1   21 3
     3    2    6 ar
     4    2   13 ar
     5    3    7 ar
     6    3   13 ar
     7    4    8 ar
     8    4   12 ar
     9    5    9 ar
    10    5   12 ar
    11    6   15 ar
    12    7   15 ar
    13    8   16 ar
    14    9   16 ar
    15   10   14 ar
    16   10   17 ar
    17   11   14 ar
    18   11   18 ar
    19   12   14 1
    20   13   17 1
    21   15   23 1
    22   16   25 1
    23   17   22 ar
    24   18   22 ar
    25   18   24 1
    26   19   23 1
    27   20   24 1
    28    2   26 1
    29    3   27 1
    30    4   28 1
    31    5   29 1
    32    6   30 1
    33    7   31 1
    34    8   32 1
    35    9   33 1
    36   10   34 1
    37   19   35 1
    38   19   36 1
    39   19   37 1
    40   20   38 1
    41   20   39 1
    42   20   40 1
