@<TRIPOS>MOLECULE
AM-807/14956052
   34    37     0
SMALL
USER_CHARGE


@<TRIPOS>ATOM
      1 C1          4.4775    3.8076   -4.2294 C.1       1 <1>         0.0456
      2 C2          5.6531   -2.5465    2.9302 C.2       1 <1>        -0.0736
      3 C3          1.1148    2.9141    0.7655 C.ar      1 <1>        -0.0685
      4 C4          0.1879    1.2653   -0.7377 C.ar      1 <1>        -0.0684
      5 C5         -0.1579    3.4497    0.9630 C.ar      1 <1>        -0.0568
      6 C6         -1.0848    1.8010   -0.5403 C.ar      1 <1>        -0.0564
      7 C7          5.1057   -1.3087    2.4850 C.2       1 <1>        -0.0586
      8 C8          3.0770    0.2512    0.5349 C.ar      1 <1>        -0.0253
      9 C9          5.8255   -3.4382    1.8945 C.2       1 <1>        -0.0421
     10 C10         4.3524    2.8886   -3.1443 C.2       1 <1>         0.1241
     11 C11         3.4368    1.7435   -1.3241 C.ar      1 <1>         0.0166
     12 C12         1.2878    1.8219   -0.0849 C.ar      1 <1>        -0.0576
     13 C13         2.6056    1.2679   -0.2896 C.ar      1 <1>        -0.0237
     14 C14         3.2559    2.7548   -2.3213 C.2       1 <1>         0.0299
     15 C15        -1.2577    2.8930    0.3100 C.ar      1 <1>        -0.0146
     16 C16         4.3458   -0.2482    0.3003 C.ar      1 <1>         0.0091
     17 C17         4.8807   -1.3014    1.1258 C.2       1 <1>        -0.0084
     18 C18         4.6890    1.1499   -1.4450 C.ar      1 <1>         0.0649
     19 N1          4.5792    4.5546   -5.1116 N.1       1 <1>        -0.3792
     20 N2          5.1886    0.1636   -0.6710 N.ar      1 <1>        -0.3406
     21 N3          2.1337    3.5078   -2.4548 N.pl3     1 <1>        -0.3453
     22 S1          5.3284   -2.7827    0.3927 S.3       1 <1>        -0.1521
     23 S2          5.6053    1.8030   -2.7263 S.3       1 <1>        -0.0292
     24 Cl1        -2.8276    3.5553    0.5530 Cl        1 <1>        -0.1807
     25 H1          5.9082   -2.7716    3.9574 H         1 <1>         0.1210
     26 H2          1.9623    3.3590    1.2814 H         1 <1>         0.1447
     27 H3          0.3067    0.4145   -1.4045 H         1 <1>         0.1445
     28 H4         -0.2782    4.3021    1.6269 H         1 <1>         0.1461
     29 H5         -1.9328    1.3578   -1.0565 H         1 <1>         0.1473
     30 H6          4.8919   -0.4697    3.1357 H         1 <1>         0.1433
     31 H7          2.4629   -0.1395    1.3423 H         1 <1>         0.1723
     32 H8          6.2200   -4.4433    1.9478 H         1 <1>         0.1811
     33 H9          2.0646    4.2553   -3.1552 H         1 <1>         0.2451
     34 H10         1.3464    3.4245   -1.8012 H         1 <1>         0.2453
@<TRIPOS>BOND
     1    1   10 1
     2    1   19 3
     3    2    7 1
     4    2    9 2
     5    3    5 ar
     6    3   12 ar
     7    4    6 ar
     8    4   12 ar
     9    5   15 ar
    10    6   15 ar
    11    7   17 2
    12    8   13 ar
    13    8   16 ar
    14    9   22 1
    15   10   14 2
    16   10   23 1
    17   11   13 ar
    18   11   14 1
    19   11   18 ar
    20   12   13 1
    21   14   21 1
    22   15   24 1
    23   16   17 1
    24   16   20 ar
    25   17   22 1
    26   18   20 ar
    27   18   23 1
    28    2   25 1
    29    3   26 1
    30    4   27 1
    31    5   28 1
    32    6   29 1
    33    7   30 1
    34    8   31 1
    35    9   32 1
    36   21   33 1
    37   21   34 1
