@<TRIPOS>MOLECULE
AF-399/14664025
   29    32     0
SMALL
USER_CHARGE


@<TRIPOS>ATOM
      1 C1          0.8013    3.5000    0.0888 C.ar      1 <1>        -0.0885
      2 C2          0.2409    1.2161   -0.4652 C.ar      1 <1>        -0.0852
      3 C3         -0.4602    3.6714    0.6587 C.ar      1 <1>        -0.1007
      4 C4         -1.0207    1.3875    0.1049 C.ar      1 <1>        -0.0974
      5 C5          2.8552    2.8839   -2.1191 C.2       1 <1>         0.0046
      6 C6          4.4027   -1.4041    1.4277 C.2       1 <1>         0.0719
      7 C7          1.1519    2.2724   -0.4733 C.ar      1 <1>        -0.0669
      8 C8          2.4536    2.0959   -1.0605 C.2       1 <1>        -0.0138
      9 C9          3.4688    1.1810   -0.7100 C.2       1 <1>         0.0383
     10 C10        -1.3711    2.6150    0.6668 C.ar      1 <1>        -0.1111
     11 C11         4.6163    1.2724   -1.4838 C.2       1 <1>         0.0578
     12 C12         3.5065    0.2102    0.2780 C.2       1 <1>         0.0782
     13 C13         5.7503   -0.3846   -0.4307 C.2       1 <1>         0.0638
     14 C14        -2.7192    2.7990    1.2777 C.3       1 <1>        -0.0439
     15 N1          3.1959   -1.1800    1.9094 N.2       1 <1>        -0.2857
     16 N2          2.6229   -0.1494    1.1759 N.2       1 <1>        -0.2819
     17 N3          5.7604    0.5180   -1.3757 N.2       1 <1>        -0.3213
     18 N4          4.6406   -0.5493    0.3974 N.pl3     1 <1>        -0.2606
     19 S1          4.4408    2.5032   -2.6602 S.3       1 <1>        -0.0919
     20 H1          1.4996    4.3336    0.0899 H         1 <1>         0.1245
     21 H2          0.4992    0.2529   -0.8992 H         1 <1>         0.1293
     22 H3         -0.7251    4.6308    1.0951 H         1 <1>         0.1147
     23 H4         -1.7246    0.5595    0.1072 H         1 <1>         0.1193
     24 H5          2.3027    3.6732   -2.6114 H         1 <1>         0.2154
     25 H6          5.1117   -2.1415    1.7756 H         1 <1>         0.3146
     26 H7          6.6247   -1.0352   -0.2707 H         1 <1>         0.3437
     27 H8         -3.4334    3.1573    0.5262 H         1 <1>         0.0591
     28 H9         -3.0984    1.8580    1.6971 H         1 <1>         0.0572
     29 H10        -2.6879    3.5239    2.1014 H         1 <1>         0.0567
@<TRIPOS>BOND
     1    1    3 ar
     2    1    7 ar
     3    2    4 ar
     4    2    7 ar
     5    3   10 ar
     6    4   10 ar
     7    5    8 2
     8    5   19 1
     9    6   15 2
    10    6   18 1
    11    7    8 1
    12    8    9 1
    13    9   11 2
    14    9   12 1
    15   10   14 1
    16   11   17 1
    17   11   19 1
    18   12   16 2
    19   12   18 1
    20   13   17 2
    21   13   18 1
    22   15   16 1
    23    1   20 1
    24    2   21 1
    25    3   22 1
    26    4   23 1
    27    5   24 1
    28    6   25 1
    29   13   26 1
    30   14   27 1
    31   14   28 1
    32   14   29 1
