@<TRIPOS>MOLECULE
AG-690/40749470
   46    48     0
SMALL
USER_CHARGE


@<TRIPOS>ATOM
      1 C1          3.0872    2.7709   -2.1329 C.1       1 <1>         0.0356
      2 C2          5.0245   -1.2385    2.5166 C.ar      1 <1>        -0.0629
      3 C3          5.2604   -2.6167    0.5463 C.ar      1 <1>        -0.0549
      4 C4          0.2356    0.9376   -0.1745 C.ar      1 <1>        -0.0668
      5 C5          1.2003    3.1094    0.2610 C.ar      1 <1>        -0.0654
      6 C6          5.5230   -2.2771    3.3029 C.ar      1 <1>        -0.0618
      7 C7          5.7589   -3.6554    1.3327 C.ar      1 <1>        -0.0536
      8 C8         -1.0397    1.4618    0.0363 C.ar      1 <1>        -0.0562
      9 C9         -0.0749    3.6336    0.4718 C.ar      1 <1>        -0.0557
     10 C10         3.1092    0.1811    0.5406 C.ar      1 <1>        -0.0239
     11 C11         3.5176    1.7011   -1.2779 C.ar      1 <1>         0.0966
     12 C12         1.3557    1.7614   -0.0621 C.ar      1 <1>        -0.0470
     13 C13         4.8932   -1.4083    1.1384 C.ar      1 <1>        -0.0426
     14 C14         2.6787    1.2175   -0.2802 C.ar      1 <1>         0.0088
     15 C15         5.8901   -3.4855    2.7109 C.ar      1 <1>        -0.0354
     16 C16        -1.1950    2.8098    0.3594 C.ar      1 <1>        -0.0145
     17 C17         4.3774   -0.3335    0.3244 C.ar      1 <1>        -0.0123
     18 C18         4.7676    1.1186   -1.4126 C.ar      1 <1>         0.0494
     19 C19         8.2019    0.4059   -3.5134 C.3       1 <1>        -0.0445
     20 C20         8.0645    1.0297   -1.0777 C.3       1 <1>        -0.0429
     21 C21         6.7333   -5.7072    2.8086 C.3       1 <1>         0.0114
     22 C22         7.2952    0.5302   -2.2948 C.3       1 <1>        -0.0050
     23 N1          2.7395    3.6360   -2.8240 N.1       1 <1>        -0.3793
     24 N2          5.2207    0.1103   -0.6346 N.ar      1 <1>        -0.3588
     25 O1          6.3770   -4.4986    3.4783 O.3       1 <1>        -0.4625
     26 S1          5.9354    1.6587   -2.6604 S.3       1 <1>        -0.1576
     27 Cl1        -2.7688    3.4556    0.6208 Cl        1 <1>        -0.1816
     28 H1          4.7427   -0.3023    2.9925 H         1 <1>         0.1443
     29 H2          5.1641   -2.7645   -0.5266 H         1 <1>         0.1593
     30 H3          0.3406   -0.1153   -0.4255 H         1 <1>         0.1407
     31 H4          2.0638    3.7642    0.3531 H         1 <1>         0.1458
     32 H5          5.6232   -2.1389    4.3760 H         1 <1>         0.1299
     33 H6          6.0435   -4.5945    0.8661 H         1 <1>         0.1463
     34 H7         -1.9039    0.8081   -0.0528 H         1 <1>         0.1468
     35 H8         -0.1811    4.6858    0.7241 H         1 <1>         0.1472
     36 H9          2.4733   -0.2146    1.3279 H         1 <1>         0.1709
     37 H10         8.6475    1.3769   -3.7569 H         1 <1>         0.0441
     38 H11         9.0251   -0.2931   -3.3283 H         1 <1>         0.0472
     39 H12         7.6529    0.0649   -4.3985 H         1 <1>         0.0538
     40 H13         8.5081    2.0102   -1.2836 H         1 <1>         0.0492
     41 H14         8.8834    0.3499   -0.8169 H         1 <1>         0.0559
     42 H15         7.4160    1.1395   -0.2009 H         1 <1>         0.0491
     43 H16         7.1068   -6.4315    3.5366 H         1 <1>         0.1097
     44 H17         7.5017   -5.4973    2.0603 H         1 <1>         0.1097
     45 H18         5.8477   -6.1140    2.3146 H         1 <1>         0.1332
     46 H19         6.8605   -0.4492   -2.0685 H         1 <1>         0.1004
@<TRIPOS>BOND
     1    1   11 1
     2    1   23 3
     3    2    6 ar
     4    2   13 ar
     5    3    7 ar
     6    3   13 ar
     7    4    8 ar
     8    4   12 ar
     9    5    9 ar
    10    5   12 ar
    11    6   15 ar
    12    7   15 ar
    13    8   16 ar
    14    9   16 ar
    15   10   14 ar
    16   10   17 ar
    17   11   14 ar
    18   11   18 ar
    19   12   14 1
    20   13   17 1
    21   15   25 1
    22   16   27 1
    23   17   24 ar
    24   18   24 ar
    25   18   26 1
    26   19   22 1
    27   20   22 1
    28   21   25 1
    29   22   26 1
    30    2   28 1
    31    3   29 1
    32    4   30 1
    33    5   31 1
    34    6   32 1
    35    7   33 1
    36    8   34 1
    37    9   35 1
    38   10   36 1
    39   19   37 1
    40   19   38 1
    41   19   39 1
    42   20   40 1
    43   20   41 1
    44   20   42 1
    45   21   43 1
    46   21   44 1
    47   21   45 1
    48   22   46 1
