@<TRIPOS>MOLECULE
AG-690/40749447
   37    39     0
SMALL
USER_CHARGE


@<TRIPOS>ATOM
      1 C1          3.1632    2.7422   -2.1468 C.1       1 <1>         0.0397
      2 C2          8.0183    2.3278   -0.9695 C.1       1 <1>        -0.0055
      3 C3          5.8743   -3.5138    2.7499 C.ar      1 <1>        -0.0956
      4 C4          5.5117   -2.2995    3.3327 C.ar      1 <1>        -0.0902
      5 C5          5.7535   -3.6894    1.3714 C.ar      1 <1>        -0.0915
      6 C6          5.0282   -1.2608    2.5370 C.ar      1 <1>        -0.0723
      7 C7          5.2700   -2.6507    0.5758 C.ar      1 <1>        -0.0750
      8 C8          0.2803    0.9407   -0.2044 C.ar      1 <1>        -0.0648
      9 C9          1.2587    3.1067    0.2295 C.ar      1 <1>        -0.0663
     10 C10        -0.9925    1.4762   -0.0069 C.ar      1 <1>        -0.0552
     11 C11        -0.0140    3.6421    0.4269 C.ar      1 <1>        -0.0558
     12 C12         3.1415    0.1645    0.5386 C.ar      1 <1>        -0.0207
     13 C13         3.5775    1.6728   -1.2834 C.ar      1 <1>         0.1042
     14 C14         1.4060    1.7560   -0.0861 C.ar      1 <1>        -0.0458
     15 C15         4.9074   -1.4364    1.1586 C.ar      1 <1>        -0.0488
     16 C16         2.7263    1.2005   -0.2905 C.ar      1 <1>         0.0120
     17 C17        -1.1396    2.8269    0.3088 C.ar      1 <1>        -0.0138
     18 C18         4.4073   -0.3612    0.3355 C.ar      1 <1>        -0.0107
     19 C19         4.8239    1.0797   -1.4048 C.ar      1 <1>         0.0740
     20 C20         6.8740    2.8748   -1.7013 C.3       1 <1>         0.1319
     21 N1          2.8281    3.6067   -2.8447 N.1       1 <1>        -0.3759
     22 N2          8.9262    1.8997   -0.3870 N.1       1 <1>        -0.4029
     23 N3          5.2623    0.0714   -0.6183 N.ar      1 <1>        -0.3528
     24 S1          6.0065    1.6047   -2.6450 S.3       1 <1>        -0.0768
     25 Cl1        -2.7104    3.4864    0.5539 Cl        1 <1>        -0.1806
     26 H1          6.2522   -4.3217    3.3694 H         1 <1>         0.1200
     27 H2          5.6073   -2.1620    4.4058 H         1 <1>         0.1207
     28 H3          6.0369   -4.6341    0.9167 H         1 <1>         0.1204
     29 H4          4.7500   -0.3200    3.0064 H         1 <1>         0.1431
     30 H5          5.1819   -2.8020   -0.4974 H         1 <1>         0.1351
     31 H6          0.3788   -0.1140   -0.4497 H         1 <1>         0.1466
     32 H7          2.1267    3.7550    0.3260 H         1 <1>         0.1411
     33 H8         -1.8610    0.8291   -0.1002 H         1 <1>         0.1479
     34 H9         -0.1137    4.6963    0.6736 H         1 <1>         0.1473
     35 H10         2.4958   -0.2225    1.3221 H         1 <1>         0.1765
     36 H11         7.2039    3.6543   -2.3945 H         1 <1>         0.2205
     37 H12         6.1632    3.3295   -1.0046 H         1 <1>         0.2205
@<TRIPOS>BOND
     1    1   13 1
     2    1   21 3
     3    2   20 1
     4    2   22 3
     5    3    4 ar
     6    3    5 ar
     7    4    6 ar
     8    5    7 ar
     9    6   15 ar
    10    7   15 ar
    11    8   10 ar
    12    8   14 ar
    13    9   11 ar
    14    9   14 ar
    15   10   17 ar
    16   11   17 ar
    17   12   16 ar
    18   12   18 ar
    19   13   16 ar
    20   13   19 ar
    21   14   16 1
    22   15   18 1
    23   17   25 1
    24   18   23 ar
    25   19   23 ar
    26   19   24 1
    27   20   24 1
    28    3   26 1
    29    4   27 1
    30    5   28 1
    31    6   29 1
    32    7   30 1
    33    8   31 1
    34    9   32 1
    35   10   33 1
    36   11   34 1
    37   12   35 1
    38   20   36 1
    39   20   37 1
