@<TRIPOS>MOLECULE
AP-960/41299812
   40    43     0
SMALL
USER_CHARGE


@<TRIPOS>ATOM
      1 C1          5.2160   -2.4843    0.4045 C.ar      1 <1>        -0.0371
      2 C2          4.8175   -1.1007    2.3446 C.ar      1 <1>        -0.0373
      3 C3          1.0113    3.1721    0.2984 C.ar      1 <1>        -0.0367
      4 C4         -0.1152    1.1228   -0.3088 C.ar      1 <1>        -0.0364
      5 C5          5.7935   -3.4589    1.2182 C.ar      1 <1>        -0.0397
      6 C6          5.3950   -2.0753    3.1582 C.ar      1 <1>        -0.0398
      7 C7         -0.2203    3.7699    0.5656 C.ar      1 <1>        -0.0408
      8 C8         -1.3469    1.7207   -0.0416 C.ar      1 <1>        -0.0405
      9 C9          4.7281   -1.3050    0.9677 C.ar      1 <1>         0.0008
     10 C10         1.0638    1.8486   -0.1389 C.ar      1 <1>         0.0063
     11 C11         5.8829   -3.2545    2.5951 C.ar      1 <1>        -0.0019
     12 C12        -1.3993    3.0443    0.3957 C.ar      1 <1>        -0.0036
     13 C13         4.4297    1.2621   -1.6792 C.2       1 <1>         0.0524
     14 C14         4.8971    0.2826   -0.8919 C.2       1 <1>         0.0744
     15 C15         3.1013    1.8583   -1.4157 C.2       1 <1>         0.1275
     16 C16         2.7566    0.0705    0.3263 C.2       1 <1>         0.0431
     17 C17         5.2246    1.8469   -2.8145 C.3       1 <1>         0.0175
     18 C18         6.4699    1.0204   -3.1047 C.3       1 <1>        -0.0082
     19 C19         7.0956    0.5932   -1.7906 C.3       1 <1>         0.0374
     20 N1          4.1295   -0.2957    0.1248 N.pl3     1 <1>        -0.2787
     21 N2          2.3398    1.2290   -0.4153 N.am      1 <1>        -0.2637
     22 O1          2.7671    2.8638   -2.0444 O.2       1 <1>        -0.4800
     23 O2          6.1926   -0.2064   -1.0236 O.3       1 <1>        -0.4113
     24 S1          1.6691   -0.8822    1.2473 S.2       1 <1>        -0.1886
     25 Cl1         6.5953   -4.4575    3.5991 Cl        1 <1>        -0.1724
     26 Cl2        -2.9190    3.7822    0.7255 Cl        1 <1>        -0.1750
     27 H1          5.1517   -2.6537   -0.6672 H         1 <1>         0.1652
     28 H2          4.4405   -0.1855    2.7938 H         1 <1>         0.1647
     29 H3          1.9238    3.7468    0.4338 H         1 <1>         0.1633
     30 H4         -0.0858    0.0909   -0.6488 H         1 <1>         0.1640
     31 H5          6.1693   -4.3730    0.7659 H         1 <1>         0.1598
     32 H6          5.4581   -1.9027    4.2296 H         1 <1>         0.1597
     33 H7         -0.2464    4.8019    0.9058 H         1 <1>         0.1580
     34 H8         -2.2576    1.1436   -0.1783 H         1 <1>         0.1584
     35 H9          4.5916    1.8805   -3.7098 H         1 <1>         0.0898
     36 H10         5.5258    2.8758   -2.5861 H         1 <1>         0.0957
     37 H11         6.2175    0.1512   -3.7204 H         1 <1>         0.0814
     38 H12         7.1852    1.6332   -3.6676 H         1 <1>         0.0726
     39 H13         8.0240    0.0311   -1.9502 H         1 <1>         0.1376
     40 H14         7.3448    1.4747   -1.1908 H         1 <1>         0.1623
@<TRIPOS>BOND
     1    1    5 ar
     2    1    9 ar
     3    2    6 ar
     4    2    9 ar
     5    3    7 ar
     6    3   10 ar
     7    4    8 ar
     8    4   10 ar
     9    5   11 ar
    10    6   11 ar
    11    7   12 ar
    12    8   12 ar
    13    9   20 1
    14   10   21 1
    15   11   25 1
    16   12   26 1
    17   13   14 2
    18   13   15 1
    19   13   17 1
    20   14   20 1
    21   14   23 1
    22   15   21 am
    23   15   22 2
    24   16   20 1
    25   16   21 1
    26   16   24 2
    27   17   18 1
    28   18   19 1
    29   19   23 1
    30    1   27 1
    31    2   28 1
    32    3   29 1
    33    4   30 1
    34    5   31 1
    35    6   32 1
    36    7   33 1
    37    8   34 1
    38   17   35 1
    39   17   36 1
    40   18   37 1
    41   18   38 1
    42   19   39 1
    43   19   40 1
