@<TRIPOS>MOLECULE
AO-435/41051597
   35    38     0
SMALL
USER_CHARGE


@<TRIPOS>ATOM
      1 C1         -1.5026    3.3538   -0.0252 C.ar      1 <1>        -0.0984
      2 C2          6.3033   -3.3109    2.2822 C.ar      1 <1>        -0.0984
      3 C3          4.5966    2.4144   -2.6634 C.ar      1 <1>        -0.0965
      4 C4          5.6610    1.5056   -2.3494 C.ar      1 <1>        -0.0965
      5 C5         -1.3479    2.2159   -0.8171 C.ar      1 <1>        -0.0954
      6 C6         -0.4301    3.8292    0.7293 C.ar      1 <1>        -0.0946
      7 C7          6.5024   -3.0301    0.9306 C.ar      1 <1>        -0.0947
      8 C8          5.3698   -2.5790    3.0164 C.ar      1 <1>        -0.0954
      9 C9          3.3637    2.4573   -1.9762 C.ar      1 <1>        -0.0864
     10 C10         5.6027    0.5455   -1.3154 C.ar      1 <1>        -0.0864
     11 C11        -0.1210    1.5536   -0.8544 C.ar      1 <1>        -0.0845
     12 C12         0.7969    3.1669    0.6920 C.ar      1 <1>        -0.0833
     13 C13         5.7683   -2.0175    0.3129 C.ar      1 <1>        -0.0833
     14 C14         4.6357   -1.5665    2.3988 C.ar      1 <1>        -0.0845
     15 C15         3.3148    1.5065   -0.9573 C.ar      1 <1>        -0.0584
     16 C16         4.3827    0.5947   -0.6422 C.ar      1 <1>        -0.0584
     17 C17         0.9515    2.0291   -0.0999 C.ar      1 <1>        -0.0622
     18 C18         4.8350   -1.2857    1.0471 C.ar      1 <1>        -0.0622
     19 C19         2.2243    1.3424   -0.1393 C.2       1 <1>        -0.0254
     20 C20         4.0729   -0.2360    0.4061 C.2       1 <1>        -0.0254
     21 S1          2.4923    0.0869    1.0084 S.3       1 <1>        -0.1371
     22 H1         -2.4577    3.8699    0.0033 H         1 <1>         0.1165
     23 H2          6.8745   -4.0997    2.7629 H         1 <1>         0.1165
     24 H3          4.7525    3.1150   -3.4838 H         1 <1>         0.1164
     25 H4          6.5702    1.5634   -2.9475 H         1 <1>         0.1164
     26 H5         -2.1833    1.8458   -1.4044 H         1 <1>         0.1189
     27 H6         -0.5500    4.7159    1.3452 H         1 <1>         0.1197
     28 H7          7.2295   -3.5999    0.3591 H         1 <1>         0.1196
     29 H8          5.2140   -2.7984    4.0686 H         1 <1>         0.1189
     30 H9          2.5794    3.1544   -2.2384 H         1 <1>         0.1251
     31 H10         6.4240   -0.1250   -1.1013 H         1 <1>         0.1251
     32 H11        -0.0158    0.6695   -1.4787 H         1 <1>         0.1270
     33 H12         1.6230    3.5494    1.2869 H         1 <1>         0.1303
     34 H13         5.9334   -1.8126   -0.7421 H         1 <1>         0.1304
     35 H14         3.9127   -1.0043    2.9850 H         1 <1>         0.1270
@<TRIPOS>BOND
     1    1    5 ar
     2    1    6 ar
     3    2    7 ar
     4    2    8 ar
     5    3    4 ar
     6    3    9 ar
     7    4   10 ar
     8    5   11 ar
     9    6   12 ar
    10    7   13 ar
    11    8   14 ar
    12    9   15 ar
    13   10   16 ar
    14   11   17 ar
    15   12   17 ar
    16   13   18 ar
    17   14   18 ar
    18   15   16 ar
    19   15   19 2
    20   16   20 2
    21   17   19 1
    22   18   20 1
    23   19   21 1
    24   20   21 1
    25    1   22 1
    26    2   23 1
    27    3   24 1
    28    4   25 1
    29    5   26 1
    30    6   27 1
    31    7   28 1
    32    8   29 1
    33    9   30 1
    34   10   31 1
    35   11   32 1
    36   12   33 1
    37   13   34 1
    38   14   35 1
