@<TRIPOS>MOLECULE
AN-919/15183003
   35    37     0
SMALL
USER_CHARGE


@<TRIPOS>ATOM
      1 C1          3.1948    2.9752   -2.4104 C.1       1 <1>         0.0178
      2 C2          5.9788   -3.2829    2.4464 C.ar      1 <1>        -0.1021
      3 C3          5.0673   -2.3725    2.9809 C.ar      1 <1>        -0.0942
      4 C4          6.3985   -3.1542    1.1225 C.ar      1 <1>        -0.0972
      5 C5          4.5751   -1.3333    2.1912 C.ar      1 <1>        -0.0736
      6 C6          5.9063   -2.1150    0.3328 C.ar      1 <1>        -0.0787
      7 C7          1.2912    3.0399    0.5310 C.ar      1 <1>        -0.0635
      8 C8          0.3740    1.4298   -1.0192 C.ar      1 <1>        -0.0638
      9 C9          0.0164    3.5666    0.7383 C.ar      1 <1>        -0.0418
     10 C10        -0.9009    1.9564   -0.8120 C.ar      1 <1>        -0.0415
     11 C11         3.2177    0.3895    0.2616 C.ar      1 <1>        -0.0366
     12 C12         3.6356    1.9045   -1.5591 C.ar      1 <1>         0.0564
     13 C13         1.4701    1.9715   -0.3476 C.ar      1 <1>        -0.0477
     14 C14         4.9947   -1.2046    0.8671 C.ar      1 <1>        -0.0531
     15 C15         2.7924    1.4254   -0.5627 C.ar      1 <1>        -0.0035
     16 C16        -1.0797    3.0250    0.0667 C.ar      1 <1>         0.0490
     17 C17         4.4852   -0.1287    0.0503 C.ar      1 <1>        -0.0271
     18 C18         4.8845    1.3186   -1.6888 C.ar      1 <1>        -0.0691
     19 C19        -2.4427    3.5882    0.2880 C.3       1 <1>         0.3272
     20 N1          2.8387    3.8399   -3.0977 N.1       1 <1>        -0.3965
     21 N2          5.3327    0.3105   -0.9072 N.ar      1 <1>        -0.4002
     22 F1         -2.4681    4.6293    1.1721 F         1 <1>        -0.2246
     23 F2         -3.0254    4.0724   -0.8486 F         1 <1>        -0.2245
     24 F3         -3.3181    2.6658    0.7838 F         1 <1>        -0.2247
     25 S1          6.0789    1.8560   -2.9533 S.3       1 <1>        -0.4279
     26 H1          6.3632   -4.0910    3.0620 H         1 <1>         0.1087
     27 H2          4.7418   -2.4716    4.0122 H         1 <1>         0.1143
     28 H3          7.1093   -3.8619    0.7061 H         1 <1>         0.1112
     29 H4          3.8652   -0.6314    2.6224 H         1 <1>         0.1455
     30 H5          6.2430   -2.0270   -0.6974 H         1 <1>         0.1310
     31 H6          2.1357    3.4737    1.0614 H         1 <1>         0.1455
     32 H7          0.4972    0.5964   -1.7069 H         1 <1>         0.1432
     33 H8         -0.1135    4.3999    1.4237 H         1 <1>         0.1482
     34 H9         -1.7494    1.5279   -1.3389 H         1 <1>         0.1490
     35 H10         2.5781   -0.0026    1.0477 H         1 <1>         0.1449
@<TRIPOS>BOND
     1    1   12 1
     2    1   20 3
     3    2    3 ar
     4    2    4 ar
     5    3    5 ar
     6    4    6 ar
     7    5   14 ar
     8    6   14 ar
     9    7    9 ar
    10    7   13 ar
    11    8   10 ar
    12    8   13 ar
    13    9   16 ar
    14   10   16 ar
    15   11   15 ar
    16   11   17 ar
    17   12   15 ar
    18   12   18 ar
    19   13   15 1
    20   14   17 1
    21   16   19 1
    22   17   21 ar
    23   18   21 ar
    24   18   25 1
    25   19   22 1
    26   19   23 1
    27   19   24 1
    28    2   26 1
    29    3   27 1
    30    4   28 1
    31    5   29 1
    32    6   30 1
    33    7   31 1
    34    8   32 1
    35    9   33 1
    36   10   34 1
    37   11   35 1
