@<TRIPOS>MOLECULE
AG-205/33125019
   40    42     0
SMALL
USER_CHARGE


@<TRIPOS>ATOM
      1 C1          3.1628    2.7423   -2.1466 C.1       1 <1>         0.0371
      2 C2          5.8744   -3.5138    2.7499 C.ar      1 <1>        -0.0959
      3 C3          5.5119   -2.2995    3.3327 C.ar      1 <1>        -0.0917
      4 C4          5.7534   -3.6894    1.3713 C.ar      1 <1>        -0.0905
      5 C5          5.0285   -1.2608    2.5371 C.ar      1 <1>        -0.0754
      6 C6          5.2699   -2.6506    0.5757 C.ar      1 <1>        -0.0727
      7 C7          0.2805    0.9406   -0.2039 C.ar      1 <1>        -0.0687
      8 C8          1.2588    3.1069    0.2294 C.ar      1 <1>        -0.0672
      9 C9         -0.9923    1.4760   -0.0068 C.ar      1 <1>        -0.0643
     10 C10        -0.0141    3.6423    0.4263 C.ar      1 <1>        -0.0637
     11 C11         3.1415    0.1645    0.5388 C.ar      1 <1>        -0.0223
     12 C12         3.5773    1.6727   -1.2831 C.ar      1 <1>         0.0983
     13 C13         1.4061    1.7561   -0.0857 C.ar      1 <1>        -0.0466
     14 C14         4.9074   -1.4365    1.1585 C.ar      1 <1>        -0.0494
     15 C15         2.7261    1.2005   -0.2902 C.ar      1 <1>         0.0102
     16 C16        -1.1396    2.8269    0.3083 C.ar      1 <1>        -0.0355
     17 C17         4.4073   -0.3612    0.3355 C.ar      1 <1>        -0.0125
     18 C18         4.8236    1.0797   -1.4048 C.ar      1 <1>         0.0531
     19 C19         8.9889   -0.2190   -4.0264 C.2       1 <1>        -0.1177
     20 C20         8.5052    0.7032   -3.1865 C.2       1 <1>        -0.1053
     21 C21         7.3537    0.4669   -2.2629 C.3       1 <1>         0.0138
     22 N1          2.8277    3.6068   -2.8444 N.1       1 <1>        -0.3777
     23 N2          5.2621    0.0713   -0.6184 N.ar      1 <1>        -0.3580
     24 S1          6.0062    1.6047   -2.6450 S.3       1 <1>        -0.1459
     25 Br1        -2.8640    3.5531    0.5745 Br        1 <1>        -0.1379
     26 H1          6.2524   -4.3218    3.3694 H         1 <1>         0.1197
     27 H2          5.6076   -2.1621    4.4057 H         1 <1>         0.1201
     28 H3          6.0368   -4.6341    0.9167 H         1 <1>         0.1203
     29 H4          4.7504   -0.3200    3.0064 H         1 <1>         0.1347
     30 H5          5.1817   -2.8020   -0.4975 H         1 <1>         0.1423
     31 H6          0.3791   -0.1142   -0.4489 H         1 <1>         0.1400
     32 H7          2.1263    3.7555    0.3241 H         1 <1>         0.1453
     33 H8         -1.8591    0.8273   -0.1032 H         1 <1>         0.1449
     34 H9         -0.1116    4.6966    0.6714 H         1 <1>         0.1455
     35 H10         2.4958   -0.2224    1.3225 H         1 <1>         0.1737
     36 H11         9.8271   -0.0070   -4.6808 H         1 <1>         0.0885
     37 H12         8.5462   -1.2082   -4.0701 H         1 <1>         0.0852
     38 H13         8.9592    1.6914   -3.1873 H         1 <1>         0.0973
     39 H14         7.6369    0.6022   -1.2141 H         1 <1>         0.1131
     40 H15         6.9933   -0.5595   -2.3820 H         1 <1>         0.1158
@<TRIPOS>BOND
     1    1   12 1
     2    1   22 3
     3    2    3 ar
     4    2    4 ar
     5    3    5 ar
     6    4    6 ar
     7    5   14 ar
     8    6   14 ar
     9    7    9 ar
    10    7   13 ar
    11    8   10 ar
    12    8   13 ar
    13    9   16 ar
    14   10   16 ar
    15   11   15 ar
    16   11   17 ar
    17   12   15 ar
    18   12   18 ar
    19   13   15 1
    20   14   17 1
    21   16   25 1
    22   17   23 ar
    23   18   23 ar
    24   18   24 1
    25   19   20 2
    26   20   21 1
    27   21   24 1
    28    2   26 1
    29    3   27 1
    30    4   28 1
    31    5   29 1
    32    6   30 1
    33    7   31 1
    34    8   32 1
    35    9   33 1
    36   10   34 1
    37   11   35 1
    38   19   36 1
    39   19   37 1
    40   20   38 1
    41   21   39 1
    42   21   40 1
