@<TRIPOS>MOLECULE
AH-262/11508001
   35    38     0
SMALL
USER_CHARGE


@<TRIPOS>ATOM
      1 C1          6.2243   -3.4102    2.4335 C.ar      1 <1>        -0.0961
      2 C2         -0.9356    2.9997    0.0085 C.ar      1 <1>        -0.0854
      3 C3          6.5186   -3.1896    1.0879 C.ar      1 <1>        -0.0915
      4 C4          5.2932   -2.6016    3.0853 C.ar      1 <1>        -0.0894
      5 C5          0.2395    3.7306    0.1838 C.ar      1 <1>        -0.0764
      6 C6         -0.8737    1.6272   -0.2330 C.ar      1 <1>        -0.0775
      7 C7          5.8819   -2.1606    0.3943 C.ar      1 <1>        -0.0717
      8 C8          4.6566   -1.5725    2.3917 C.ar      1 <1>        -0.0689
      9 C9          1.4763    3.0892    0.1173 C.ar      1 <1>        -0.0496
     10 C10         0.3632    0.9858   -0.2994 C.ar      1 <1>        -0.0510
     11 C11         4.9509   -1.3519    1.0463 C.ar      1 <1>        -0.0318
     12 C12         4.7990    0.4600   -0.7473 C.2       1 <1>         0.0878
     13 C13         1.5382    1.7168   -0.1243 C.ar      1 <1>        -0.0055
     14 C14         4.2933   -0.2888    0.3303 C.2       1 <1>         0.0467
     15 C15         3.7889    1.3381   -1.0625 C.2       1 <1>         0.1004
     16 C16         6.1353    1.4452   -2.5626 C.2       1 <1>         0.0367
     17 C17         5.1481    2.3028   -2.8700 C.2       1 <1>         0.0414
     18 C18         6.0500    0.4348   -1.4614 C.2       1 <1>         0.1131
     19 C19         3.8584    2.3104   -2.1143 C.2       1 <1>         0.1264
     20 N1          3.0556    0.0836    0.6754 N.2       1 <1>        -0.3118
     21 N2          2.7751    1.0762   -0.1904 N.pl3     1 <1>        -0.2710
     22 O1          6.9749   -0.3285   -1.2150 O.2       1 <1>        -0.4818
     23 O2          2.9748    3.1053   -2.4176 O.2       1 <1>        -0.4715
     24 H1          6.7192   -4.2121    2.9733 H         1 <1>         0.1179
     25 H2         -1.8988    3.4982    0.0619 H         1 <1>         0.1291
     26 H3          7.2426   -3.8199    0.5798 H         1 <1>         0.1184
     27 H4          5.0634   -2.7744    4.1325 H         1 <1>         0.1213
     28 H5          0.1915    4.7990    0.3732 H         1 <1>         0.1352
     29 H6         -1.7891    1.0585   -0.3679 H         1 <1>         0.1334
     30 H7          6.1222   -2.0011   -0.6543 H         1 <1>         0.1358
     31 H8          3.9331   -0.9509    2.9143 H         1 <1>         0.1430
     32 H9          2.3846    3.6706    0.2565 H         1 <1>         0.1598
     33 H10         0.3970   -0.0845   -0.4876 H         1 <1>         0.1564
     34 H11         7.0622    1.4609   -3.1273 H         1 <1>         0.2132
     35 H12         5.2591    3.0170   -3.6783 H         1 <1>         0.2152
@<TRIPOS>BOND
     1    1    3 ar
     2    1    4 ar
     3    2    5 ar
     4    2    6 ar
     5    3    7 ar
     6    4    8 ar
     7    5    9 ar
     8    6   10 ar
     9    7   11 ar
    10    8   11 ar
    11    9   13 ar
    12   10   13 ar
    13   11   14 1
    14   12   14 1
    15   12   15 2
    16   12   18 1
    17   13   21 1
    18   14   20 2
    19   15   19 1
    20   15   21 1
    21   16   17 2
    22   16   18 1
    23   17   19 1
    24   18   22 2
    25   19   23 2
    26   20   21 1
    27    1   24 1
    28    2   25 1
    29    3   26 1
    30    4   27 1
    31    5   28 1
    32    6   29 1
    33    7   30 1
    34    8   31 1
    35    9   32 1
    36   10   33 1
    37   16   34 1
    38   17   35 1
