@<TRIPOS>MOLECULE
AG-927/42926101
   29    31     0
SMALL
USER_CHARGE


@<TRIPOS>ATOM
      1 C1         -1.2735    3.0797    0.1243 C.ar      1 <1>        -0.0951
      2 C2          6.0007   -3.2292    2.3769 C.ar      1 <1>        -0.0880
      3 C3         -0.1063    3.8254    0.2890 C.ar      1 <1>        -0.0898
      4 C4         -1.1962    1.7100   -0.1280 C.ar      1 <1>        -0.0895
      5 C5          5.7605   -3.3443    1.0077 C.ar      1 <1>        -0.0790
      6 C6          5.5897   -2.0867    3.0635 C.ar      1 <1>        -0.0805
      7 C7          1.1383    3.2014    0.2012 C.ar      1 <1>        -0.0698
      8 C8          0.0482    1.0861   -0.2160 C.ar      1 <1>        -0.0695
      9 C9          5.1096   -2.3168    0.3251 C.ar      1 <1>        -0.0545
     10 C10         4.9387   -1.0592    2.3808 C.ar      1 <1>        -0.0572
     11 C11         1.2155    1.8317   -0.0513 C.ar      1 <1>        -0.0299
     12 C12         4.6986   -1.1742    1.0116 C.ar      1 <1>        -0.0112
     13 C13         3.5348    1.4705   -1.0501 C.2       1 <1>         0.0929
     14 C14         2.4966    1.1893   -0.1419 C.2       1 <1>         0.0494
     15 C15         4.5304    0.5844   -0.7183 C.2       1 <1>         0.1156
     16 N1          2.8039    0.2015    0.7030 N.2       1 <1>        -0.3125
     17 N2          4.0467   -0.1456    0.3272 N.pl3     1 <1>        -0.2718
     18 Cl1         3.5376    2.6450   -2.2723 Cl        1 <1>        -0.1226
     19 Cl2         6.0804    0.3185   -1.3624 Cl        1 <1>        -0.0685
     20 H1         -2.2425    3.5651    0.1938 H         1 <1>         0.1196
     21 H2          6.5059   -4.0298    2.9093 H         1 <1>         0.1256
     22 H3         -0.1662    4.8916    0.4867 H         1 <1>         0.1211
     23 H4         -2.1052    1.1294   -0.2551 H         1 <1>         0.1221
     24 H5          6.0793   -4.2344    0.4732 H         1 <1>         0.1334
     25 H6          5.7757   -1.9984    4.1300 H         1 <1>         0.1326
     26 H7          2.0391    3.7966    0.3320 H         1 <1>         0.1382
     27 H8          0.0915    0.0174   -0.4133 H         1 <1>         0.1390
     28 H9          4.9280   -2.4195   -0.7421 H         1 <1>         0.1536
     29 H10         4.6230   -0.1743    2.9283 H         1 <1>         0.1464
@<TRIPOS>BOND
     1    1    3 ar
     2    1    4 ar
     3    2    5 ar
     4    2    6 ar
     5    3    7 ar
     6    4    8 ar
     7    5    9 ar
     8    6   10 ar
     9    7   11 ar
    10    8   11 ar
    11    9   12 ar
    12   10   12 ar
    13   11   14 1
    14   12   17 1
    15   13   14 1
    16   13   15 2
    17   13   18 1
    18   14   16 2
    19   15   17 1
    20   15   19 1
    21   16   17 1
    22    1   20 1
    23    2   21 1
    24    3   22 1
    25    4   23 1
    26    5   24 1
    27    6   25 1
    28    7   26 1
    29    8   27 1
    30    9   28 1
    31   10   29 1
