@<TRIPOS>MOLECULE
AE-842/31985041
   42    46     0
SMALL
USER_CHARGE


@<TRIPOS>ATOM
      1 C1         -1.2955    2.9599    0.1211 C.ar      1 <1>        -0.0954
      2 C2          5.8486   -3.4834    2.4422 C.ar      1 <1>        -0.1023
      3 C3         -0.2001    3.6248   -0.4298 C.ar      1 <1>        -0.0902
      4 C4         -1.1310    1.6967    0.6893 C.ar      1 <1>        -0.0906
      5 C5          5.7575   -3.3955    1.0532 C.ar      1 <1>        -0.0930
      6 C6          5.4144   -2.4235    3.2382 C.ar      1 <1>        -0.0922
      7 C7          1.0598    3.0265   -0.4126 C.ar      1 <1>        -0.0725
      8 C8          0.1288    1.0984    0.7065 C.ar      1 <1>        -0.0734
      9 C9          5.2321   -2.2476    0.4599 C.ar      1 <1>        -0.0759
     10 C10         4.8891   -1.2755    2.6450 C.ar      1 <1>        -0.0745
     11 C11         1.2243    1.7633    0.1555 C.ar      1 <1>        -0.0488
     12 C12         4.7980   -1.1876    1.2559 C.ar      1 <1>        -0.0517
     13 C13         2.5311    1.1427    0.1733 C.2       1 <1>        -0.0259
     14 C14         5.0858    2.4299   -2.4717 C.3       1 <1>        -0.0535
     15 C15         6.0748    1.3590   -1.9309 C.3       1 <1>        -0.0532
     16 C16         4.1999    0.3587   -3.0057 C.3       1 <1>        -0.0457
     17 C17         3.5611    1.4055   -0.8870 C.3       1 <1>         0.0040
     18 C18         3.7263    1.6860   -2.3809 C.3       1 <1>        -0.0342
     19 C19         5.2277    0.0668   -1.8780 C.3       1 <1>        -0.0350
     20 C20         4.1954    0.0127   -0.7672 C.3       1 <1>         0.0065
     21 N1          3.0290    0.4018    1.1370 N.2       1 <1>        -0.3708
     22 N2          4.2776   -0.0508    0.6691 N.pl3     1 <1>        -0.3592
     23 H1         -2.2764    3.4259    0.1076 H         1 <1>         0.1196
     24 H2          6.2580   -4.3775    2.9040 H         1 <1>         0.1017
     25 H3         -0.3283    4.6084   -0.8725 H         1 <1>         0.1208
     26 H4         -1.9838    1.1791    1.1185 H         1 <1>         0.1209
     27 H5          6.0957   -4.2207    0.4335 H         1 <1>         0.1200
     28 H6          5.4855   -2.4923    4.3199 H         1 <1>         0.1203
     29 H7          1.9066    3.5536   -0.8447 H         1 <1>         0.1400
     30 H8          0.2453    0.1137    1.1518 H         1 <1>         0.1373
     31 H9          5.1656   -2.1888   -0.6233 H         1 <1>         0.1275
     32 H10         4.5535   -0.4560    3.2754 H         1 <1>         0.1308
     33 H11         5.1197    3.3558   -1.8882 H         1 <1>         0.0478
     34 H12         5.3251    2.6828   -3.5117 H         1 <1>         0.0439
     35 H13         6.9152    1.2515   -2.6253 H         1 <1>         0.0458
     36 H14         6.4731    1.6231   -0.9461 H         1 <1>         0.0495
     37 H15         3.3981   -0.3830   -3.0932 H         1 <1>         0.0588
     38 H16         4.6681    0.4761   -3.9901 H         1 <1>         0.0538
     39 H17         4.1511    2.1774   -0.3581 H         1 <1>         0.0987
     40 H18         2.8975    2.1903   -2.8774 H         1 <1>         0.0824
     41 H19         5.8026   -0.8525   -2.0013 H         1 <1>         0.0784
     42 H20         3.4786   -0.7835   -1.0446 H         1 <1>         0.1293
@<TRIPOS>BOND
     1    1    3 ar
     2    1    4 ar
     3    2    5 ar
     4    2    6 ar
     5    3    7 ar
     6    4    8 ar
     7    5    9 ar
     8    6   10 ar
     9    7   11 ar
    10    8   11 ar
    11    9   12 ar
    12   10   12 ar
    13   11   13 1
    14   12   22 1
    15   13   17 1
    16   13   21 2
    17   14   15 1
    18   14   18 1
    19   15   19 1
    20   16   18 1
    21   16   19 1
    22   17   18 1
    23   17   20 1
    24   19   20 1
    25   20   22 1
    26   21   22 1
    27    1   23 1
    28    2   24 1
    29    3   25 1
    30    4   26 1
    31    5   27 1
    32    6   28 1
    33    7   29 1
    34    8   30 1
    35    9   31 1
    36   10   32 1
    37   14   33 1
    38   14   34 1
    39   15   35 1
    40   15   36 1
    41   16   37 1
    42   16   38 1
    43   17   39 1
    44   18   40 1
    45   19   41 1
    46   20   42 1
