@<TRIPOS>MOLECULE
AG-205/12497019
   34    36     0
SMALL
USER_CHARGE


@<TRIPOS>ATOM
      1 C1          1.1687    3.1450   -0.4494 C.ar      1 <1>        -0.0578
      2 C2          0.1427    1.1218    0.3821 C.ar      1 <1>        -0.0576
      3 C3          5.7675   -3.4114    1.0719 C.ar      1 <1>        -0.0842
      4 C4          5.5957   -2.1454    3.1225 C.ar      1 <1>        -0.0872
      5 C5          5.1253   -2.3824    0.3829 C.ar      1 <1>        -0.0577
      6 C6          4.9535   -1.1165    2.4335 C.ar      1 <1>        -0.0625
      7 C7         -0.0650    3.7936   -0.3935 C.ar      1 <1>        -0.0545
      8 C8         -1.0910    1.7705    0.4379 C.ar      1 <1>        -0.0546
      9 C9          3.5925    1.4068   -1.0182 C.2       1 <1>        -0.0302
     10 C10         1.2725    1.8091   -0.0618 C.ar      1 <1>        -0.0370
     11 C11         6.0026   -3.2928    2.4417 C.ar      1 <1>        -0.1040
     12 C12         4.7184   -1.2351    1.0637 C.ar      1 <1>        -0.0244
     13 C13        -1.1948    3.1064    0.0502 C.ar      1 <1>        -0.0165
     14 C14         2.5425    1.1414   -0.1189 C.2       1 <1>        -0.0016
     15 C15         4.5763    0.5136   -0.6707 C.2       1 <1>        -0.0108
     16 C16         6.6892   -4.3928    3.1783 C.3       1 <1>        -0.0418
     17 N1          2.8321    0.1564    0.7355 N.2       1 <1>        -0.3472
     18 N2          4.0751   -0.2049    0.3746 N.pl3     1 <1>        -0.3182
     19 N3          5.8092    0.2940   -1.1757 N.pl3     1 <1>        -0.3439
     20 Cl1        -2.7175    3.9053    0.1183 Cl        1 <1>        -0.1869
     21 H1          2.0396    3.6955   -0.7978 H         1 <1>         0.1506
     22 H2          0.2074    0.0801    0.6876 H         1 <1>         0.1514
     23 H3          6.0815   -4.3019    0.5341 H         1 <1>         0.1313
     24 H4          5.7744   -2.0446    4.1897 H         1 <1>         0.1289
     25 H5          4.9475   -2.4878   -0.6847 H         1 <1>         0.1520
     26 H6          4.6415   -0.2280    2.9772 H         1 <1>         0.1395
     27 H7         -0.1312    4.8347   -0.6988 H         1 <1>         0.1450
     28 H8         -1.9630    1.2219    0.7845 H         1 <1>         0.1443
     29 H9          3.6338    2.1425   -1.8091 H         1 <1>         0.1485
     30 H10         7.7750   -4.2365    3.1731 H         1 <1>         0.0611
     31 H11         6.3506   -4.4460    4.2212 H         1 <1>         0.0584
     32 H12         6.4761   -5.3697    2.7251 H         1 <1>         0.0587
     33 H13         6.1644    0.8059   -1.9966 H         1 <1>         0.2497
     34 H14         6.4184   -0.4600   -0.8252 H         1 <1>         0.2595
@<TRIPOS>BOND
     1    1    7 ar
     2    1   10 ar
     3    2    8 ar
     4    2   10 ar
     5    3    5 ar
     6    3   11 ar
     7    4    6 ar
     8    4   11 ar
     9    5   12 ar
    10    6   12 ar
    11    7   13 ar
    12    8   13 ar
    13    9   14 1
    14    9   15 2
    15   10   14 1
    16   11   16 1
    17   12   18 1
    18   13   20 1
    19   14   17 2
    20   15   18 1
    21   15   19 1
    22   17   18 1
    23    1   21 1
    24    2   22 1
    25    3   23 1
    26    4   24 1
    27    5   25 1
    28    6   26 1
    29    7   27 1
    30    8   28 1
    31    9   29 1
    32   16   30 1
    33   16   31 1
    34   16   32 1
    35   19   33 1
    36   19   34 1
