@<TRIPOS>MOLECULE
AK-087/42718235
   33    35     0
SMALL
USER_CHARGE


@<TRIPOS>ATOM
      1 C1          4.5787    1.9272   -3.2308 C.1       1 <1>        -0.0184
      2 C2         -0.8900    2.9878   -0.0072 C.ar      1 <1>        -0.0890
      3 C3          0.2917    3.7066    0.1738 C.ar      1 <1>        -0.0825
      4 C4         -0.8420    1.6122   -0.2330 C.ar      1 <1>        -0.0800
      5 C5          5.8819   -2.2216    0.4539 C.ar      1 <1>        -0.0581
      6 C6          4.6620   -1.6307    2.4538 C.ar      1 <1>        -0.0579
      7 C7          1.5212    3.0498    0.1288 C.ar      1 <1>        -0.0623
      8 C8          0.3877    0.9554   -0.2779 C.ar      1 <1>        -0.0580
      9 C9          6.5191   -3.2509    1.1467 C.ar      1 <1>        -0.0541
     10 C10         5.2992   -2.6600    3.1466 C.ar      1 <1>        -0.0541
     11 C11         4.8182    0.3855   -0.6858 C.2       1 <1>        -0.0227
     12 C12         4.9533   -1.4113    1.1075 C.ar      1 <1>        -0.0372
     13 C13         1.5694    1.6741   -0.0970 C.ar      1 <1>        -0.0256
     14 C14         6.2277   -3.4702    2.4931 C.ar      1 <1>        -0.0154
     15 C15         4.2970   -0.3518    0.3943 C.2       1 <1>        -0.0003
     16 C16         3.8190    1.2694   -1.0123 C.2       1 <1>         0.0087
     17 C17         3.7604    2.3057   -2.0620 C.3       1 <1>         0.1104
     18 N1          5.2255    1.6213   -4.1445 N.1       1 <1>        -0.4108
     19 N2          3.0625    0.0306    0.7314 N.2       1 <1>        -0.3455
     20 N3          2.7997    1.0178   -0.1417 N.pl3     1 <1>        -0.3137
     21 Cl1         7.0143   -4.7392    3.3490 Cl        1 <1>        -0.1852
     22 H1         -1.8478    3.4985    0.0293 H         1 <1>         0.1244
     23 H2          0.2544    4.7775    0.3508 H         1 <1>         0.1303
     24 H3         -1.7626    1.0530   -0.3724 H         1 <1>         0.1325
     25 H4          6.1204   -2.0643   -0.5956 H         1 <1>         0.1503
     26 H5          3.9405   -1.0077    2.9772 H         1 <1>         0.1511
     27 H6          2.4349    3.6217    0.2722 H         1 <1>         0.1395
     28 H7          0.4108   -0.1175   -0.4539 H         1 <1>         0.1519
     29 H8          7.2405   -3.8744    0.6247 H         1 <1>         0.1462
     30 H9          5.0631   -2.8183    4.1957 H         1 <1>         0.1454
     31 H10         5.7834    0.2922   -1.1638 H         1 <1>         0.1604
     32 H11         4.1106    3.2812   -1.6819 H         1 <1>         0.2053
     33 H12         2.7225    2.4817   -2.3944 H         1 <1>         0.2148
@<TRIPOS>BOND
     1    1   17 1
     2    1   18 3
     3    2    3 ar
     4    2    4 ar
     5    3    7 ar
     6    4    8 ar
     7    5    9 ar
     8    5   12 ar
     9    6   10 ar
    10    6   12 ar
    11    7   13 ar
    12    8   13 ar
    13    9   14 ar
    14   10   14 ar
    15   11   15 1
    16   11   16 2
    17   12   15 1
    18   13   20 1
    19   14   21 1
    20   15   19 2
    21   16   17 1
    22   16   20 1
    23   19   20 1
    24    2   22 1
    25    3   23 1
    26    4   24 1
    27    5   25 1
    28    6   26 1
    29    7   27 1
    30    8   28 1
    31    9   29 1
    32   10   30 1
    33   11   31 1
    34   17   32 1
    35   17   33 1
