@<TRIPOS>MOLECULE
AK-087/11538930
   36    38     0
SMALL
USER_CHARGE


@<TRIPOS>ATOM
      1 C1          4.5783    1.9263   -3.2313 C.1       1 <1>        -0.0188
      2 C2         -0.8900    2.9880   -0.0073 C.ar      1 <1>        -0.0893
      3 C3          0.2916    3.7067    0.1734 C.ar      1 <1>        -0.0803
      4 C4         -0.8420    1.6123   -0.2327 C.ar      1 <1>        -0.0828
      5 C5          5.8817   -2.2211    0.4539 C.ar      1 <1>        -0.0746
      6 C6          4.6622   -1.6308    2.4543 C.ar      1 <1>        -0.0749
      7 C7          6.5191   -3.2508    1.1463 C.ar      1 <1>        -0.0950
      8 C8          5.2993   -2.6605    3.1465 C.ar      1 <1>        -0.0950
      9 C9          1.5214    3.0497    0.1285 C.ar      1 <1>        -0.0583
     10 C10         0.3877    0.9553   -0.2776 C.ar      1 <1>        -0.0626
     11 C11         4.8182    0.3853   -0.6859 C.2       1 <1>        -0.0244
     12 C12         4.9534   -1.4111    1.1079 C.ar      1 <1>        -0.0470
     13 C13         6.2278   -3.4705    2.4925 C.ar      1 <1>        -0.1097
     14 C14         1.5694    1.6741   -0.0970 C.ar      1 <1>        -0.0262
     15 C15         4.2970   -0.3516    0.3944 C.2       1 <1>        -0.0040
     16 C16         3.8188    1.2691   -1.0125 C.2       1 <1>         0.0076
     17 C17         6.9087   -4.5725    3.2315 C.3       1 <1>        -0.0434
     18 C18         3.7601    2.3051   -2.0625 C.3       1 <1>         0.1099
     19 N1          5.2249    1.6203   -4.1449 N.1       1 <1>        -0.4112
     20 N2          3.0625    0.0308    0.7318 N.2       1 <1>        -0.3475
     21 N3          2.7996    1.0178   -0.1416 N.pl3     1 <1>        -0.3148
     22 H1         -1.8477    3.4986    0.0294 H         1 <1>         0.1238
     23 H2          0.2545    4.7777    0.3502 H         1 <1>         0.1321
     24 H3         -1.7627    1.0530   -0.3718 H         1 <1>         0.1298
     25 H4          6.1204   -2.0625   -0.5952 H         1 <1>         0.1376
     26 H5          3.9408   -1.0080    2.9780 H         1 <1>         0.1366
     27 H6          7.2404   -3.8777    0.6289 H         1 <1>         0.1189
     28 H7          5.0669   -2.8253    4.1953 H         1 <1>         0.1197
     29 H8          2.4350    3.6219    0.2717 H         1 <1>         0.1516
     30 H9          0.4106   -0.1175   -0.4533 H         1 <1>         0.1391
     31 H10         5.7831    0.2917   -1.1639 H         1 <1>         0.1588
     32 H11         7.8368   -4.2090    3.6892 H         1 <1>         0.0600
     33 H12         6.2659   -4.9780    4.0237 H         1 <1>         0.0576
     34 H13         7.1544   -5.4081    2.5632 H         1 <1>         0.0574
     35 H14         4.1103    3.2807   -1.6826 H         1 <1>         0.2048
     36 H15         2.7222    2.4809   -2.3948 H         1 <1>         0.2142
@<TRIPOS>BOND
     1    1   18 1
     2    1   19 3
     3    2    3 ar
     4    2    4 ar
     5    3    9 ar
     6    4   10 ar
     7    5    7 ar
     8    5   12 ar
     9    6    8 ar
    10    6   12 ar
    11    7   13 ar
    12    8   13 ar
    13    9   14 ar
    14   10   14 ar
    15   11   15 1
    16   11   16 2
    17   12   15 1
    18   13   17 1
    19   14   21 1
    20   15   20 2
    21   16   18 1
    22   16   21 1
    23   20   21 1
    24    2   22 1
    25    3   23 1
    26    4   24 1
    27    5   25 1
    28    6   26 1
    29    7   27 1
    30    8   28 1
    31    9   29 1
    32   10   30 1
    33   11   31 1
    34   17   32 1
    35   17   33 1
    36   17   34 1
    37   18   35 1
    38   18   36 1
