@<TRIPOS>MOLECULE
AJ-916/12583056
   33    36     0
SMALL
USER_CHARGE


@<TRIPOS>ATOM
      1 C1         -1.1036    1.7873    0.3124 C.2       1 <1>        -0.0731
      2 C2          4.9940   -1.1499    2.3913 C.ar      1 <1>        -0.0410
      3 C3          5.3049   -2.5543    0.4501 C.ar      1 <1>        -0.0371
      4 C4          5.4161   -2.1939    3.2142 C.ar      1 <1>        -0.0417
      5 C5          5.7271   -3.5984    1.2731 C.ar      1 <1>        -0.0398
      6 C6          0.0469    1.2960   -0.3698 C.2       1 <1>        -0.0563
      7 C7          3.2943    0.3186    0.2477 C.2       1 <1>         0.0234
      8 C8         -0.9483    3.0963    0.7121 C.2       1 <1>        -0.0429
      9 C9          3.3373    1.2642   -0.7353 C.ar      1 <1>         0.0413
     10 C10         4.6341    1.1740   -1.3596 C.ar      1 <1>         0.0515
     11 C11         4.9383   -1.3301    1.0093 C.ar      1 <1>        -0.0082
     12 C12         5.7827   -3.4183    2.6552 C.ar      1 <1>        -0.0042
     13 C13         2.3229    2.1478   -1.0716 C.ar      1 <1>         0.0517
     14 C14         1.0375    2.2484   -0.4656 C.2       1 <1>         0.0031
     15 C15         4.9672    2.0341   -2.4159 C.ar      1 <1>         0.0301
     16 C16         6.2519    2.0614   -3.1590 C.3       1 <1>         0.0149
     17 N1          5.3415    0.1998   -0.7619 N.2       1 <1>        -0.3195
     18 N2          2.6752    2.9675   -2.0977 N.ar      1 <1>        -0.2954
     19 N3          3.9792    2.9088   -2.7580 N.ar      1 <1>        -0.3002
     20 N4          4.5164   -0.2866    0.1871 N.pl3     1 <1>        -0.2977
     21 S1          0.5794    3.7277    0.2652 S.3       1 <1>        -0.1515
     22 Cl1         6.3059   -4.7053    3.6706 Cl        1 <1>        -0.1753
     23 H1         -1.9997    1.2106    0.5000 H         1 <1>         0.1227
     24 H2          4.7113   -0.2009    2.8405 H         1 <1>         0.1604
     25 H3          5.2665   -2.7080   -0.6256 H         1 <1>         0.1721
     26 H4          5.4542   -2.0399    4.2896 H         1 <1>         0.1607
     27 H5          6.0095   -4.5471    0.8236 H         1 <1>         0.1615
     28 H6          0.1347    0.2928   -0.7686 H         1 <1>         0.1434
     29 H7          2.5367    0.0256    0.9631 H         1 <1>         0.2551
     30 H8         -1.6591    3.7123    1.2447 H         1 <1>         0.1798
     31 H9          6.2138    1.3873   -4.0266 H         1 <1>         0.1052
     32 H10         6.4890    3.0728   -3.5218 H         1 <1>         0.1053
     33 H11         7.0949    1.7529   -2.5227 H         1 <1>         0.1018
@<TRIPOS>BOND
     1    1    6 1
     2    1    8 2
     3    2    4 ar
     4    2   11 ar
     5    3    5 ar
     6    3   11 ar
     7    4   12 ar
     8    5   12 ar
     9    6   14 2
    10    7    9 2
    11    7   20 1
    12    8   21 1
    13    9   10 ar
    14    9   13 ar
    15   10   15 ar
    16   10   17 2
    17   11   20 1
    18   12   22 1
    19   13   14 1
    20   13   18 ar
    21   14   21 1
    22   15   16 1
    23   15   19 ar
    24   17   20 1
    25   18   19 ar
    26    1   23 1
    27    2   24 1
    28    3   25 1
    29    4   26 1
    30    5   27 1
    31    6   28 1
    32    7   29 1
    33    8   30 1
    34   16   31 1
    35   16   32 1
    36   16   33 1
