@<TRIPOS>MOLECULE
AK-087/42718333
   36    38     0
SMALL
USER_CHARGE


@<TRIPOS>ATOM
      1 C1          6.3926    1.6191   -1.8158 C.1       1 <1>        -0.0184
      2 C2          1.0879    3.1760   -0.4308 C.ar      1 <1>        -0.0743
      3 C3          0.0779    1.1422    0.3938 C.ar      1 <1>        -0.0746
      4 C4         -0.1487    3.8177   -0.3635 C.ar      1 <1>        -0.0948
      5 C5         -1.1588    1.7837    0.4612 C.ar      1 <1>        -0.0947
      6 C6          5.0944   -2.3244    0.3431 C.ar      1 <1>        -0.0412
      7 C7          4.9218   -1.0751    2.4039 C.ar      1 <1>        -0.0458
      8 C8          5.7547   -3.3497    1.0200 C.ar      1 <1>        -0.0421
      9 C9          5.5821   -2.1004    3.0808 C.ar      1 <1>        -0.0446
     10 C10         3.5190    1.4550   -1.0240 C.2       1 <1>        -0.0231
     11 C11         1.2014    1.8383   -0.0522 C.ar      1 <1>        -0.0464
     12 C12        -1.2721    3.1215    0.0826 C.ar      1 <1>        -0.1095
     13 C13         4.6780   -1.1869    1.0350 C.ar      1 <1>        -0.0161
     14 C14         5.9985   -3.2378    2.3889 C.ar      1 <1>        -0.0066
     15 C15         2.4750    1.1785   -0.1210 C.2       1 <1>        -0.0029
     16 C16         4.5096    0.5654   -0.6863 C.2       1 <1>         0.0089
     17 C17        -2.5937    3.8086    0.1554 C.3       1 <1>        -0.0433
     18 C18         5.8527    0.3610   -1.2638 C.3       1 <1>         0.1103
     19 N1          6.8080    2.6129   -2.2478 N.1       1 <1>        -0.4106
     20 N2          2.7742    0.1905    0.7266 N.2       1 <1>        -0.3461
     21 N3          4.0177   -0.1616    0.3575 N.pl3     1 <1>        -0.3116
     22 Cl1         6.8109   -4.5041    3.2243 Cl        1 <1>        -0.1780
     23 H1          1.9540    3.7326   -0.7814 H         1 <1>         0.1379
     24 H2          0.1501    0.0989    0.6926 H         1 <1>         0.1369
     25 H3         -0.2282    4.8603   -0.6596 H         1 <1>         0.1193
     26 H4         -2.0293    1.2343    0.8100 H         1 <1>         0.1200
     27 H5          4.9108   -2.4249   -0.7239 H         1 <1>         0.1667
     28 H6          4.6023   -0.1941    2.9552 H         1 <1>         0.1534
     29 H7          6.0742   -4.2302    0.4685 H         1 <1>         0.1586
     30 H8          5.7656   -1.9995    4.1475 H         1 <1>         0.1564
     31 H9          3.5525    2.1950   -1.8111 H         1 <1>         0.1608
     32 H10        -3.1360    3.6950   -0.7912 H         1 <1>         0.0602
     33 H11        -3.2131    3.3968    0.9628 H         1 <1>         0.0578
     34 H12        -2.4746    4.8804    0.3617 H         1 <1>         0.0576
     35 H13         5.8333   -0.4003   -2.0632 H         1 <1>         0.2047
     36 H14         6.5580   -0.0302   -0.5100 H         1 <1>         0.2148
@<TRIPOS>BOND
     1    1   18 1
     2    1   19 3
     3    2    4 ar
     4    2   11 ar
     5    3    5 ar
     6    3   11 ar
     7    4   12 ar
     8    5   12 ar
     9    6    8 ar
    10    6   13 ar
    11    7    9 ar
    12    7   13 ar
    13    8   14 ar
    14    9   14 ar
    15   10   15 1
    16   10   16 2
    17   11   15 1
    18   12   17 1
    19   13   21 1
    20   14   22 1
    21   15   20 2
    22   16   18 1
    23   16   21 1
    24   20   21 1
    25    2   23 1
    26    3   24 1
    27    4   25 1
    28    5   26 1
    29    6   27 1
    30    7   28 1
    31    8   29 1
    32    9   30 1
    33   10   31 1
    34   17   32 1
    35   17   33 1
    36   17   34 1
    37   18   35 1
    38   18   36 1
