@<TRIPOS>MOLECULE
AE-641/00376063
   31    33     0
SMALL
USER_CHARGE


@<TRIPOS>ATOM
      1 C1         -1.1937    3.0934    0.0623 C.ar      1 <1>        -0.0985
      2 C2          6.0343   -3.2869    2.4153 C.ar      1 <1>        -0.0921
      3 C3         -0.0678    3.7853   -0.3838 C.ar      1 <1>        -0.0929
      4 C4         -1.0839    1.7572    0.4474 C.ar      1 <1>        -0.0929
      5 C5          5.7937   -3.4027    1.0461 C.ar      1 <1>        -0.0820
      6 C6          5.6265   -2.1426    3.1007 C.ar      1 <1>        -0.0848
      7 C7          1.1679    3.1412   -0.4449 C.ar      1 <1>        -0.0750
      8 C8          0.1519    1.1131    0.3864 C.ar      1 <1>        -0.0752
      9 C9          5.1454   -2.3742    0.3626 C.ar      1 <1>        -0.0587
     10 C10         4.9782   -1.1140    2.4172 C.ar      1 <1>        -0.0632
     11 C11         3.5957    1.4119   -1.0254 C.2       1 <1>        -0.0337
     12 C12         1.2778    1.8050   -0.0598 C.ar      1 <1>        -0.0480
     13 C13         4.7377   -1.2297    1.0480 C.ar      1 <1>        -0.0259
     14 C14         2.5498    1.1416   -0.1227 C.2       1 <1>        -0.0070
     15 C15         4.5836    0.5213   -0.6831 C.2       1 <1>        -0.0129
     16 N1          2.8457    0.1562    0.7291 N.2       1 <1>        -0.3508
     17 N2          4.0886   -0.2005    0.3630 N.pl3     1 <1>        -0.3206
     18 N3          5.8153    0.3065   -1.1927 N.pl3     1 <1>        -0.3419
     19 H1         -2.1557    3.5950    0.1109 H         1 <1>         0.1146
     20 H2          6.5374   -4.0883    2.9482 H         1 <1>         0.1191
     21 H3         -0.1528    4.8260   -0.6826 H         1 <1>         0.1173
     22 H4         -1.9604    1.2189    0.7959 H         1 <1>         0.1178
     23 H5          6.1099   -4.2942    0.5125 H         1 <1>         0.1304
     24 H6          5.8131   -2.0538    4.1672 H         1 <1>         0.1280
     25 H7          2.0365    3.6944   -0.7950 H         1 <1>         0.1363
     26 H8          0.2208    0.0711    0.6902 H         1 <1>         0.1354
     27 H9          4.9633   -2.4775   -0.7044 H         1 <1>         0.1496
     28 H10         4.6651   -0.2278    2.9639 H         1 <1>         0.1383
     29 H11         3.6317    2.1489   -1.8152 H         1 <1>         0.1437
     30 H12         6.1659    0.8209   -2.0141 H         1 <1>         0.2567
     31 H13         6.4282   -0.4459   -0.8457 H         1 <1>         0.2689
@<TRIPOS>BOND
     1    1    3 ar
     2    1    4 ar
     3    2    5 ar
     4    2    6 ar
     5    3    7 ar
     6    4    8 ar
     7    5    9 ar
     8    6   10 ar
     9    7   12 ar
    10    8   12 ar
    11    9   13 ar
    12   10   13 ar
    13   11   14 1
    14   11   15 2
    15   12   14 1
    16   13   17 1
    17   14   16 2
    18   15   17 1
    19   15   18 1
    20   16   17 1
    21    1   19 1
    22    2   20 1
    23    3   21 1
    24    4   22 1
    25    5   23 1
    26    6   24 1
    27    7   25 1
    28    8   26 1
    29    9   27 1
    30   10   28 1
    31   11   29 1
    32   18   30 1
    33   18   31 1
