@<TRIPOS>MOLECULE
AH-357/03542020
   30    32     0
SMALL
USER_CHARGE


@<TRIPOS>ATOM
      1 C1         -1.5539    3.1174    0.2531 C.ar      1 <1>        -0.1006
      2 C2          6.0111   -3.1668    2.3055 C.ar      1 <1>        -0.1006
      3 C3         -0.4812    3.8705   -0.2241 C.ar      1 <1>        -0.0951
      4 C4         -1.3686    1.7776    0.5939 C.ar      1 <1>        -0.0983
      5 C5          6.2656   -2.9190    0.9566 C.ar      1 <1>        -0.0983
      6 C6          5.0775   -2.3912    2.9929 C.ar      1 <1>        -0.0951
      7 C7          0.7769    3.2837   -0.3605 C.ar      1 <1>        -0.0851
      8 C8         -0.1105    1.1907    0.4576 C.ar      1 <1>        -0.0904
      9 C9          5.5865   -1.8957    0.2953 C.ar      1 <1>        -0.0904
     10 C10         4.3984   -1.3679    2.3317 C.ar      1 <1>        -0.0851
     11 C11         3.2797    1.6133   -1.0479 C.2       1 <1>        -0.0824
     12 C12         4.3467    0.7277   -0.7579 C.2       1 <1>        -0.0824
     13 C13         0.9623    1.9438   -0.0197 C.ar      1 <1>        -0.0769
     14 C14         4.6529   -1.1201    0.9828 C.ar      1 <1>        -0.0769
     15 C15         2.2634    1.3376   -0.1599 C.2       1 <1>        -0.0647
     16 C16         3.9501   -0.0625    0.2985 C.2       1 <1>        -0.0647
     17 N1          2.6819    0.3170    0.6536 N.pl3     1 <1>        -0.3613
     18 H1         -2.5333    3.5744    0.3599 H         1 <1>         0.1131
     19 H2          6.5394   -3.9639    2.8202 H         1 <1>         0.1131
     20 H3         -0.6259    4.9136   -0.4897 H         1 <1>         0.1197
     21 H4         -2.2036    1.1915    0.9667 H         1 <1>         0.1155
     22 H5          6.9928   -3.5227    0.4216 H         1 <1>         0.1156
     23 H6          4.8784   -2.5850    4.0431 H         1 <1>         0.1197
     24 H7          1.6037    3.8848   -0.7314 H         1 <1>         0.1314
     25 H8          0.0175    0.1449    0.7266 H         1 <1>         0.1163
     26 H9          5.7942   -1.7166   -0.7570 H         1 <1>         0.1162
     27 H10         3.6744   -0.7716    2.8819 H         1 <1>         0.1314
     28 H11         3.2598    2.3689   -1.8216 H         1 <1>         0.1256
     29 H12         5.2991    0.6758   -1.2678 H         1 <1>         0.1256
     30 H13         2.1380   -0.0932    1.4010 H         1 <1>         0.3055
@<TRIPOS>BOND
     1    1    3 ar
     2    1    4 ar
     3    2    5 ar
     4    2    6 ar
     5    3    7 ar
     6    4    8 ar
     7    5    9 ar
     8    6   10 ar
     9    7   13 ar
    10    8   13 ar
    11    9   14 ar
    12   10   14 ar
    13   11   12 1
    14   11   15 2
    15   12   16 2
    16   13   15 1
    17   14   16 1
    18   15   17 1
    19   16   17 1
    20    1   18 1
    21    2   19 1
    22    3   20 1
    23    4   21 1
    24    5   22 1
    25    6   23 1
    26    7   24 1
    27    8   25 1
    28    9   26 1
    29   10   27 1
    30   11   28 1
    31   12   29 1
    32   17   30 1
