@<TRIPOS>MOLECULE
AE-641/14883017
   38    40     0
SMALL
USER_CHARGE


@<TRIPOS>ATOM
      1 C1         -1.2799    3.0161    0.1945 C.ar      1 <1>        -0.0981
      2 C2          5.9831   -3.3361    2.4983 C.ar      1 <1>        -0.0866
      3 C3         -0.1070    3.7507    0.3674 C.ar      1 <1>        -0.0928
      4 C4         -1.2141    1.6441   -0.0491 C.ar      1 <1>        -0.0927
      5 C5          5.7388   -3.4492    1.1297 C.ar      1 <1>        -0.0785
      6 C6          5.5707   -2.1962    3.1886 C.ar      1 <1>        -0.0774
      7 C7          1.1318    3.1136    0.2965 C.ar      1 <1>        -0.0755
      8 C8          0.0247    1.0070   -0.1201 C.ar      1 <1>        -0.0753
      9 C9          5.0821   -2.4225    0.4513 C.ar      1 <1>        -0.0519
     10 C10         4.9140   -1.1695    2.5102 C.ar      1 <1>        -0.0509
     11 C11         1.1977    1.7417    0.0527 C.ar      1 <1>        -0.0439
     12 C12         3.5182    1.3581   -0.9233 C.2       1 <1>         0.0035
     13 C13         4.6698   -1.2825    1.1415 C.ar      1 <1>        -0.0059
     14 C14         2.4730    1.0856   -0.0205 C.2       1 <1>         0.0123
     15 C15         4.5070    0.4675   -0.5828 C.2       1 <1>         0.0923
     16 C16         5.7991    0.3002   -1.1745 C.2       1 <1>         0.1626
     17 C17         3.5517    2.3704   -1.9955 C.3       1 <1>        -0.0063
     18 C18         7.5832    1.4348   -2.3203 C.3       1 <1>         0.0412
     19 N1          2.7700    0.0991    0.8296 N.2       1 <1>        -0.3242
     20 N2          4.0130   -0.2562    0.4624 N.pl3     1 <1>        -0.2730
     21 O1          6.4361   -0.7757   -1.2292 O.2       1 <1>        -0.4527
     22 O2          6.2945    1.4735   -1.6981 O.3       1 <1>        -0.3828
     23 H1         -2.2446    3.5116    0.2508 H         1 <1>         0.1154
     24 H2          6.4927   -4.1358    3.0273 H         1 <1>         0.1265
     25 H3         -0.1580    4.8187    0.5584 H         1 <1>         0.1190
     26 H4         -2.1275    1.0721   -0.1824 H         1 <1>         0.1185
     27 H5          6.0586   -4.3371    0.5924 H         1 <1>         0.1314
     28 H6          5.7602   -2.1094    4.2547 H         1 <1>         0.1329
     29 H7          2.0373    3.7002    0.4332 H         1 <1>         0.1337
     30 H8          0.0591   -0.0631   -0.3108 H         1 <1>         0.1340
     31 H9          4.8971   -2.5236   -0.6154 H         1 <1>         0.1538
     32 H10         4.5975   -0.2868    3.0605 H         1 <1>         0.1547
     33 H11         3.9516    3.3292   -1.6257 H         1 <1>         0.0792
     34 H12         4.1786    2.0529   -2.8467 H         1 <1>         0.0791
     35 H13         2.5486    2.5655   -2.4133 H         1 <1>         0.0841
     36 H14         7.8423    2.4314   -2.6859 H         1 <1>         0.1247
     37 H15         7.5669    0.7234   -3.1500 H         1 <1>         0.1449
     38 H16         8.3242    1.1152   -1.5837 H         1 <1>         0.1245
@<TRIPOS>BOND
     1    1    3 ar
     2    1    4 ar
     3    2    5 ar
     4    2    6 ar
     5    3    7 ar
     6    4    8 ar
     7    5    9 ar
     8    6   10 ar
     9    7   11 ar
    10    8   11 ar
    11    9   13 ar
    12   10   13 ar
    13   11   14 1
    14   12   14 1
    15   12   15 2
    16   12   17 1
    17   13   20 1
    18   14   19 2
    19   15   16 1
    20   15   20 1
    21   16   21 2
    22   16   22 1
    23   18   22 1
    24   19   20 1
    25    1   23 1
    26    2   24 1
    27    3   25 1
    28    4   26 1
    29    5   27 1
    30    6   28 1
    31    7   29 1
    32    8   30 1
    33    9   31 1
    34   10   32 1
    35   17   33 1
    36   17   34 1
    37   17   35 1
    38   18   36 1
    39   18   37 1
    40   18   38 1
