@<TRIPOS>MOLECULE
AG-927/42926100
   32    34     0
SMALL
USER_CHARGE


@<TRIPOS>ATOM
      1 C1         -1.2710    3.1064    0.0961 C.ar      1 <1>        -0.0980
      2 C2          6.0317   -3.2307    2.3615 C.ar      1 <1>        -0.0913
      3 C3         -0.1521    3.8082   -0.3524 C.ar      1 <1>        -0.0927
      4 C4         -1.1508    1.7685    0.4716 C.ar      1 <1>        -0.0928
      5 C5          5.7826   -3.3405    0.9935 C.ar      1 <1>        -0.0824
      6 C6          5.6143   -2.0962    3.0576 C.ar      1 <1>        -0.0838
      7 C7          1.0870    3.1721   -0.4254 C.ar      1 <1>        -0.0761
      8 C8          0.0884    1.1322    0.3987 C.ar      1 <1>        -0.0758
      9 C9          5.1161   -2.3158    0.3215 C.ar      1 <1>        -0.0607
     10 C10         4.9480   -1.0715    2.3855 C.ar      1 <1>        -0.0629
     11 C11         3.5223    1.4604   -1.0317 C.2       1 <1>        -0.0447
     12 C12         1.2074    1.8340   -0.0498 C.ar      1 <1>        -0.0502
     13 C13         4.6988   -1.1814    1.0175 C.ar      1 <1>        -0.0315
     14 C14         2.4829    1.1788   -0.1250 C.2       1 <1>        -0.0129
     15 C15         4.5173    0.5736   -0.6997 C.2       1 <1>        -0.0449
     16 C16         5.8587    0.3748   -1.2832 C.3       1 <1>        -0.0122
     17 N1          2.7892    0.1903    0.7194 N.2       1 <1>        -0.3564
     18 N2          4.0321   -0.1571    0.3448 N.pl3     1 <1>        -0.3328
     19 H1         -2.2358    3.6020    0.1540 H         1 <1>         0.1157
     20 H2          6.5489   -4.0291    2.8855 H         1 <1>         0.1205
     21 H3         -0.2453    4.8503   -0.6436 H         1 <1>         0.1188
     22 H4         -2.0219    1.2225    0.8218 H         1 <1>         0.1181
     23 H5          6.1062   -4.2244    0.4516 H         1 <1>         0.1296
     24 H6          5.8076   -2.0122    4.1232 H         1 <1>         0.1288
     25 H7          1.9501    3.7326   -0.7771 H         1 <1>         0.1348
     26 H8          0.1656    0.0887    0.6950 H         1 <1>         0.1356
     27 H9          4.9275   -2.4145   -0.7448 H         1 <1>         0.1485
     28 H10         4.6274   -0.1931    2.9405 H         1 <1>         0.1431
     29 H11         3.5502    2.2020   -1.8176 H         1 <1>         0.1450
     30 H12         6.6087    1.0056   -0.7786 H         1 <1>         0.0883
     31 H13         6.1935   -0.6734   -1.2028 H         1 <1>         0.0911
     32 H14         5.8825    0.6207   -2.3586 H         1 <1>         0.0843
@<TRIPOS>BOND
     1    1    3 ar
     2    1    4 ar
     3    2    5 ar
     4    2    6 ar
     5    3    7 ar
     6    4    8 ar
     7    5    9 ar
     8    6   10 ar
     9    7   12 ar
    10    8   12 ar
    11    9   13 ar
    12   10   13 ar
    13   11   14 1
    14   11   15 2
    15   12   14 1
    16   13   18 1
    17   14   17 2
    18   15   16 1
    19   15   18 1
    20   17   18 1
    21    1   19 1
    22    2   20 1
    23    3   21 1
    24    4   22 1
    25    5   23 1
    26    6   24 1
    27    7   25 1
    28    8   26 1
    29    9   27 1
    30   10   28 1
    31   11   29 1
    32   16   30 1
    33   16   31 1
    34   16   32 1
