@<TRIPOS>MOLECULE
AE-842/31985041
   42    46     0
SMALL
USER_CHARGE


@<TRIPOS>ATOM
      1 C1         -1.2963    2.9584    0.1216 C.ar      1 <1>        -0.0960
      2 C2          5.8446   -3.4833    2.4432 C.ar      1 <1>        -0.0987
      3 C3         -0.2023    3.6229   -0.4323 C.ar      1 <1>        -0.0907
      4 C4         -1.1299    1.6966    0.6927 C.ar      1 <1>        -0.0910
      5 C5          5.7523   -3.3974    1.0541 C.ar      1 <1>        -0.0901
      6 C6          5.4145   -2.4204    3.2377 C.ar      1 <1>        -0.0901
      7 C7          1.0584    3.0259   -0.4152 C.ar      1 <1>        -0.0729
      8 C8          0.1305    1.0996    0.7099 C.ar      1 <1>        -0.0738
      9 C9          5.2302   -2.2488    0.4595 C.ar      1 <1>        -0.0732
     10 C10         4.8924   -1.2718    2.6432 C.ar      1 <1>        -0.0732
     11 C11         1.2247    1.7642    0.1561 C.ar      1 <1>        -0.0489
     12 C12         4.8001   -1.1859    1.2540 C.ar      1 <1>        -0.0510
     13 C13         2.5317    1.1452    0.1739 C.2       1 <1>        -0.0261
     14 C14         3.4356    0.5716   -3.3221 C.3       1 <1>        -0.0530
     15 C15         4.5817   -0.4580   -3.1145 C.3       1 <1>        -0.0533
     16 C16         5.3360    1.5718   -2.2938 C.3       1 <1>        -0.0467
     17 C17         3.5617    1.4042   -0.8860 C.3       1 <1>         0.0031
     18 C18         3.7916    1.7190   -2.3502 C.3       1 <1>        -0.0357
     19 C19         5.2880    0.0966   -1.8478 C.3       1 <1>        -0.0353
     20 C20         4.1995    0.0127   -0.7732 C.3       1 <1>         0.0042
     21 N1          3.0380    0.4117    1.1394 N.2       1 <1>        -0.3715
     22 N2          4.2830   -0.0485    0.6656 N.pl3     1 <1>        -0.3605
     23 H1         -2.2777    3.4232    0.1080 H         1 <1>         0.1187
     24 H2          6.2514   -4.3777    2.9062 H         1 <1>         0.1083
     25 H3         -0.3320    4.6052   -0.8772 H         1 <1>         0.1202
     26 H4         -1.9817    1.1792    1.1242 H         1 <1>         0.1204
     27 H5          6.0873   -4.2247    0.4358 H         1 <1>         0.1215
     28 H6          5.4864   -2.4875    4.3196 H         1 <1>         0.1210
     29 H7          1.9041    3.5528   -0.8495 H         1 <1>         0.1393
     30 H8          0.2484    0.1161    1.1576 H         1 <1>         0.1367
     31 H9          5.1628   -2.1917   -0.6239 H         1 <1>         0.1321
     32 H10         4.5601   -0.4500    3.2724 H         1 <1>         0.1317
     33 H11         3.4379    0.9189   -4.3610 H         1 <1>         0.0501
     34 H12         2.4517    0.1443   -3.1031 H         1 <1>         0.0458
     35 H13         4.2021   -1.4779   -2.9946 H         1 <1>         0.0484
     36 H14         5.2606   -0.4541   -3.9759 H         1 <1>         0.0456
     37 H15         5.8153    1.7228   -3.2682 H         1 <1>         0.0528
     38 H16         5.8300    2.2224   -1.5639 H         1 <1>         0.0560
     39 H17         4.1519    2.1758   -0.3510 H         1 <1>         0.0985
     40 H18         3.4272    2.6996   -2.6609 H         1 <1>         0.0748
     41 H19         6.2409   -0.3812   -1.6196 H         1 <1>         0.0815
     42 H20         3.4892   -0.7853   -1.0521 H         1 <1>         0.1212
@<TRIPOS>BOND
     1    1    3 ar
     2    1    4 ar
     3    2    5 ar
     4    2    6 ar
     5    3    7 ar
     6    4    8 ar
     7    5    9 ar
     8    6   10 ar
     9    7   11 ar
    10    8   11 ar
    11    9   12 ar
    12   10   12 ar
    13   11   13 1
    14   12   22 1
    15   13   17 1
    16   13   21 2
    17   14   15 1
    18   14   18 1
    19   15   19 1
    20   16   18 1
    21   16   19 1
    22   17   18 1
    23   17   20 1
    24   19   20 1
    25   20   22 1
    26   21   22 1
    27    1   23 1
    28    2   24 1
    29    3   25 1
    30    4   26 1
    31    5   27 1
    32    6   28 1
    33    7   29 1
    34    8   30 1
    35    9   31 1
    36   10   32 1
    37   14   33 1
    38   14   34 1
    39   15   35 1
    40   15   36 1
    41   16   37 1
    42   16   38 1
    43   17   39 1
    44   18   40 1
    45   19   41 1
    46   20   42 1
