@<TRIPOS>MOLECULE
AB-321/43115455
   42    45     0
SMALL
USER_CHARGE


@<TRIPOS>ATOM
      1 C1         -1.2176    3.2529   -0.0885 C.ar      1 <1>        -0.0999
      2 C2          6.1986   -3.2385    2.2694 C.ar      1 <1>        -0.0907
      3 C3          5.0822    2.3046   -2.8321 C.ar      1 <1>        -0.0881
      4 C4         -0.0358    3.9699    0.0982 C.ar      1 <1>        -0.0965
      5 C5         -1.1702    1.8780   -0.3191 C.ar      1 <1>        -0.0951
      6 C6          6.0569    1.3842   -2.4522 C.ar      1 <1>        -0.0837
      7 C7          5.9263   -3.3396    0.9050 C.ar      1 <1>        -0.0850
      8 C8          5.7770   -2.1169    2.9834 C.ar      1 <1>        -0.0835
      9 C9          3.8530    2.3626   -2.1652 C.ar      1 <1>        -0.0715
     10 C10         1.1934    3.3121    0.0542 C.ar      1 <1>        -0.0831
     11 C11         0.0591    1.2202   -0.3631 C.ar      1 <1>        -0.0816
     12 C12         5.8360    0.4946   -1.3969 C.ar      1 <1>        -0.0664
     13 C13         5.2326   -2.3189    0.2549 C.ar      1 <1>        -0.0669
     14 C14         5.0833   -1.0963    2.3333 C.ar      1 <1>        -0.0651
     15 C15         3.6076    1.4757   -1.0981 C.ar      1 <1>        -0.0336
     16 C16         1.2409    1.9372   -0.1765 C.ar      1 <1>        -0.0553
     17 C17         2.5073    1.2592   -0.2220 C.2       1 <1>         0.0013
     18 C18         4.6027    0.5640   -0.7393 C.ar      1 <1>        -0.0278
     19 C19         4.8112   -1.1973    0.9690 C.ar      1 <1>        -0.0360
     20 C20         2.8493    0.2390    0.6354 C.2       1 <1>         0.0794
     21 C21         2.0591   -0.3272    1.6920 C.2       1 <1>         0.1630
     22 C22         0.9298    0.1591    3.7542 C.3       1 <1>         0.0405
     23 N1          4.1149   -0.1737    0.3159 N.pl3     1 <1>        -0.3208
     24 O1          1.7070   -1.5230    1.7646 O.2       1 <1>        -0.4485
     25 O2          1.7188    0.6036    2.6454 O.3       1 <1>        -0.3818
     26 H1         -2.1749    3.7647   -0.0531 H         1 <1>         0.1130
     27 H2          6.7370   -4.0336    2.7765 H         1 <1>         0.1224
     28 H3          5.2768    2.9858   -3.6562 H         1 <1>         0.1191
     29 H4         -0.0725    5.0401    0.2791 H         1 <1>         0.1150
     30 H5         -2.0906    1.3198   -0.4631 H         1 <1>         0.1167
     31 H6          7.0045    1.3565   -2.9845 H         1 <1>         0.1303
     32 H7          6.2532   -4.2133    0.3492 H         1 <1>         0.1267
     33 H8          5.9882   -2.0395    4.0461 H         1 <1>         0.1282
     34 H9          3.1044    3.0870   -2.4731 H         1 <1>         0.1393
     35 H10         2.1059    3.8851    0.2015 H         1 <1>         0.1268
     36 H11         0.0791    0.1479   -0.5438 H         1 <1>         0.1285
     37 H12         6.6011   -0.2183   -1.1075 H         1 <1>         0.1370
     38 H13         5.0262   -2.4106   -0.8088 H         1 <1>         0.1415
     39 H14         4.7599   -0.2279    2.9021 H         1 <1>         0.1446
     40 H15         0.7377    0.9994    4.4258 H         1 <1>         0.1435
     41 H16         1.4622   -0.6328    4.2872 H         1 <1>         0.1219
     42 H17        -0.0202   -0.2306    3.3810 H         1 <1>         0.1222
@<TRIPOS>BOND
     1    1    4 ar
     2    1    5 ar
     3    2    7 ar
     4    2    8 ar
     5    3    6 ar
     6    3    9 ar
     7    4   10 ar
     8    5   11 ar
     9    6   12 ar
    10    7   13 ar
    11    8   14 ar
    12    9   15 ar
    13   10   16 ar
    14   11   16 ar
    15   12   18 ar
    16   13   19 ar
    17   14   19 ar
    18   15   17 1
    19   15   18 ar
    20   16   17 1
    21   17   20 2
    22   18   23 1
    23   19   23 1
    24   20   21 1
    25   20   23 1
    26   21   24 2
    27   21   25 1
    28   22   25 1
    29    1   26 1
    30    2   27 1
    31    3   28 1
    32    4   29 1
    33    5   30 1
    34    6   31 1
    35    7   32 1
    36    8   33 1
    37    9   34 1
    38   10   35 1
    39   11   36 1
    40   12   37 1
    41   13   38 1
    42   14   39 1
    43   22   40 1
    44   22   41 1
    45   22   42 1
