@<TRIPOS>MOLECULE
AK-087/42718336
   37    39     0
SMALL
USER_CHARGE


@<TRIPOS>ATOM
      1 C1          5.8715    0.7183   -2.7191 C.1       1 <1>        -0.0185
      2 C2          1.1409    3.2051    0.1973 C.ar      1 <1>        -0.0603
      3 C3          0.0346    1.0989   -0.2236 C.ar      1 <1>        -0.0601
      4 C4          5.1165   -2.3164    0.3214 C.ar      1 <1>        -0.0446
      5 C5          4.9476   -1.0714    2.3851 C.ar      1 <1>        -0.0455
      6 C6          5.7829   -3.3406    0.9940 C.ar      1 <1>        -0.0456
      7 C7          5.6139   -2.0957    3.0576 C.ar      1 <1>        -0.0504
      8 C8         -0.0981    3.8415    0.2698 C.ar      1 <1>        -0.0625
      9 C9         -1.2044    1.7354   -0.1511 C.ar      1 <1>        -0.0626
     10 C10         3.5222    1.4605   -1.0317 C.2       1 <1>        -0.0228
     11 C11         1.2074    1.8338   -0.0496 C.ar      1 <1>        -0.0374
     12 C12         4.6989   -1.1817    1.0170 C.ar      1 <1>        -0.0187
     13 C13         6.0316   -3.2304    2.3621 C.ar      1 <1>        -0.0289
     14 C14        -1.2709    3.1065    0.0958 C.ar      1 <1>        -0.0369
     15 C15         2.4829    1.1786   -0.1249 C.2       1 <1>        -0.0001
     16 C16         4.5172    0.5736   -0.6999 C.2       1 <1>         0.0084
     17 C17         6.9021   -4.0513    4.4174 C.3       1 <1>         0.0120
     18 C18         5.8586    0.3750   -1.2834 C.3       1 <1>         0.1102
     19 N1          5.8712    0.9894   -3.8475 N.1       1 <1>        -0.4108
     20 N2          2.7892    0.1899    0.7193 N.2       1 <1>        -0.3455
     21 N3          4.0321   -0.1572    0.3444 N.pl3     1 <1>        -0.3128
     22 O1          6.6811   -4.2299    3.0192 O.3       1 <1>        -0.4606
     23 Br1        -2.9495    3.9690    0.1927 Br        1 <1>        -0.1428
     24 H1          2.0458    3.7921    0.3352 H         1 <1>         0.1494
     25 H2          0.0697    0.0293   -0.4182 H         1 <1>         0.1501
     26 H3          4.9295   -2.4154   -0.7452 H         1 <1>         0.1559
     27 H4          4.6280   -0.1921    2.9391 H         1 <1>         0.1618
     28 H5          6.1059   -4.2225    0.4472 H         1 <1>         0.1568
     29 H6          5.8039   -2.0035    4.1235 H         1 <1>         0.1419
     30 H7         -0.1320    4.9106    0.4616 H         1 <1>         0.1438
     31 H8         -2.1089    1.1486   -0.2908 H         1 <1>         0.1430
     32 H9          3.5501    2.2021   -1.8174 H         1 <1>         0.1599
     33 H10         7.4290   -4.9208    4.8178 H         1 <1>         0.1101
     34 H11         5.9427   -3.9272    4.9259 H         1 <1>         0.1102
     35 H12         7.5111   -3.1571    4.5696 H         1 <1>         0.1341
     36 H13         6.1974   -0.6689   -1.1630 H         1 <1>         0.2052
     37 H14         6.6168    0.9860   -0.7634 H         1 <1>         0.2147
@<TRIPOS>BOND
     1    1   18 1
     2    1   19 3
     3    2    8 ar
     4    2   11 ar
     5    3    9 ar
     6    3   11 ar
     7    4    6 ar
     8    4   12 ar
     9    5    7 ar
    10    5   12 ar
    11    6   13 ar
    12    7   13 ar
    13    8   14 ar
    14    9   14 ar
    15   10   15 1
    16   10   16 2
    17   11   15 1
    18   12   21 1
    19   13   22 1
    20   14   23 1
    21   15   20 2
    22   16   18 1
    23   16   21 1
    24   17   22 1
    25   20   21 1
    26    2   24 1
    27    3   25 1
    28    4   26 1
    29    5   27 1
    30    6   28 1
    31    7   29 1
    32    8   30 1
    33    9   31 1
    34   10   32 1
    35   17   33 1
    36   17   34 1
    37   17   35 1
    38   18   36 1
    39   18   37 1
