# Name:		AJ-916/40989362
# Created and modified by SHAFTS on Tue Sep 23 19:00:28 2014

# 

@<TRIPOS>MOLECULE
AJ-916/40989362
   36    39     0
SMALL
USER_CHARGE


@<TRIPOS>ATOM
      1 C1         -1.0459    1.3546    0.1534 C.ar      1 <1>        -0.0756
      2 C2          0.2042    1.2239   -0.4513 C.ar      1 <1>        -0.0617
      3 C3          4.1001   -1.7978    2.0144 C.ar      1 <1>        -0.0433
      4 C4          6.2164   -1.8863    0.8523 C.ar      1 <1>        -0.0393
      5 C5         -1.4119    2.5641    0.7440 C.ar      1 <1>        -0.0649
      6 C6          4.5148   -2.8358    2.8486 C.ar      1 <1>        -0.0501
      7 C7          6.6312   -2.9242    1.6866 C.ar      1 <1>        -0.0481
      8 C8          0.7225    3.5123    0.1253 C.ar      1 <1>        -0.0388
      9 C9          3.3255    0.3414    0.2487 C.2       1 <1>         0.0217
     10 C10         3.3731    1.2724   -0.7480 C.ar      1 <1>         0.0365
     11 C11         1.0885    2.3026   -0.4654 C.ar      1 <1>        -0.0202
     12 C12         4.6609    1.1510   -1.3857 C.ar      1 <1>         0.0493
     13 C13         4.9509   -1.3231    1.0161 C.ar      1 <1>        -0.0086
     14 C14         5.7804   -3.3990    2.6849 C.ar      1 <1>        -0.0255
     15 C15        -0.5277    3.6429    0.7300 C.ar      1 <1>        -0.0270
     16 C16         2.3701    2.1685   -1.0853 C.ar      1 <1>         0.0393
     17 C17         4.9962    1.9905   -2.4578 C.ar      1 <1>         0.0281
     18 C18         6.2735    1.9875   -3.2139 C.3       1 <1>         0.0143
     19 N1          5.3585    0.1734   -0.7823 N.2       1 <1>        -0.3203
     20 N2          2.7244    2.9675   -2.1269 N.ar      1 <1>        -0.3022
     21 N3          4.0195    2.8771   -2.8011 N.ar      1 <1>        -0.3038
     22 N4          4.5363   -0.2856    0.1829 N.pl3     1 <1>        -0.2982
     23 Br1         6.3426   -4.8048    3.8162 Br        1 <1>        -0.1313
     24 Br2        -1.0236    5.2812    1.5320 Br        1 <1>        -0.1346
     25 H1         -1.7343    0.5148    0.1645 H         1 <1>         0.1352
     26 H2          0.4743    0.2752   -0.9088 H         1 <1>         0.1424
     27 H3          3.1109   -1.3683    2.1529 H         1 <1>         0.1593
     28 H4          6.8894   -1.5257    0.0781 H         1 <1>         0.1711
     29 H5         -2.3900    2.6494    1.2110 H         1 <1>         0.1448
     30 H6          3.8402   -3.1943    3.6219 H         1 <1>         0.1583
     31 H7          7.6206   -3.3523    1.5458 H         1 <1>         0.1593
     32 H8          1.4131    4.3534    0.1139 H         1 <1>         0.1680
     33 H9          2.5709    0.0715    0.9767 H         1 <1>         0.2546
     34 H10         6.2168    1.3016   -4.0710 H         1 <1>         0.1049
     35 H11         6.5222    2.9899   -3.5938 H         1 <1>         0.1014
     36 H12         7.1184    1.6758   -2.5814 H         1 <1>         0.1051
@<TRIPOS>BOND
     1    1    2 ar
     2    1    5 ar
     3    2   11 ar
     4    3    6 ar
     5    3   13 ar
     6    4    7 ar
     7    4   13 ar
     8    5   15 ar
     9    6   14 ar
    10    7   14 ar
    11    8   11 ar
    12    8   15 ar
    13    9   10 2
    14    9   22 1
    15   10   12 ar
    16   10   16 ar
    17   11   16 1
    18   12   17 ar
    19   12   19 2
    20   13   22 1
    21   14   23 1
    22   15   24 1
    23   16   20 ar
    24   17   18 1
    25   17   21 ar
    26   19   22 1
    27   20   21 ar
    28    1   25 1
    29    2   26 1
    30    3   27 1
    31    4   28 1
    32    5   29 1
    33    6   30 1
    34    7   31 1
    35    8   32 1
    36    9   33 1
    37   18   34 1
    38   18   35 1
    39   18   36 1
@<TRIPOS>Similarity
2.1236
@<TRIPOS>ShapeSim
1.0000
@<TRIPOS>PharmSim
1.1236
# END
# Name:		AI-031/12583052
# Created and modified by SHAFTS on Tue Sep 23 19:00:28 2014

# 

@<TRIPOS>MOLECULE
AI-031/12583052
   36    39     0
SMALL
USER_CHARGE


@<TRIPOS>ATOM
      1 C1         -1.4217    2.5467    0.7276 C.ar      1 <1>        -0.0951
      2 C2         -0.7827    1.3071    0.7009 C.ar      1 <1>        -0.0913
      3 C3         -0.8079    3.6600    0.1535 C.ar      1 <1>        -0.0883
      4 C4          0.4699    1.1807    0.1002 C.ar      1 <1>        -0.0729
      5 C5          0.4446    3.5338   -0.4472 C.ar      1 <1>        -0.0680
      6 C6          4.4673   -1.4038    2.3221 C.ar      1 <1>        -0.0374
      7 C7          5.8492   -2.2801    0.5446 C.ar      1 <1>        -0.0414
      8 C8          4.8820   -2.4419    3.1564 C.ar      1 <1>        -0.0400
      9 C9          6.2640   -3.3182    1.3789 C.ar      1 <1>        -0.0420
     10 C10         3.3235    0.3381    0.2455 C.2       1 <1>         0.0207
     11 C11         3.3719    1.2703   -0.7500 C.ar      1 <1>         0.0344
     12 C12         1.0836    2.2941   -0.4738 C.ar      1 <1>        -0.0337
     13 C13         4.6622    1.1532   -1.3835 C.ar      1 <1>         0.0476
     14 C14         4.9509   -1.3230    1.0162 C.ar      1 <1>        -0.0089
     15 C15         5.7803   -3.3990    2.6847 C.ar      1 <1>        -0.0045
     16 C16         2.3676    2.1641   -1.0896 C.ar      1 <1>         0.0341
     17 C17         4.9989    1.9950   -2.4534 C.ar      1 <1>         0.0265
     18 C18         6.2787    1.9965   -3.2052 C.3       1 <1>         0.0135
     19 N1          5.3604    0.1768   -0.7789 N.2       1 <1>        -0.3219
     20 N2          2.7232    2.9654   -2.1290 N.ar      1 <1>        -0.3050
     21 N3          4.0208    2.8793   -2.7989 N.ar      1 <1>        -0.3057
     22 N4          4.5363   -0.2855    0.1829 N.pl3     1 <1>        -0.2994
     23 Cl1         6.2937   -4.6783    3.7151 Cl        1 <1>        -0.1756
     24 H1         -2.3977    2.6445    1.1938 H         1 <1>         0.1202
     25 H2         -1.2611    0.4397    1.1464 H         1 <1>         0.1201
     26 H3         -1.3054    4.6253    0.1725 H         1 <1>         0.1234
     27 H4          0.9549    0.2074    0.0874 H         1 <1>         0.1305
     28 H5          0.9104    4.4103   -0.8912 H         1 <1>         0.1442
     29 H6          3.7668   -0.6644    2.7029 H         1 <1>         0.1717
     30 H7          6.2341   -2.2287   -0.4710 H         1 <1>         0.1600
     31 H8          4.4968   -2.4930    4.1716 H         1 <1>         0.1613
     32 H9          6.9640   -4.0573    0.9979 H         1 <1>         0.1603
     33 H10         2.5672    0.0652    0.9705 H         1 <1>         0.2540
     34 H11         6.2267    1.3114   -4.0634 H         1 <1>         0.1038
     35 H12         6.5258    2.9999   -3.5831 H         1 <1>         0.1041
     36 H13         7.1223    1.6862   -2.5703 H         1 <1>         0.1005
@<TRIPOS>BOND
     1    1    2 ar
     2    1    3 ar
     3    2    4 ar
     4    3    5 ar
     5    4   12 ar
     6    5   12 ar
     7    6    8 ar
     8    6   14 ar
     9    7    9 ar
    10    7   14 ar
    11    8   15 ar
    12    9   15 ar
    13   10   11 2
    14   10   22 1
    15   11   13 ar
    16   11   16 ar
    17   12   16 1
    18   13   17 ar
    19   13   19 2
    20   14   22 1
    21   15   23 1
    22   16   20 ar
    23   17   18 1
    24   17   21 ar
    25   19   22 1
    26   20   21 ar
    27    1   24 1
    28    2   25 1
    29    3   26 1
    30    4   27 1
    31    5   28 1
    32    6   29 1
    33    7   30 1
    34    8   31 1
    35    9   32 1
    36   10   33 1
    37   18   34 1
    38   18   35 1
    39   18   36 1
@<TRIPOS>Similarity
2.0345
@<TRIPOS>ShapeSim
0.9545
@<TRIPOS>PharmSim
1.0799
# END
# Name:		AI-031/12583059
# Created and modified by SHAFTS on Tue Sep 23 19:00:28 2014

# 

@<TRIPOS>MOLECULE
AI-031/12583059
   39    42     0
SMALL
USER_CHARGE


@<TRIPOS>ATOM
      1 C1         -1.4211    2.5488    0.7284 C.ar      1 <1>        -0.0953
      2 C2         -0.7825    1.3090    0.7015 C.ar      1 <1>        -0.0915
      3 C3         -0.8071    3.6622    0.1548 C.ar      1 <1>        -0.0885
      4 C4          0.4703    1.1826    0.1011 C.ar      1 <1>        -0.0730
      5 C5          0.4457    3.5359   -0.4455 C.ar      1 <1>        -0.0681
      6 C6          4.8823   -2.4432    3.1565 C.ar      1 <1>        -0.0814
      7 C7          6.2642   -3.3175    1.3781 C.ar      1 <1>        -0.0834
      8 C8          4.4672   -1.4044    2.3231 C.ar      1 <1>        -0.0541
      9 C9          5.8490   -2.2788    0.5447 C.ar      1 <1>        -0.0581
     10 C10         3.3237    0.3393    0.2467 C.2       1 <1>         0.0190
     11 C11         3.3725    1.2720   -0.7484 C.ar      1 <1>         0.0330
     12 C12         1.0843    2.2960   -0.4725 C.ar      1 <1>        -0.0341
     13 C13         5.7809   -3.3996    2.6839 C.ar      1 <1>        -0.1009
     14 C14         4.6629    1.1548   -1.3816 C.ar      1 <1>         0.0463
     15 C15         4.9505   -1.3223    1.0174 C.ar      1 <1>        -0.0185
     16 C16         2.3684    2.1661   -1.0879 C.ar      1 <1>         0.0331
     17 C17         5.0001    1.9968   -2.4511 C.ar      1 <1>         0.0255
     18 C18         6.2249   -4.5102    3.5747 C.3       1 <1>        -0.0398
     19 C19         6.2800    1.9983   -3.2026 C.3       1 <1>         0.0130
     20 N1          5.3608    0.1780   -0.7772 N.2       1 <1>        -0.3235
     21 N2          2.7246    2.9675   -2.1270 N.ar      1 <1>        -0.3060
     22 N3          4.0223    2.8815   -2.7966 N.ar      1 <1>        -0.3068
     23 N4          4.5363   -0.2846    0.1843 N.pl3     1 <1>        -0.3026
     24 H1         -2.3972    2.6466    1.1945 H         1 <1>         0.1198
     25 H2         -1.2612    0.4417    1.1465 H         1 <1>         0.1198
     26 H3         -1.3043    4.6276    0.1742 H         1 <1>         0.1232
     27 H4          0.9550    0.2092    0.0881 H         1 <1>         0.1305
     28 H5          0.9117    4.4125   -0.8890 H         1 <1>         0.1440
     29 H6          4.5011   -2.5000    4.1726 H         1 <1>         0.1349
     30 H7          6.9647   -4.0582    1.0014 H         1 <1>         0.1341
     31 H8          3.7669   -0.6649    2.7042 H         1 <1>         0.1585
     32 H9          6.2342   -2.2273   -0.4708 H         1 <1>         0.1468
     33 H10         2.5671    0.0663    0.9714 H         1 <1>         0.2522
     34 H11         5.5527   -5.3713    3.4758 H         1 <1>         0.0635
     35 H12         7.2444   -4.8347    3.3294 H         1 <1>         0.0608
     36 H13         6.2361   -4.1968    4.6269 H         1 <1>         0.0608
     37 H14         6.2282    1.3135   -4.0610 H         1 <1>         0.1033
     38 H15         6.5276    3.0019   -3.5801 H         1 <1>         0.1036
     39 H16         7.1235    1.6877   -2.5676 H         1 <1>         0.1001
@<TRIPOS>BOND
     1    1    2 ar
     2    1    3 ar
     3    2    4 ar
     4    3    5 ar
     5    4   12 ar
     6    5   12 ar
     7    6    8 ar
     8    6   13 ar
     9    7    9 ar
    10    7   13 ar
    11    8   15 ar
    12    9   15 ar
    13   10   11 2
    14   10   23 1
    15   11   14 ar
    16   11   16 ar
    17   12   16 1
    18   13   18 1
    19   14   17 ar
    20   14   20 2
    21   15   23 1
    22   16   21 ar
    23   17   19 1
    24   17   22 ar
    25   20   23 1
    26   21   22 ar
    27    1   24 1
    28    2   25 1
    29    3   26 1
    30    4   27 1
    31    5   28 1
    32    6   29 1
    33    7   30 1
    34    8   31 1
    35    9   32 1
    36   10   33 1
    37   18   34 1
    38   18   35 1
    39   18   36 1
    40   19   37 1
    41   19   38 1
    42   19   39 1
@<TRIPOS>Similarity
2.0291
@<TRIPOS>ShapeSim
0.9535
@<TRIPOS>PharmSim
1.0757
# END
# Name:		AS-938/12583055
# Created and modified by SHAFTS on Tue Sep 23 19:00:28 2014

# 

@<TRIPOS>MOLECULE
AS-938/12583055
   40    43     0
SMALL
USER_CHARGE


@<TRIPOS>ATOM
      1 C1          0.2034    1.2194   -0.4571 C.ar      1 <1>        -0.0604
      2 C2          0.7180    3.5077    0.1219 C.ar      1 <1>        -0.0501
      3 C3          4.4694   -1.4023    2.3232 C.ar      1 <1>        -0.0375
      4 C4          5.8473   -2.2812    0.5438 C.ar      1 <1>        -0.0416
      5 C5         -1.0480    1.3483    0.1455 C.ar      1 <1>        -0.0613
      6 C6         -0.5333    3.6368    0.7245 C.ar      1 <1>        -0.0512
      7 C7          4.8840   -2.4407    3.1572 C.ar      1 <1>        -0.0400
      8 C8          6.2620   -3.3196    1.3779 C.ar      1 <1>        -0.0422
      9 C9          3.3247    0.3402    0.2476 C.2       1 <1>         0.0201
     10 C10         3.3730    1.2722   -0.7482 C.ar      1 <1>         0.0338
     11 C11         1.0865    2.2990   -0.4689 C.ar      1 <1>        -0.0269
     12 C12         4.6620    1.1530   -1.3837 C.ar      1 <1>         0.0472
     13 C13         4.9511   -1.3227    1.0165 C.ar      1 <1>        -0.0091
     14 C14        -1.4163    2.5569    0.7363 C.ar      1 <1>        -0.0345
     15 C15         5.7802   -3.3993    2.6845 C.ar      1 <1>        -0.0047
     16 C16         2.3693    2.1672   -1.0867 C.ar      1 <1>         0.0344
     17 C17         4.9982    1.9938   -2.4545 C.ar      1 <1>         0.0260
     18 C18         6.2768    1.9932   -3.2083 C.3       1 <1>         0.0131
     19 C19        -3.4909    1.5394    1.2991 C.3       1 <1>         0.0113
     20 N1          5.3598    0.1758   -0.7798 N.2       1 <1>        -0.3222
     21 N2          2.7244    2.9675   -2.1269 N.ar      1 <1>        -0.3059
     22 N3          4.0208    2.8794   -2.7989 N.ar      1 <1>        -0.3064
     23 N4          4.5366   -0.2850    0.1835 N.pl3     1 <1>        -0.2997
     24 O1         -2.6375    2.6827    1.3236 O.3       1 <1>        -0.4622
     25 Cl1         6.2935   -4.6788    3.7146 Cl        1 <1>        -0.1758
     26 H1          0.4760    0.2708   -0.9135 H         1 <1>         0.1401
     27 H2          1.3951    4.3586    0.1210 H         1 <1>         0.1611
     28 H3          3.7705   -0.6618    2.7047 H         1 <1>         0.1717
     29 H4          6.2307   -2.2308   -0.4724 H         1 <1>         0.1596
     30 H5         -1.7317    0.5037    0.1512 H         1 <1>         0.1301
     31 H6         -0.8150    4.5808    1.1831 H         1 <1>         0.1499
     32 H7          4.5004   -2.4909    4.1730 H         1 <1>         0.1613
     33 H8          6.9604   -4.0599    0.9961 H         1 <1>         0.1600
     34 H9          2.5693    0.0687    0.9739 H         1 <1>         0.2530
     35 H10         6.2226    1.3080   -4.0661 H         1 <1>         0.1032
     36 H11         6.5247    2.9962   -3.5870 H         1 <1>         0.1037
     37 H12         7.1210    1.6821   -2.5746 H         1 <1>         0.1000
     38 H13        -4.4323    1.7755    1.8010 H         1 <1>         0.1095
     39 H14        -2.9970    0.7040    1.8020 H         1 <1>         0.1092
     40 H15        -3.6926    1.2686    0.2599 H         1 <1>         0.1331
@<TRIPOS>BOND
     1    1    5 ar
     2    1   11 ar
     3    2    6 ar
     4    2   11 ar
     5    3    7 ar
     6    3   13 ar
     7    4    8 ar
     8    4   13 ar
     9    5   14 ar
    10    6   14 ar
    11    7   15 ar
    12    8   15 ar
    13    9   10 2
    14    9   23 1
    15   10   12 ar
    16   10   16 ar
    17   11   16 1
    18   12   17 ar
    19   12   20 2
    20   13   23 1
    21   14   24 1
    22   15   25 1
    23   16   21 ar
    24   17   18 1
    25   17   22 ar
    26   19   24 1
    27   20   23 1
    28   21   22 ar
    29    1   26 1
    30    2   27 1
    31    3   28 1
    32    4   29 1
    33    5   30 1
    34    6   31 1
    35    7   32 1
    36    8   33 1
    37    9   34 1
    38   18   35 1
    39   18   36 1
    40   18   37 1
    41   19   38 1
    42   19   39 1
    43   19   40 1
@<TRIPOS>Similarity
1.9958
@<TRIPOS>ShapeSim
0.9507
@<TRIPOS>PharmSim
1.0451
# END
# Name:		AS-938/12583062
# Created and modified by SHAFTS on Tue Sep 23 19:00:28 2014

# 

@<TRIPOS>MOLECULE
AS-938/12583062
   43    46     0
SMALL
USER_CHARGE


@<TRIPOS>ATOM
      1 C1          0.2028    1.2169   -0.4611 C.ar      1 <1>        -0.0552
      2 C2          0.7151    3.5055    0.1196 C.ar      1 <1>        -0.0557
      3 C3          4.8830   -2.4425    3.1568 C.ar      1 <1>        -0.0815
      4 C4          6.2635   -3.3181    1.3778 C.ar      1 <1>        -0.0834
      5 C5          4.4679   -1.4039    2.3234 C.ar      1 <1>        -0.0542
      6 C6          5.8482   -2.2795    0.5444 C.ar      1 <1>        -0.0581
      7 C7         -1.0493    1.3447    0.1401 C.ar      1 <1>        -0.0544
      8 C8         -0.5371    3.6333    0.7207 C.ar      1 <1>        -0.0586
      9 C9          3.3239    0.3397    0.2471 C.2       1 <1>         0.0186
     10 C10         3.3726    1.2720   -0.7483 C.ar      1 <1>         0.0324
     11 C11         1.0851    2.2973   -0.4712 C.ar      1 <1>        -0.0273
     12 C12         5.7810   -3.3995    2.6840 C.ar      1 <1>        -0.1010
     13 C13         4.6625    1.1541   -1.3822 C.ar      1 <1>         0.0457
     14 C14         4.9504   -1.3223    1.0173 C.ar      1 <1>        -0.0186
     15 C15        -1.4193    2.5529    0.7309 C.ar      1 <1>        -0.0349
     16 C16         2.3687    2.1665   -1.0875 C.ar      1 <1>         0.0332
     17 C17         4.9995    1.9956   -2.4523 C.ar      1 <1>         0.0248
     18 C18         6.2249   -4.5101    3.5749 C.3       1 <1>        -0.0399
     19 C19         6.2790    1.9963   -3.2046 C.3       1 <1>         0.0125
     20 C20        -3.4938    1.5335    1.2909 C.3       1 <1>         0.0113
     21 N1          5.3604    0.1771   -0.7779 N.2       1 <1>        -0.3238
     22 N2          2.7246    2.9675   -2.1270 N.ar      1 <1>        -0.3073
     23 N3          4.0218    2.8807   -2.7975 N.ar      1 <1>        -0.3078
     24 N4          4.5362   -0.2846    0.1841 N.pl3     1 <1>        -0.3028
     25 O1         -2.6413    2.6775    1.3169 O.3       1 <1>        -0.4625
     26 H1          0.4767    0.2688   -0.9176 H         1 <1>         0.1472
     27 H2          1.3916    4.3568    0.1199 H         1 <1>         0.1537
     28 H3          4.5024   -2.4988    4.1731 H         1 <1>         0.1348
     29 H4          6.9633   -4.0592    1.0010 H         1 <1>         0.1340
     30 H5          3.7682   -0.6638    2.7047 H         1 <1>         0.1583
     31 H6          6.2329   -2.2283   -0.4713 H         1 <1>         0.1469
     32 H7         -1.7325    0.4997    0.1447 H         1 <1>         0.1463
     33 H8         -0.8199    4.5769    1.1794 H         1 <1>         0.1330
     34 H9          2.5677    0.0673    0.9723 H         1 <1>         0.2518
     35 H10         5.5522   -5.3709    3.4766 H         1 <1>         0.0634
     36 H11         7.2442   -4.8352    3.3289 H         1 <1>         0.0606
     37 H12         6.2369   -4.1963    4.6270 H         1 <1>         0.0606
     38 H13         6.2262    1.3112   -4.0627 H         1 <1>         0.1027
     39 H14         6.5266    2.9996   -3.5825 H         1 <1>         0.1031
     40 H15         7.1226    1.6855   -2.5700 H         1 <1>         0.0996
     41 H16        -4.4360    1.7689    1.7918 H         1 <1>         0.1330
     42 H17        -3.0000    0.6985    1.7940 H         1 <1>         0.1096
     43 H18        -3.6941    1.2632    0.2513 H         1 <1>         0.1099
@<TRIPOS>BOND
     1    1    7 ar
     2    1   11 ar
     3    2    8 ar
     4    2   11 ar
     5    3    5 ar
     6    3   12 ar
     7    4    6 ar
     8    4   12 ar
     9    5   14 ar
    10    6   14 ar
    11    7   15 ar
    12    8   15 ar
    13    9   10 2
    14    9   24 1
    15   10   13 ar
    16   10   16 ar
    17   11   16 1
    18   12   18 1
    19   13   17 ar
    20   13   21 2
    21   14   24 1
    22   15   25 1
    23   16   22 ar
    24   17   19 1
    25   17   23 ar
    26   20   25 1
    27   21   24 1
    28   22   23 ar
    29    1   26 1
    30    2   27 1
    31    3   28 1
    32    4   29 1
    33    5   30 1
    34    6   31 1
    35    7   32 1
    36    8   33 1
    37    9   34 1
    38   18   35 1
    39   18   36 1
    40   18   37 1
    41   19   38 1
    42   19   39 1
    43   19   40 1
    44   20   41 1
    45   20   42 1
    46   20   43 1
@<TRIPOS>Similarity
1.9906
@<TRIPOS>ShapeSim
0.9496
@<TRIPOS>PharmSim
1.0409
# END
# Name:		AS-938/12583061
# Created and modified by SHAFTS on Tue Sep 23 19:00:28 2014

# 

@<TRIPOS>MOLECULE
AS-938/12583061
   42    45     0
SMALL
USER_CHARGE


@<TRIPOS>ATOM
      1 C1          0.4705    1.1846    0.1031 C.ar      1 <1>        -0.0678
      2 C2          0.4474    3.5376   -0.4444 C.ar      1 <1>        -0.0727
      3 C3         -0.7816    1.3120    0.7044 C.ar      1 <1>        -0.0913
      4 C4         -0.8047    3.6652    0.1571 C.ar      1 <1>        -0.0943
      5 C5          4.8830   -2.4425    3.1568 C.ar      1 <1>        -0.0834
      6 C6          6.2635   -3.3181    1.3778 C.ar      1 <1>        -0.0814
      7 C7          4.4679   -1.4039    2.3234 C.ar      1 <1>        -0.0582
      8 C8          5.8482   -2.2795    0.5444 C.ar      1 <1>        -0.0542
      9 C9          3.3239    0.3397    0.2471 C.2       1 <1>         0.0189
     10 C10         3.3726    1.2720   -0.7483 C.ar      1 <1>         0.0329
     11 C11         1.0851    2.2973   -0.4712 C.ar      1 <1>        -0.0336
     12 C12        -1.4192    2.5524    0.7314 C.ar      1 <1>        -0.1080
     13 C13         5.7810   -3.3995    2.6840 C.ar      1 <1>        -0.1010
     14 C14         4.6625    1.1541   -1.3822 C.ar      1 <1>         0.0462
     15 C15         4.9504   -1.3223    1.0173 C.ar      1 <1>        -0.0186
     16 C16         2.3687    2.1665   -1.0875 C.ar      1 <1>         0.0331
     17 C17         4.9995    1.9956   -2.4523 C.ar      1 <1>         0.0253
     18 C18        -2.7579    2.6890    1.3746 C.3       1 <1>        -0.0423
     19 C19         6.2249   -4.5101    3.5749 C.3       1 <1>        -0.0398
     20 C20         6.2790    1.9963   -3.2046 C.3       1 <1>         0.0128
     21 N1          5.3604    0.1771   -0.7779 N.2       1 <1>        -0.3236
     22 N2          2.7246    2.9675   -2.1270 N.ar      1 <1>        -0.3063
     23 N3          4.0218    2.8807   -2.7975 N.ar      1 <1>        -0.3070
     24 N4          4.5362   -0.2846    0.1841 N.pl3     1 <1>        -0.3027
     25 H1          0.9550    0.2111    0.0906 H         1 <1>         0.1454
     26 H2          0.9133    4.4142   -0.8883 H         1 <1>         0.1318
     27 H3         -1.2524    0.4401    1.1504 H         1 <1>         0.1234
     28 H4         -1.2946    4.6353    0.1730 H         1 <1>         0.1200
     29 H5          4.5024   -2.4988    4.1731 H         1 <1>         0.1340
     30 H6          6.9633   -4.0592    1.0010 H         1 <1>         0.1349
     31 H7          3.7682   -0.6638    2.7047 H         1 <1>         0.1467
     32 H8          6.2329   -2.2283   -0.4713 H         1 <1>         0.1584
     33 H9          2.5677    0.0673    0.9723 H         1 <1>         0.2520
     34 H10        -2.6474    2.9374    2.4373 H         1 <1>         0.0613
     35 H11        -3.3528    3.4759    0.8932 H         1 <1>         0.0591
     36 H12        -3.3358    1.7591    1.2927 H         1 <1>         0.0585
     37 H13         5.5522   -5.3709    3.4766 H         1 <1>         0.0635
     38 H14         7.2442   -4.8352    3.3289 H         1 <1>         0.0608
     39 H15         6.2369   -4.1963    4.6270 H         1 <1>         0.0607
     40 H16         6.2262    1.3112   -4.0627 H         1 <1>         0.1031
     41 H17         6.5266    2.9996   -3.5825 H         1 <1>         0.1035
     42 H18         7.1226    1.6855   -2.5700 H         1 <1>         0.0999
@<TRIPOS>BOND
     1    1    3 ar
     2    1   11 ar
     3    2    4 ar
     4    2   11 ar
     5    3   12 ar
     6    4   12 ar
     7    5    7 ar
     8    5   13 ar
     9    6    8 ar
    10    6   13 ar
    11    7   15 ar
    12    8   15 ar
    13    9   10 2
    14    9   24 1
    15   10   14 ar
    16   10   16 ar
    17   11   16 1
    18   12   18 1
    19   13   19 1
    20   14   17 ar
    21   14   21 2
    22   15   24 1
    23   16   22 ar
    24   17   20 1
    25   17   23 ar
    26   21   24 1
    27   22   23 ar
    28    1   25 1
    29    2   26 1
    30    3   27 1
    31    4   28 1
    32    5   29 1
    33    6   30 1
    34    7   31 1
    35    8   32 1
    36    9   33 1
    37   18   34 1
    38   18   35 1
    39   18   36 1
    40   19   37 1
    41   19   38 1
    42   19   39 1
    43   20   40 1
    44   20   41 1
    45   20   42 1
@<TRIPOS>Similarity
1.9826
@<TRIPOS>ShapeSim
0.9453
@<TRIPOS>PharmSim
1.0372
# END
# Name:		AS-938/12583060
# Created and modified by SHAFTS on Tue Sep 23 19:00:28 2014

# 

@<TRIPOS>MOLECULE
AS-938/12583060
   39    42     0
SMALL
USER_CHARGE


@<TRIPOS>ATOM
      1 C1          0.4705    1.1846    0.1031 C.ar      1 <1>        -0.0561
      2 C2          0.4476    3.5377   -0.4440 C.ar      1 <1>        -0.0512
      3 C3          4.8830   -2.4425    3.1568 C.ar      1 <1>        -0.0812
      4 C4          6.2635   -3.3181    1.3778 C.ar      1 <1>        -0.0832
      5 C5          4.4679   -1.4039    2.3234 C.ar      1 <1>        -0.0540
      6 C6          5.8482   -2.2795    0.5444 C.ar      1 <1>        -0.0579
      7 C7         -0.7815    1.3122    0.7048 C.ar      1 <1>        -0.0533
      8 C8         -0.8044    3.6654    0.1577 C.ar      1 <1>        -0.0503
      9 C9          3.3239    0.3397    0.2471 C.2       1 <1>         0.0193
     10 C10         3.3726    1.2720   -0.7483 C.ar      1 <1>         0.0341
     11 C11         1.0851    2.2973   -0.4712 C.ar      1 <1>        -0.0241
     12 C12         5.7810   -3.3995    2.6840 C.ar      1 <1>        -0.1007
     13 C13         4.6625    1.1541   -1.3822 C.ar      1 <1>         0.0472
     14 C14         4.9504   -1.3223    1.0173 C.ar      1 <1>        -0.0183
     15 C15        -1.4188    2.5526    0.7320 C.ar      1 <1>        -0.0129
     16 C16         2.3687    2.1665   -1.0875 C.ar      1 <1>         0.0364
     17 C17         4.9995    1.9956   -2.4523 C.ar      1 <1>         0.0265
     18 C18         6.2249   -4.5101    3.5749 C.3       1 <1>        -0.0397
     19 C19         6.2790    1.9963   -3.2046 C.3       1 <1>         0.0136
     20 N1          5.3604    0.1771   -0.7779 N.2       1 <1>        -0.3227
     21 N2          2.7246    2.9675   -2.1270 N.ar      1 <1>        -0.3043
     22 N3          4.0218    2.8807   -2.7975 N.ar      1 <1>        -0.3055
     23 N4          4.5362   -0.2846    0.1841 N.pl3     1 <1>        -0.3022
     24 Cl1        -2.9629    2.7097    1.4759 Cl        1 <1>        -0.1819
     25 H1          0.9548    0.2110    0.0900 H         1 <1>         0.1452
     26 H2          0.9141    4.4147   -0.8866 H         1 <1>         0.1588
     27 H3          4.5024   -2.4988    4.1731 H         1 <1>         0.1352
     28 H4          6.9633   -4.0592    1.0010 H         1 <1>         0.1344
     29 H5          3.7682   -0.6638    2.7047 H         1 <1>         0.1587
     30 H6          6.2329   -2.2283   -0.4713 H         1 <1>         0.1470
     31 H7         -1.2482    0.4372    1.1503 H         1 <1>         0.1464
     32 H8         -1.2890    4.6384    0.1726 H         1 <1>         0.1497
     33 H9          2.5677    0.0673    0.9723 H         1 <1>         0.2522
     34 H10         5.5522   -5.3709    3.4766 H         1 <1>         0.0637
     35 H11         7.2442   -4.8352    3.3289 H         1 <1>         0.0609
     36 H12         6.2369   -4.1963    4.6270 H         1 <1>         0.0610
     37 H13         6.2262    1.3112   -4.0627 H         1 <1>         0.1042
     38 H14         6.5266    2.9996   -3.5825 H         1 <1>         0.1008
     39 H15         7.1226    1.6855   -2.5700 H         1 <1>         0.1044
@<TRIPOS>BOND
     1    1    7 ar
     2    1   11 ar
     3    2    8 ar
     4    2   11 ar
     5    3    5 ar
     6    3   12 ar
     7    4    6 ar
     8    4   12 ar
     9    5   14 ar
    10    6   14 ar
    11    7   15 ar
    12    8   15 ar
    13    9   10 2
    14    9   23 1
    15   10   13 ar
    16   10   16 ar
    17   11   16 1
    18   12   18 1
    19   13   17 ar
    20   13   20 2
    21   14   23 1
    22   15   24 1
    23   16   21 ar
    24   17   19 1
    25   17   22 ar
    26   20   23 1
    27   21   22 ar
    28    1   25 1
    29    2   26 1
    30    3   27 1
    31    4   28 1
    32    5   29 1
    33    6   30 1
    34    7   31 1
    35    8   32 1
    36    9   33 1
    37   18   34 1
    38   18   35 1
    39   18   36 1
    40   19   37 1
    41   19   38 1
    42   19   39 1
@<TRIPOS>Similarity
1.9816
@<TRIPOS>ShapeSim
0.9444
@<TRIPOS>PharmSim
1.0373
# END
# Name:		AG-205/11218394
# Created and modified by SHAFTS on Tue Sep 23 19:00:28 2014

# 

@<TRIPOS>MOLECULE
AG-205/11218394
   36    39     0
SMALL
USER_CHARGE


@<TRIPOS>ATOM
      1 C1         -1.4133    2.5618    0.7416 C.ar      1 <1>        -0.0953
      2 C2          5.7805   -3.3989    2.6849 C.ar      1 <1>        -0.0874
      3 C3         -1.0465    1.3526    0.1509 C.ar      1 <1>        -0.0915
      4 C4         -0.5296    3.6409    0.7284 C.ar      1 <1>        -0.0884
      5 C5          5.4408   -2.1602    3.2288 C.ar      1 <1>        -0.0802
      6 C6          5.7053   -3.5998    1.3066 C.ar      1 <1>        -0.0782
      7 C7          0.2041    1.2226   -0.4531 C.ar      1 <1>        -0.0730
      8 C8          0.7210    3.5109    0.1245 C.ar      1 <1>        -0.0681
      9 C9          5.0259   -1.1223    2.3943 C.ar      1 <1>        -0.0584
     10 C10         5.2905   -2.5619    0.4722 C.ar      1 <1>        -0.0544
     11 C11         3.3252    0.3410    0.2483 C.2       1 <1>         0.0192
     12 C12         3.3730    1.2723   -0.7482 C.ar      1 <1>         0.0333
     13 C13         1.0879    2.3017   -0.4663 C.ar      1 <1>        -0.0340
     14 C14         4.6611    1.1515   -1.3852 C.ar      1 <1>         0.0465
     15 C15         4.9508   -1.3231    1.0160 C.ar      1 <1>        -0.0190
     16 C16         2.3698    2.1681   -1.0857 C.ar      1 <1>         0.0333
     17 C17         4.9967    1.9913   -2.4570 C.ar      1 <1>         0.0257
     18 C18         6.2744    1.9890   -3.2125 C.3       1 <1>         0.0131
     19 N1          5.3587    0.1739   -0.7817 N.2       1 <1>        -0.3233
     20 N2          2.7244    2.9675   -2.1269 N.ar      1 <1>        -0.3058
     21 N3          4.0198    2.8777   -2.8005 N.ar      1 <1>        -0.3066
     22 N4          4.5362   -0.2855    0.1829 N.pl3     1 <1>        -0.3026
     23 H1         -2.3878    2.6633    1.2102 H         1 <1>         0.1200
     24 H2          6.1053   -4.2068    3.3340 H         1 <1>         0.1263
     25 H3         -1.7351    0.5128    0.1595 H         1 <1>         0.1198
     26 H4         -0.8152    4.5832    1.1869 H         1 <1>         0.1233
     27 H5          5.5006   -2.0032    4.3017 H         1 <1>         0.1340
     28 H6          5.9714   -4.5643    0.8838 H         1 <1>         0.1350
     29 H7          0.4752    0.2735   -0.9096 H         1 <1>         0.1305
     30 H8          1.3991    4.3610    0.1213 H         1 <1>         0.1440
     31 H9          4.7648   -0.1614    2.8311 H         1 <1>         0.1453
     32 H10         5.2371   -2.7318   -0.6005 H         1 <1>         0.1570
     33 H11         2.5703    0.0706    0.9758 H         1 <1>         0.2526
     34 H12         6.2183    1.3032   -4.0698 H         1 <1>         0.1034
     35 H13         6.5228    2.9915   -3.5920 H         1 <1>         0.1002
     36 H14         7.1190    1.6773   -2.5797 H         1 <1>         0.1038
@<TRIPOS>BOND
     1    1    3 ar
     2    1    4 ar
     3    2    5 ar
     4    2    6 ar
     5    3    7 ar
     6    4    8 ar
     7    5    9 ar
     8    6   10 ar
     9    7   13 ar
    10    8   13 ar
    11    9   15 ar
    12   10   15 ar
    13   11   12 2
    14   11   22 1
    15   12   14 ar
    16   12   16 ar
    17   13   16 1
    18   14   17 ar
    19   14   19 2
    20   15   22 1
    21   16   20 ar
    22   17   18 1
    23   17   21 ar
    24   19   22 1
    25   20   21 ar
    26    1   23 1
    27    2   24 1
    28    3   25 1
    29    4   26 1
    30    5   27 1
    31    6   28 1
    32    7   29 1
    33    8   30 1
    34    9   31 1
    35   10   32 1
    36   11   33 1
    37   18   34 1
    38   18   35 1
    39   18   36 1
@<TRIPOS>Similarity
1.9638
@<TRIPOS>ShapeSim
0.9302
@<TRIPOS>PharmSim
1.0336
# END
# Name:		AJ-916/12583056
# Created and modified by SHAFTS on Tue Sep 23 19:00:28 2014

# 

@<TRIPOS>MOLECULE
AJ-916/12583056
   33    36     0
SMALL
USER_CHARGE


@<TRIPOS>ATOM
      1 C1         -1.1036    1.7873    0.3124 C.2       1 <1>        -0.0731
      2 C2          4.9940   -1.1499    2.3913 C.ar      1 <1>        -0.0410
      3 C3          5.3049   -2.5543    0.4501 C.ar      1 <1>        -0.0371
      4 C4          5.4161   -2.1939    3.2142 C.ar      1 <1>        -0.0417
      5 C5          5.7271   -3.5984    1.2731 C.ar      1 <1>        -0.0398
      6 C6          0.0469    1.2960   -0.3698 C.2       1 <1>        -0.0563
      7 C7          3.2943    0.3186    0.2477 C.2       1 <1>         0.0234
      8 C8         -0.9483    3.0963    0.7121 C.2       1 <1>        -0.0429
      9 C9          3.3373    1.2642   -0.7353 C.ar      1 <1>         0.0413
     10 C10         4.6341    1.1740   -1.3596 C.ar      1 <1>         0.0515
     11 C11         4.9383   -1.3301    1.0093 C.ar      1 <1>        -0.0082
     12 C12         5.7827   -3.4183    2.6552 C.ar      1 <1>        -0.0042
     13 C13         2.3229    2.1478   -1.0716 C.ar      1 <1>         0.0517
     14 C14         1.0375    2.2484   -0.4656 C.2       1 <1>         0.0031
     15 C15         4.9672    2.0341   -2.4159 C.ar      1 <1>         0.0301
     16 C16         6.2519    2.0614   -3.1590 C.3       1 <1>         0.0149
     17 N1          5.3415    0.1998   -0.7619 N.2       1 <1>        -0.3195
     18 N2          2.6752    2.9675   -2.0977 N.ar      1 <1>        -0.2954
     19 N3          3.9792    2.9088   -2.7580 N.ar      1 <1>        -0.3002
     20 N4          4.5164   -0.2866    0.1871 N.pl3     1 <1>        -0.2977
     21 S1          0.5794    3.7277    0.2652 S.3       1 <1>        -0.1515
     22 Cl1         6.3059   -4.7053    3.6706 Cl        1 <1>        -0.1753
     23 H1         -1.9997    1.2106    0.5000 H         1 <1>         0.1227
     24 H2          4.7113   -0.2009    2.8405 H         1 <1>         0.1604
     25 H3          5.2665   -2.7080   -0.6256 H         1 <1>         0.1721
     26 H4          5.4542   -2.0399    4.2896 H         1 <1>         0.1607
     27 H5          6.0095   -4.5471    0.8236 H         1 <1>         0.1615
     28 H6          0.1347    0.2928   -0.7686 H         1 <1>         0.1434
     29 H7          2.5367    0.0256    0.9631 H         1 <1>         0.2551
     30 H8         -1.6591    3.7123    1.2447 H         1 <1>         0.1798
     31 H9          6.2138    1.3873   -4.0266 H         1 <1>         0.1052
     32 H10         6.4890    3.0728   -3.5218 H         1 <1>         0.1053
     33 H11         7.0949    1.7529   -2.5227 H         1 <1>         0.1018
@<TRIPOS>BOND
     1    1    6 1
     2    1    8 2
     3    2    4 ar
     4    2   11 ar
     5    3    5 ar
     6    3   11 ar
     7    4   12 ar
     8    5   12 ar
     9    6   14 2
    10    7    9 2
    11    7   20 1
    12    8   21 1
    13    9   10 ar
    14    9   13 ar
    15   10   15 ar
    16   10   17 2
    17   11   20 1
    18   12   22 1
    19   13   14 1
    20   13   18 ar
    21   14   21 1
    22   15   16 1
    23   15   19 ar
    24   17   20 1
    25   18   19 ar
    26    1   23 1
    27    2   24 1
    28    3   25 1
    29    4   26 1
    30    5   27 1
    31    6   28 1
    32    7   29 1
    33    8   30 1
    34   16   31 1
    35   16   32 1
    36   16   33 1
@<TRIPOS>Similarity
1.9631
@<TRIPOS>ShapeSim
0.9370
@<TRIPOS>PharmSim
1.0261
# END
# Name:		AJ-916/12583063
# Created and modified by SHAFTS on Tue Sep 23 19:00:28 2014

# 

@<TRIPOS>MOLECULE
AJ-916/12583063
   36    39     0
SMALL
USER_CHARGE


@<TRIPOS>ATOM
      1 C1         -1.1035    1.7873    0.3124 C.2       1 <1>        -0.0734
      2 C2          5.4170   -2.1956    3.2134 C.ar      1 <1>        -0.0812
      3 C3          5.7276   -3.5984    1.2711 C.ar      1 <1>        -0.0831
      4 C4          4.9943   -1.1510    2.3914 C.ar      1 <1>        -0.0538
      5 C5          5.3050   -2.5539    0.4489 C.ar      1 <1>        -0.0577
      6 C6          0.0469    1.2960   -0.3698 C.2       1 <1>        -0.0566
      7 C7          3.2943    0.3186    0.2477 C.2       1 <1>         0.0217
      8 C8         -0.9483    3.0963    0.7121 C.2       1 <1>        -0.0432
      9 C9          3.3373    1.2643   -0.7353 C.ar      1 <1>         0.0400
     10 C10         5.7836   -3.4194    2.6532 C.ar      1 <1>        -0.1007
     11 C11         4.6341    1.1739   -1.3596 C.ar      1 <1>         0.0502
     12 C12         4.9383   -1.3302    1.0092 C.ar      1 <1>        -0.0178
     13 C13         2.3229    2.1479   -1.0716 C.ar      1 <1>         0.0508
     14 C14         1.0376    2.2484   -0.4656 C.2       1 <1>         0.0027
     15 C15         4.9672    2.0341   -2.4159 C.ar      1 <1>         0.0291
     16 C16         6.2356   -4.5362    3.5321 C.3       1 <1>        -0.0397
     17 C17         6.2519    2.0615   -3.1590 C.3       1 <1>         0.0144
     18 N1          5.3415    0.1999   -0.7619 N.2       1 <1>        -0.3211
     19 N2          2.6752    2.9675   -2.0977 N.ar      1 <1>        -0.2963
     20 N3          3.9792    2.9088   -2.7580 N.ar      1 <1>        -0.3012
     21 N4          4.5164   -0.2867    0.1872 N.pl3     1 <1>        -0.3010
     22 S1          0.5794    3.7278    0.2652 S.3       1 <1>        -0.1518
     23 H1         -1.9997    1.2106    0.5001 H         1 <1>         0.1223
     24 H2          5.4577   -2.0479    4.2892 H         1 <1>         0.1352
     25 H3          6.0118   -4.5483    0.8260 H         1 <1>         0.1345
     26 H4          4.7120   -0.2020    2.8407 H         1 <1>         0.1589
     27 H5          5.2666   -2.7077   -0.6267 H         1 <1>         0.1473
     28 H6          0.1347    0.2928   -0.7686 H         1 <1>         0.1429
     29 H7          2.5366    0.0256    0.9631 H         1 <1>         0.2534
     30 H8         -1.6591    3.7123    1.2448 H         1 <1>         0.1792
     31 H9          5.3805   -5.1508    3.8391 H         1 <1>         0.0635
     32 H10         6.9599   -5.1806    3.0172 H         1 <1>         0.0609
     33 H11         6.7331   -4.1570    4.4344 H         1 <1>         0.0609
     34 H12         6.2138    1.3874   -4.0266 H         1 <1>         0.1048
     35 H13         6.4890    3.0728   -3.5217 H         1 <1>         0.1049
     36 H14         7.0949    1.7529   -2.5227 H         1 <1>         0.1014
@<TRIPOS>BOND
     1    1    6 1
     2    1    8 2
     3    2    4 ar
     4    2   10 ar
     5    3    5 ar
     6    3   10 ar
     7    4   12 ar
     8    5   12 ar
     9    6   14 2
    10    7    9 2
    11    7   21 1
    12    8   22 1
    13    9   11 ar
    14    9   13 ar
    15   10   16 1
    16   11   15 ar
    17   11   18 2
    18   12   21 1
    19   13   14 1
    20   13   19 ar
    21   14   22 1
    22   15   17 1
    23   15   20 ar
    24   18   21 1
    25   19   20 ar
    26    1   23 1
    27    2   24 1
    28    3   25 1
    29    4   26 1
    30    5   27 1
    31    6   28 1
    32    7   29 1
    33    8   30 1
    34   16   31 1
    35   16   32 1
    36   16   33 1
    37   17   34 1
    38   17   35 1
    39   17   36 1
@<TRIPOS>Similarity
1.9577
@<TRIPOS>ShapeSim
0.9359
@<TRIPOS>PharmSim
1.0219
# END
# Name:		AS-938/12583050
# Created and modified by SHAFTS on Tue Sep 23 19:00:28 2014

# 

@<TRIPOS>MOLECULE
AS-938/12583050
   39    42     0
SMALL
USER_CHARGE


@<TRIPOS>ATOM
      1 C1          5.7790   -3.4005    2.6836 C.ar      1 <1>        -0.0875
      2 C2          4.8847   -2.4403    3.1569 C.ar      1 <1>        -0.0802
      3 C3          6.2592   -3.3222    1.3764 C.ar      1 <1>        -0.0782
      4 C4          0.4731    1.1914    0.1112 C.ar      1 <1>        -0.0678
      5 C5          0.4532    3.5440   -0.4380 C.ar      1 <1>        -0.0727
      6 C6         -0.7770    1.3218    0.7159 C.ar      1 <1>        -0.0913
      7 C7         -0.7970    3.6747    0.1666 C.ar      1 <1>        -0.0943
      8 C8          4.4705   -1.4019    2.3227 C.ar      1 <1>        -0.0584
      9 C9          5.8448   -2.2838    0.5422 C.ar      1 <1>        -0.0544
     10 C10         3.3252    0.3410    0.2483 C.2       1 <1>         0.0191
     11 C11         3.3731    1.2725   -0.7481 C.ar      1 <1>         0.0331
     12 C12         1.0884    2.3024   -0.4656 C.ar      1 <1>        -0.0335
     13 C13        -1.4122    2.5634    0.7435 C.ar      1 <1>        -0.1080
     14 C14         4.6611    1.1515   -1.3853 C.ar      1 <1>         0.0463
     15 C15         4.9505   -1.3238    1.0154 C.ar      1 <1>        -0.0191
     16 C16         2.3701    2.1686   -1.0853 C.ar      1 <1>         0.0333
     17 C17         4.9968    1.9914   -2.4570 C.ar      1 <1>         0.0255
     18 C18        -2.7488    2.7032    1.3902 C.3       1 <1>        -0.0423
     19 C19         6.2743    1.9889   -3.2125 C.3       1 <1>         0.0129
     20 N1          5.3586    0.1736   -0.7822 N.2       1 <1>        -0.3234
     21 N2          2.7248    2.9681   -2.1263 N.ar      1 <1>        -0.3061
     22 N3          4.0200    2.8781   -2.8001 N.ar      1 <1>        -0.3069
     23 N4          4.5361   -0.2859    0.1826 N.pl3     1 <1>        -0.3027
     24 H1          6.1033   -4.2081    3.3333 H         1 <1>         0.1262
     25 H2          4.5119   -2.5003    4.1753 H         1 <1>         0.1340
     26 H3          6.9567   -4.0695    1.0091 H         1 <1>         0.1349
     27 H4          0.9557    0.2169    0.0983 H         1 <1>         0.1454
     28 H5          0.9197    4.4194   -0.8838 H         1 <1>         0.1318
     29 H6         -1.2485    0.4512    1.1639 H         1 <1>         0.1234
     30 H7         -1.2849    4.6457    0.1831 H         1 <1>         0.1201
     31 H8          3.7736   -0.6596    2.7042 H         1 <1>         0.1452
     32 H9          6.2275   -2.2344   -0.4744 H         1 <1>         0.1570
     33 H10         2.5704    0.0707    0.9759 H         1 <1>         0.2524
     34 H11        -2.6351    2.9522    2.4523 H         1 <1>         0.0613
     35 H12        -3.3435    3.4910    0.9098 H         1 <1>         0.0591
     36 H13        -3.3288    1.7745    1.3107 H         1 <1>         0.0586
     37 H14         6.2179    1.3034   -4.0700 H         1 <1>         0.1032
     38 H15         6.5230    2.9914   -3.5920 H         1 <1>         0.1036
     39 H16         7.1190    1.6769   -2.5800 H         1 <1>         0.1000
@<TRIPOS>BOND
     1    1    2 ar
     2    1    3 ar
     3    2    8 ar
     4    3    9 ar
     5    4    6 ar
     6    4   12 ar
     7    5    7 ar
     8    5   12 ar
     9    6   13 ar
    10    7   13 ar
    11    8   15 ar
    12    9   15 ar
    13   10   11 2
    14   10   23 1
    15   11   14 ar
    16   11   16 ar
    17   12   16 1
    18   13   18 1
    19   14   17 ar
    20   14   20 2
    21   15   23 1
    22   16   21 ar
    23   17   19 1
    24   17   22 ar
    25   20   23 1
    26   21   22 ar
    27    1   24 1
    28    2   25 1
    29    3   26 1
    30    4   27 1
    31    5   28 1
    32    6   29 1
    33    7   30 1
    34    8   31 1
    35    9   32 1
    36   10   33 1
    37   18   34 1
    38   18   35 1
    39   18   36 1
    40   19   37 1
    41   19   38 1
    42   19   39 1
@<TRIPOS>Similarity
1.9400
@<TRIPOS>ShapeSim
0.9333
@<TRIPOS>PharmSim
1.0068
# END
# Name:		AI-031/12583049
# Created and modified by SHAFTS on Tue Sep 23 19:00:28 2014

# 

@<TRIPOS>MOLECULE
AI-031/12583049
   36    39     0
SMALL
USER_CHARGE


@<TRIPOS>ATOM
      1 C1          5.7783   -3.4016    2.6826 C.ar      1 <1>        -0.0872
      2 C2          4.8839   -2.4415    3.1560 C.ar      1 <1>        -0.0800
      3 C3          6.2587   -3.3229    1.3754 C.ar      1 <1>        -0.0780
      4 C4          0.4729    1.1912    0.1106 C.ar      1 <1>        -0.0561
      5 C5          0.4534    3.5441   -0.4375 C.ar      1 <1>        -0.0512
      6 C6          4.4698   -1.4029    2.3220 C.ar      1 <1>        -0.0581
      7 C7          5.8444   -2.2843    0.5415 C.ar      1 <1>        -0.0542
      8 C8         -0.7772    1.3217    0.7154 C.ar      1 <1>        -0.0533
      9 C9         -0.7967    3.6747    0.1672 C.ar      1 <1>        -0.0503
     10 C10         3.3249    0.3407    0.2479 C.2       1 <1>         0.0195
     11 C11         3.3731    1.2725   -0.7481 C.ar      1 <1>         0.0344
     12 C12         1.0884    2.3025   -0.4657 C.ar      1 <1>        -0.0240
     13 C13         4.6612    1.1517   -1.3851 C.ar      1 <1>         0.0474
     14 C14         4.9501   -1.3243    1.0149 C.ar      1 <1>        -0.0187
     15 C15        -1.4121    2.5634    0.7437 C.ar      1 <1>        -0.0129
     16 C16         2.3702    2.1687   -1.0852 C.ar      1 <1>         0.0366
     17 C17         4.9971    1.9919   -2.4564 C.ar      1 <1>         0.0267
     18 C18         6.2748    1.9897   -3.2118 C.3       1 <1>         0.0137
     19 N1          5.3586    0.1736   -0.7821 N.2       1 <1>        -0.3225
     20 N2          2.7251    2.9686   -2.1259 N.ar      1 <1>        -0.3041
     21 N3          4.0204    2.8788   -2.7995 N.ar      1 <1>        -0.3053
     22 N4          4.5359   -0.2862    0.1823 N.pl3     1 <1>        -0.3022
     23 Cl1        -2.9540    2.7240    1.4913 Cl        1 <1>        -0.1818
     24 H1          6.1024   -4.2094    3.3321 H         1 <1>         0.1267
     25 H2          4.5109   -2.5018    4.1743 H         1 <1>         0.1343
     26 H3          6.9563   -4.0701    1.0081 H         1 <1>         0.1352
     27 H4          0.9552    0.2167    0.0968 H         1 <1>         0.1452
     28 H5          0.9206    4.4199   -0.8817 H         1 <1>         0.1588
     29 H6          3.7729   -0.6607    2.7037 H         1 <1>         0.1455
     30 H7          6.2273   -2.2345   -0.4750 H         1 <1>         0.1572
     31 H8         -1.2446    0.4478    1.1625 H         1 <1>         0.1465
     32 H9         -1.2794    4.6486    0.1830 H         1 <1>         0.1499
     33 H10         2.5700    0.0702    0.9753 H         1 <1>         0.2526
     34 H11         6.2186    1.3044   -4.0695 H         1 <1>         0.1043
     35 H12         6.5236    2.9923   -3.5908 H         1 <1>         0.1009
     36 H13         7.1193    1.6774   -2.5792 H         1 <1>         0.1045
@<TRIPOS>BOND
     1    1    2 ar
     2    1    3 ar
     3    2    6 ar
     4    3    7 ar
     5    4    8 ar
     6    4   12 ar
     7    5    9 ar
     8    5   12 ar
     9    6   14 ar
    10    7   14 ar
    11    8   15 ar
    12    9   15 ar
    13   10   11 2
    14   10   22 1
    15   11   13 ar
    16   11   16 ar
    17   12   16 1
    18   13   17 ar
    19   13   19 2
    20   14   22 1
    21   15   23 1
    22   16   20 ar
    23   17   18 1
    24   17   21 ar
    25   19   22 1
    26   20   21 ar
    27    1   24 1
    28    2   25 1
    29    3   26 1
    30    4   27 1
    31    5   28 1
    32    6   29 1
    33    7   30 1
    34    8   31 1
    35    9   32 1
    36   10   33 1
    37   18   34 1
    38   18   35 1
    39   18   36 1
@<TRIPOS>Similarity
1.9391
@<TRIPOS>ShapeSim
0.9323
@<TRIPOS>PharmSim
1.0068
# END
# Name:		AI-031/11219617
# Created and modified by SHAFTS on Tue Sep 23 19:00:28 2014

# 

@<TRIPOS>MOLECULE
AI-031/11219617
   33    36     0
SMALL
USER_CHARGE


@<TRIPOS>ATOM
      1 C1          5.7828   -3.4176    2.6559 C.ar      1 <1>        -0.0872
      2 C2          5.4161   -2.1933    3.2146 C.ar      1 <1>        -0.0799
      3 C3          5.7273   -3.5983    1.2739 C.ar      1 <1>        -0.0780
      4 C4         -1.1035    1.7873    0.3124 C.2       1 <1>        -0.0733
      5 C5          4.9939   -1.1496    2.3912 C.ar      1 <1>        -0.0579
      6 C6          5.3051   -2.5545    0.4505 C.ar      1 <1>        -0.0540
      7 C7          0.0469    1.2959   -0.3698 C.2       1 <1>        -0.0565
      8 C8          3.2944    0.3186    0.2477 C.2       1 <1>         0.0219
      9 C9         -0.9483    3.0964    0.7122 C.2       1 <1>        -0.0431
     10 C10         3.3373    1.2643   -0.7353 C.ar      1 <1>         0.0402
     11 C11         4.6341    1.1739   -1.3596 C.ar      1 <1>         0.0504
     12 C12         4.9383   -1.3301    1.0092 C.ar      1 <1>        -0.0183
     13 C13         2.3229    2.1479   -1.0717 C.ar      1 <1>         0.0510
     14 C14         1.0375    2.2484   -0.4656 C.2       1 <1>         0.0028
     15 C15         4.9672    2.0341   -2.4158 C.ar      1 <1>         0.0292
     16 C16         6.2519    2.0614   -3.1591 C.3       1 <1>         0.0145
     17 N1          5.3415    0.1999   -0.7619 N.2       1 <1>        -0.3209
     18 N2          2.6752    2.9675   -2.0977 N.ar      1 <1>        -0.2962
     19 N3          3.9792    2.9088   -2.7580 N.ar      1 <1>        -0.3010
     20 N4          4.5164   -0.2867    0.1872 N.pl3     1 <1>        -0.3010
     21 S1          0.5795    3.7277    0.2652 S.3       1 <1>        -0.1517
     22 H1          6.1132   -4.2301    3.2964 H         1 <1>         0.1267
     23 H2          5.4604   -2.0520    4.2905 H         1 <1>         0.1345
     24 H3          6.0145   -4.5515    0.8395 H         1 <1>         0.1352
     25 H4         -1.9998    1.2106    0.5000 H         1 <1>         0.1224
     26 H5          4.7116   -0.2000    2.8395 H         1 <1>         0.1458
     27 H6          5.2673   -2.7086   -0.6251 H         1 <1>         0.1573
     28 H7          0.1346    0.2927   -0.7686 H         1 <1>         0.1431
     29 H8          2.5366    0.0256    0.9631 H         1 <1>         0.2537
     30 H9         -1.6591    3.7123    1.2448 H         1 <1>         0.1792
     31 H10         6.2137    1.3873   -4.0266 H         1 <1>         0.1049
     32 H11         6.4890    3.0728   -3.5218 H         1 <1>         0.1050
     33 H12         7.0949    1.7529   -2.5227 H         1 <1>         0.1015
@<TRIPOS>BOND
     1    1    2 ar
     2    1    3 ar
     3    2    5 ar
     4    3    6 ar
     5    4    7 1
     6    4    9 2
     7    5   12 ar
     8    6   12 ar
     9    7   14 2
    10    8   10 2
    11    8   20 1
    12    9   21 1
    13   10   11 ar
    14   10   13 ar
    15   11   15 ar
    16   11   17 2
    17   12   20 1
    18   13   14 1
    19   13   18 ar
    20   14   21 1
    21   15   16 1
    22   15   19 ar
    23   17   20 1
    24   18   19 ar
    25    1   22 1
    26    2   23 1
    27    3   24 1
    28    4   25 1
    29    5   26 1
    30    6   27 1
    31    7   28 1
    32    8   29 1
    33    9   30 1
    34   16   31 1
    35   16   32 1
    36   16   33 1
@<TRIPOS>Similarity
1.9141
@<TRIPOS>ShapeSim
0.9230
@<TRIPOS>PharmSim
0.9911
# END
# Name:		AJ-916/40989368
# Created and modified by SHAFTS on Tue Sep 23 19:00:28 2014

# 

@<TRIPOS>MOLECULE
AJ-916/40989368
   36    39     0
SMALL
USER_CHARGE


@<TRIPOS>ATOM
      1 C1          5.4600   -2.1430    3.2267 C.ar      1 <1>        -0.0699
      2 C2          5.7706   -3.3962    2.6989 C.ar      1 <1>        -0.0709
      3 C3         -0.7144    1.4411    0.8455 C.ar      1 <1>        -0.0759
      4 C4          0.5205    1.2892    0.2151 C.ar      1 <1>        -0.0618
      5 C5          5.0535   -1.1111    2.3807 C.ar      1 <1>        -0.0422
      6 C6          5.6749   -3.6176    1.3252 C.ar      1 <1>        -0.0395
      7 C7         -1.3213    2.6959    0.8972 C.ar      1 <1>        -0.0652
      8 C8          0.5417    3.6470   -0.3116 C.ar      1 <1>        -0.0390
      9 C9          3.3551    0.3750    0.2877 C.2       1 <1>         0.0235
     10 C10         3.4041    1.3149   -0.7006 C.ar      1 <1>         0.0369
     11 C11         1.1487    2.3920   -0.3633 C.ar      1 <1>        -0.0205
     12 C12         4.6763    1.1717   -1.3644 C.ar      1 <1>         0.0514
     13 C13         4.9577   -1.3325    1.0069 C.ar      1 <1>         0.0188
     14 C14         5.2684   -2.5858    0.4790 C.ar      1 <1>         0.0332
     15 C15        -0.6933    3.7989    0.3188 C.ar      1 <1>        -0.0274
     16 C16         2.4148    2.2361   -1.0095 C.ar      1 <1>         0.0387
     17 C17         5.0095    2.0145   -2.4346 C.ar      1 <1>         0.0284
     18 C18         6.2715    1.9912   -3.2155 C.3       1 <1>         0.0141
     19 N1          5.3635    0.1728   -0.7843 N.2       1 <1>        -0.3153
     20 N2          2.7666    3.0377   -2.0500 N.ar      1 <1>        -0.3031
     21 N3          4.0460    2.9258   -2.7502 N.ar      1 <1>        -0.3045
     22 N4          4.5502   -0.2777    0.1922 N.pl3     1 <1>        -0.2890
     23 Cl1         5.1676   -2.9091   -1.2164 Cl        1 <1>        -0.1380
     24 Br1        -1.5154    5.4994    0.3906 Br        1 <1>        -0.1351
     25 H1          5.5356   -1.9710    4.2966 H         1 <1>         0.1428
     26 H2          6.0877   -4.1994    3.3578 H         1 <1>         0.1399
     27 H3         -1.2036    0.5825    1.2962 H         1 <1>         0.1348
     28 H4          0.9802    0.3043    0.1818 H         1 <1>         0.1424
     29 H5          4.8147   -0.1402    2.8084 H         1 <1>         0.1581
     30 H6          5.9227   -4.5998    0.9310 H         1 <1>         0.1592
     31 H7         -2.2841    2.7971    1.3924 H         1 <1>         0.1443
     32 H8          1.0327    4.5068   -0.7633 H         1 <1>         0.1677
     33 H9          2.6089    0.1143    1.0275 H         1 <1>         0.2528
     34 H10         6.1830    1.3155   -4.0780 H         1 <1>         0.1045
     35 H11         6.5348    2.9916   -3.5904 H         1 <1>         0.1008
     36 H12         7.1213    1.6545   -2.6027 H         1 <1>         0.1048
@<TRIPOS>BOND
     1    1    2 ar
     2    1    5 ar
     3    2    6 ar
     4    3    4 ar
     5    3    7 ar
     6    4   11 ar
     7    5   13 ar
     8    6   14 ar
     9    7   15 ar
    10    8   11 ar
    11    8   15 ar
    12    9   10 2
    13    9   22 1
    14   10   12 ar
    15   10   16 ar
    16   11   16 1
    17   12   17 ar
    18   12   19 2
    19   13   14 ar
    20   13   22 1
    21   14   23 1
    22   15   24 1
    23   16   20 ar
    24   17   18 1
    25   17   21 ar
    26   19   22 1
    27   20   21 ar
    28    1   25 1
    29    2   26 1
    30    3   27 1
    31    4   28 1
    32    5   29 1
    33    6   30 1
    34    7   31 1
    35    8   32 1
    36    9   33 1
    37   18   34 1
    38   18   35 1
    39   18   36 1
@<TRIPOS>Similarity
1.8700
@<TRIPOS>ShapeSim
0.8987
@<TRIPOS>PharmSim
0.9712
# END
# Name:		AO-476/43201369
# Created and modified by SHAFTS on Tue Sep 23 19:00:28 2014

# 

@<TRIPOS>MOLECULE
AO-476/43201369
   43    47     0
SMALL
USER_CHARGE


@<TRIPOS>ATOM
      1 C1         -1.4283    2.5797    0.7354 C.ar      1 <1>        -0.0943
      2 C2          0.3762   -0.7195    3.1016 C.ar      1 <1>        -0.0910
      3 C3          5.9027   -3.4092    2.6292 C.ar      1 <1>        -0.0855
      4 C4         -1.0659    1.3661    0.1511 C.ar      1 <1>        -0.0885
      5 C5         -0.5372    3.6528    0.7244 C.ar      1 <1>        -0.0893
      6 C6          0.8954    0.5749    3.0792 C.ar      1 <1>        -0.0856
      7 C7          0.8314   -1.6694    2.1871 C.ar      1 <1>        -0.0878
      8 C8          5.5519   -2.1820    3.1920 C.ar      1 <1>        -0.0780
      9 C9          5.8032   -3.5985    1.2509 C.ar      1 <1>        -0.0770
     10 C10         0.1877    1.2255   -0.4441 C.ar      1 <1>        -0.0673
     11 C11         0.7163    3.5123    0.1291 C.ar      1 <1>        -0.0690
     12 C12         1.8696    0.9195    2.1424 C.ar      1 <1>        -0.0685
     13 C13         1.8056   -1.3249    1.2503 C.ar      1 <1>        -0.0714
     14 C14         5.1014   -1.1442    2.3762 C.ar      1 <1>        -0.0538
     15 C15         5.3527   -2.5605    0.4351 C.ar      1 <1>        -0.0519
     16 C16         3.3741    1.2621   -0.7373 C.ar      1 <1>         0.0597
     17 C17         1.0789    2.2985   -0.4551 C.ar      1 <1>        -0.0275
     18 C18         2.3248   -0.0304    1.2279 C.ar      1 <1>        -0.0350
     19 C19         4.6591    1.1502   -1.3823 C.ar      1 <1>         0.1010
     20 C20         5.0019   -1.3333    0.9977 C.ar      1 <1>        -0.0113
     21 C21         2.3644    2.1541   -1.0658 C.ar      1 <1>         0.0510
     22 C22         3.3368    0.3271    0.2561 C.2       1 <1>         0.0295
     23 C23         4.9841    1.9955   -2.4530 C.ar      1 <1>         0.1504
     24 N1          5.3651    0.1740   -0.7865 N.2       1 <1>        -0.2984
     25 N2          2.7088    2.9589   -2.1062 N.ar      1 <1>        -0.2800
     26 N3          4.0007    2.8782   -2.7876 N.ar      1 <1>        -0.2459
     27 N4          4.5506   -0.2930    0.1813 N.pl3     1 <1>        -0.2886
     28 Cl1         6.4576    1.9334   -3.2542 Cl        1 <1>        -0.0433
     29 H1         -2.4051    2.6894    1.1973 H         1 <1>         0.1203
     30 H2         -0.3821   -0.9879    3.8316 H         1 <1>         0.1257
     31 H3          6.2552   -4.2169    3.2638 H         1 <1>         0.1292
     32 H4         -1.7602    0.5311    0.1580 H         1 <1>         0.1217
     33 H5         -0.8194    4.5985    1.1778 H         1 <1>         0.1206
     34 H6          0.5407    1.3144    3.7913 H         1 <1>         0.1278
     35 H7          0.4278   -2.6777    2.2053 H         1 <1>         0.1248
     36 H8          5.6305   -2.0340    4.2651 H         1 <1>         0.1346
     37 H9          6.0779   -4.5539    0.8134 H         1 <1>         0.1352
     38 H10         0.4555    0.2730   -0.8956 H         1 <1>         0.1412
     39 H11         1.4003    4.3576    0.1278 H         1 <1>         0.1350
     40 H12         2.2663    1.9319    2.1394 H         1 <1>         0.1401
     41 H13         2.1493   -2.0764    0.5435 H         1 <1>         0.1333
     42 H14         4.8319   -0.1922    2.8275 H         1 <1>         0.1511
     43 H15         5.2807   -2.7214   -0.6378 H         1 <1>         0.1567
@<TRIPOS>BOND
     1    1    4 ar
     2    1    5 ar
     3    2    6 ar
     4    2    7 ar
     5    3    8 ar
     6    3    9 ar
     7    4   10 ar
     8    5   11 ar
     9    6   12 ar
    10    7   13 ar
    11    8   14 ar
    12    9   15 ar
    13   10   17 ar
    14   11   17 ar
    15   12   18 ar
    16   13   18 ar
    17   14   20 ar
    18   15   20 ar
    19   16   19 ar
    20   16   21 ar
    21   16   22 2
    22   17   21 1
    23   18   22 1
    24   19   23 ar
    25   19   24 2
    26   20   27 1
    27   21   25 ar
    28   22   27 1
    29   23   26 ar
    30   23   28 1
    31   24   27 1
    32   25   26 ar
    33    1   29 1
    34    2   30 1
    35    3   31 1
    36    4   32 1
    37    5   33 1
    38    6   34 1
    39    7   35 1
    40    8   36 1
    41    9   37 1
    42   10   38 1
    43   11   39 1
    44   12   40 1
    45   13   41 1
    46   14   42 1
    47   15   43 1
@<TRIPOS>Similarity
1.7890
@<TRIPOS>ShapeSim
0.8311
@<TRIPOS>PharmSim
0.9579
# END
# Name:		AO-476/43250026
# Created and modified by SHAFTS on Tue Sep 23 19:00:28 2014

# 

@<TRIPOS>MOLECULE
AO-476/43250026
   40    43     0
SMALL
USER_CHARGE


@<TRIPOS>ATOM
      1 C1          1.0952    2.8025    0.8937 C.ar      1 <1>        -0.0841
      2 C2          0.1771    1.1918   -0.6554 C.ar      1 <1>        -0.0859
      3 C3          4.3206   -1.5308    2.5483 C.ar      1 <1>        -0.0486
      4 C4          5.6597   -2.3331    0.7043 C.ar      1 <1>        -0.0443
      5 C5         -0.1841    3.3068    1.1276 C.ar      1 <1>        -0.0976
      6 C6         -1.1022    1.6960   -0.4214 C.ar      1 <1>        -0.0987
      7 C7          4.7978   -2.5699    3.3470 C.ar      1 <1>        -0.0270
      8 C8          6.1371   -3.3722    1.5031 C.ar      1 <1>        -0.0247
      9 C9          2.9989    0.1908    0.5972 C.ar      1 <1>        -0.0289
     10 C10         5.1794    2.5201   -3.1154 C.ar      1 <1>         0.0400
     11 C11         3.4878    1.6746   -1.2354 C.ar      1 <1>         0.0211
     12 C12         1.2758    1.7450    0.0022 C.ar      1 <1>        -0.0654
     13 C13         4.7515   -1.4124    1.2269 C.ar      1 <1>        -0.0317
     14 C14         2.6087    1.2199   -0.2416 C.ar      1 <1>        -0.0205
     15 C15        -1.2828    2.7535    0.4701 C.ar      1 <1>        -0.1105
     16 C16         5.7061   -3.4907    2.8245 C.ar      1 <1>         0.0488
     17 C17         4.2574   -0.3367    0.4002 C.ar      1 <1>        -0.0015
     18 C18         4.7504    1.0854   -1.3699 C.ar      1 <1>         0.0472
     19 C19         3.1674    2.7043   -2.1168 C.ar      1 <1>         0.0184
     20 C20        -2.6506    3.2928    0.7199 C.3       1 <1>        -0.0426
     21 N1          5.5935    1.5150   -2.3154 N.ar      1 <1>        -0.3322
     22 N2          3.9979    3.1515   -3.0734 N.ar      1 <1>        -0.3496
     23 N3          5.1204    0.0893   -0.5534 N.ar      1 <1>        -0.3452
     24 N4          1.9210    3.3659   -2.0667 N.pl3     1 <1>        -0.3293
     25 F1          6.1643   -4.4886    3.5916 F         1 <1>        -0.3385
     26 H1          1.9417    3.2450    1.4136 H         1 <1>         0.1335
     27 H2          0.3016    0.3667   -1.3528 H         1 <1>         0.1294
     28 H3          3.6128   -0.8211    2.9702 H         1 <1>         0.1533
     29 H4          6.0052   -2.2542   -0.3237 H         1 <1>         0.1657
     30 H5         -0.3153    4.1315    1.8231 H         1 <1>         0.1195
     31 H6         -1.9527    1.2586   -0.9378 H         1 <1>         0.1193
     32 H7          4.4624   -2.6625    4.3758 H         1 <1>         0.1551
     33 H8          6.8442   -4.0894    1.0970 H         1 <1>         0.1569
     34 H9          2.3477   -0.1896    1.3792 H         1 <1>         0.1662
     35 H10         5.8791    2.8498   -3.8737 H         1 <1>         0.3153
     36 H11        -2.8775    4.1010    0.0139 H         1 <1>         0.0618
     37 H12        -3.4134    2.5110    0.6106 H         1 <1>         0.0590
     38 H13        -2.7434    3.6863    1.7407 H         1 <1>         0.0591
     39 H14         1.2324    3.0571   -1.4119 H         1 <1>         0.2709
     40 H15         1.7152    4.0670   -2.7484 H         1 <1>         0.2664
@<TRIPOS>BOND
     1    1    5 ar
     2    1   12 ar
     3    2    6 ar
     4    2   12 ar
     5    3    7 ar
     6    3   13 ar
     7    4    8 ar
     8    4   13 ar
     9    5   15 ar
    10    6   15 ar
    11    7   16 ar
    12    8   16 ar
    13    9   14 ar
    14    9   17 ar
    15   10   21 ar
    16   10   22 ar
    17   11   14 ar
    18   11   18 ar
    19   11   19 ar
    20   12   14 1
    21   13   17 1
    22   15   20 1
    23   16   25 1
    24   17   23 ar
    25   18   21 ar
    26   18   23 ar
    27   19   22 ar
    28   19   24 1
    29    1   26 1
    30    2   27 1
    31    3   28 1
    32    4   29 1
    33    5   30 1
    34    6   31 1
    35    7   32 1
    36    8   33 1
    37    9   34 1
    38   10   35 1
    39   20   36 1
    40   20   37 1
    41   20   38 1
    42   24   39 1
    43   24   40 1
@<TRIPOS>Similarity
1.6724
@<TRIPOS>ShapeSim
0.9148
@<TRIPOS>PharmSim
0.7576
# END
# Name:		AO-476/43249988
# Created and modified by SHAFTS on Tue Sep 23 19:00:28 2014

# 

@<TRIPOS>MOLECULE
AO-476/43249988
   44    48     0
SMALL
USER_CHARGE


@<TRIPOS>ATOM
      1 C1          0.4270   -0.6291    3.1493 C.ar      1 <1>        -0.0929
      2 C2         -1.3748    2.6886    0.5787 C.ar      1 <1>        -0.0945
      3 C3          0.9657    0.6564    3.0981 C.ar      1 <1>        -0.0875
      4 C4          0.8626   -1.6041    2.2518 C.ar      1 <1>        -0.0899
      5 C5         -1.0179    1.4802   -0.0197 C.ar      1 <1>        -0.0888
      6 C6         -0.4726    3.7523    0.5945 C.ar      1 <1>        -0.0885
      7 C7          1.9399    0.9671    2.1496 C.ar      1 <1>        -0.0714
      8 C8          1.8368   -1.2934    1.3031 C.ar      1 <1>        -0.0746
      9 C9          0.2412    1.3355   -0.6022 C.ar      1 <1>        -0.0673
     10 C10         0.7866    3.6075    0.0120 C.ar      1 <1>        -0.0676
     11 C11         5.1654   -1.1692    2.3776 C.ar      1 <1>        -0.0342
     12 C12         5.3758   -2.5979    0.4407 C.ar      1 <1>        -0.0357
     13 C13         5.6158   -2.2076    3.1926 C.ar      1 <1>        -0.0389
     14 C14         5.8262   -3.6365    1.2557 C.ar      1 <1>        -0.0396
     15 C15         2.3754   -0.0077    1.2520 C.ar      1 <1>        -0.0385
     16 C16         1.1435    2.3992   -0.5862 C.ar      1 <1>        -0.0284
     17 C17         3.3971    1.2446   -0.7384 C.2       1 <1>         0.0679
     18 C18         5.0453   -1.3643    1.0017 C.ar      1 <1>         0.0013
     19 C19         5.9461   -3.4413    2.6316 C.ar      1 <1>        -0.0028
     20 C20         3.3863    0.3144    0.2690 C.2       1 <1>         0.0317
     21 C21         4.6534    1.1037   -1.3431 C.2       1 <1>         0.1219
     22 C22         2.4757    2.2460   -1.2025 C.2       1 <1>         0.0427
     23 C23         5.0480    1.9570   -2.4305 C.2       1 <1>         0.1599
     24 N1          5.3949    0.1407   -0.7941 N.2       1 <1>        -0.2775
     25 N2          2.8362    3.0367   -2.1745 N.2       1 <1>        -0.3061
     26 N3          4.5944   -0.3242    0.1859 N.pl3     1 <1>        -0.2795
     27 N4          4.0742    2.8947   -2.7648 N.am      1 <1>        -0.2271
     28 O1          6.1337    1.8655   -2.9945 O.2       1 <1>        -0.4685
     29 Cl1         6.5042   -4.7217    3.6371 Cl        1 <1>        -0.1737
     30 H1         -0.3311   -0.8713    3.8885 H         1 <1>         0.1231
     31 H2         -2.3552    2.8012    1.0322 H         1 <1>         0.1194
     32 H3          0.6262    1.4155    3.7970 H         1 <1>         0.1259
     33 H4          0.4440   -2.6055    2.2924 H         1 <1>         0.1228
     34 H5         -1.7204    0.6521   -0.0317 H         1 <1>         0.1208
     35 H6         -0.7506    4.6932    1.0602 H         1 <1>         0.1211
     36 H7          2.3519    1.9731    2.1241 H         1 <1>         0.1383
     37 H8          2.1650   -2.0640    0.6099 H         1 <1>         0.1305
     38 H9          0.5091    0.3895   -1.0657 H         1 <1>         0.1400
     39 H10         1.4816    4.4431    0.0305 H         1 <1>         0.1374
     40 H11         4.9115   -0.2128    2.8282 H         1 <1>         0.1712
     41 H12         5.2872   -2.7632   -0.6304 H         1 <1>         0.1669
     42 H13         5.7041   -2.0420    4.2632 H         1 <1>         0.1610
     43 H14         6.0798   -4.5925    0.8048 H         1 <1>         0.1606
     44 H15         4.2981    3.5378   -3.5180 H         1 <1>         0.4086
@<TRIPOS>BOND
     1    1    3 ar
     2    1    4 ar
     3    2    5 ar
     4    2    6 ar
     5    3    7 ar
     6    4    8 ar
     7    5    9 ar
     8    6   10 ar
     9    7   15 ar
    10    8   15 ar
    11    9   16 ar
    12   10   16 ar
    13   11   13 ar
    14   11   18 ar
    15   12   14 ar
    16   12   18 ar
    17   13   19 ar
    18   14   19 ar
    19   15   20 1
    20   16   22 1
    21   17   20 2
    22   17   21 1
    23   17   22 1
    24   18   26 1
    25   19   29 1
    26   20   26 1
    27   21   23 1
    28   21   24 2
    29   22   25 2
    30   23   27 am
    31   23   28 2
    32   24   26 1
    33   25   27 1
    34    1   30 1
    35    2   31 1
    36    3   32 1
    37    4   33 1
    38    5   34 1
    39    6   35 1
    40    7   36 1
    41    8   37 1
    42    9   38 1
    43   10   39 1
    44   11   40 1
    45   12   41 1
    46   13   42 1
    47   14   43 1
    48   27   44 1
@<TRIPOS>Similarity
1.6486
@<TRIPOS>ShapeSim
0.8411
@<TRIPOS>PharmSim
0.8075
# END
# Name:		AO-476/43249984
# Created and modified by SHAFTS on Tue Sep 23 19:00:28 2014

# 

@<TRIPOS>MOLECULE
AO-476/43249984
   47    51     0
SMALL
USER_CHARGE


@<TRIPOS>ATOM
      1 C1          0.4267   -0.6282    3.1499 C.ar      1 <1>        -0.0933
      2 C2         -1.3748    2.6889    0.5785 C.ar      1 <1>        -0.0946
      3 C3          0.9656    0.6574    3.0985 C.ar      1 <1>        -0.0879
      4 C4          0.8623   -1.6034    2.2526 C.ar      1 <1>        -0.0901
      5 C5         -1.0180    1.4804   -0.0196 C.ar      1 <1>        -0.0886
      6 C6         -0.4726    3.7526    0.5941 C.ar      1 <1>        -0.0889
      7 C7          1.9398    0.9678    2.1497 C.ar      1 <1>        -0.0715
      8 C8          1.8366   -1.2928    1.3038 C.ar      1 <1>        -0.0745
      9 C9          0.2411    1.3355   -0.6020 C.ar      1 <1>        -0.0676
     10 C10         0.7865    3.6077    0.0117 C.ar      1 <1>        -0.0674
     11 C11         5.6163   -2.2085    3.1927 C.ar      1 <1>        -0.0805
     12 C12         5.8265   -3.6361    1.2550 C.ar      1 <1>        -0.0811
     13 C13         5.1655   -1.1695    2.3785 C.ar      1 <1>        -0.0511
     14 C14         5.3756   -2.5972    0.4407 C.ar      1 <1>        -0.0523
     15 C15         2.3753   -0.0072    1.2524 C.ar      1 <1>        -0.0385
     16 C16         1.1434    2.3992   -0.5864 C.ar      1 <1>        -0.0286
     17 C17         3.3970    1.2445   -0.7381 C.2       1 <1>         0.0668
     18 C18         5.9468   -3.4418    2.6310 C.ar      1 <1>        -0.0997
     19 C19         5.0451   -1.3640    1.0024 C.ar      1 <1>        -0.0082
     20 C20         3.3862    0.3146    0.2693 C.2       1 <1>         0.0306
     21 C21         4.6532    1.1035   -1.3430 C.2       1 <1>         0.1206
     22 C22         2.4756    2.2459   -1.2025 C.2       1 <1>         0.0419
     23 C23         5.0479    1.9566   -2.4305 C.2       1 <1>         0.1586
     24 C24         6.4288   -4.5525    3.5015 C.3       1 <1>        -0.0392
     25 N1          5.3947    0.1407   -0.7936 N.2       1 <1>        -0.2790
     26 N2          2.8361    3.0364   -2.1748 N.2       1 <1>        -0.3069
     27 N3          4.5942   -0.3241    0.1864 N.pl3     1 <1>        -0.2825
     28 N4          4.0741    2.8942   -2.7650 N.am      1 <1>        -0.2279
     29 O1          6.1335    1.8650   -2.9945 O.2       1 <1>        -0.4696
     30 H1         -0.3313   -0.8701    3.8891 H         1 <1>         0.1222
     31 H2         -2.3553    2.8017    1.0319 H         1 <1>         0.1191
     32 H3          0.6261    1.4166    3.7970 H         1 <1>         0.1252
     33 H4          0.4438   -2.6048    2.2935 H         1 <1>         0.1221
     34 H5         -1.7205    0.6523   -0.0315 H         1 <1>         0.1210
     35 H6         -0.7507    4.6937    1.0595 H         1 <1>         0.1206
     36 H7          2.3518    1.9738    2.1241 H         1 <1>         0.1378
     37 H8          2.1647   -2.0637    0.6108 H         1 <1>         0.1307
     38 H9          0.5089    0.3894   -1.0654 H         1 <1>         0.1374
     39 H10         1.4814    4.4433    0.0299 H         1 <1>         0.1399
     40 H11         5.7073   -2.0488    4.2638 H         1 <1>         0.1345
     41 H12         6.0819   -4.5936    0.8086 H         1 <1>         0.1342
     42 H13         4.9120   -0.2129    2.8288 H         1 <1>         0.1575
     43 H14         5.2870   -2.7629   -0.6303 H         1 <1>         0.1538
     44 H15         5.5833   -5.1558    3.8542 H         1 <1>         0.0642
     45 H16         7.1234   -5.2092    2.9618 H         1 <1>         0.0614
     46 H17         6.9702   -4.1676    4.3757 H         1 <1>         0.0613
     47 H18         4.2980    3.5370   -3.5183 H         1 <1>         0.4078
@<TRIPOS>BOND
     1    1    3 ar
     2    1    4 ar
     3    2    5 ar
     4    2    6 ar
     5    3    7 ar
     6    4    8 ar
     7    5    9 ar
     8    6   10 ar
     9    7   15 ar
    10    8   15 ar
    11    9   16 ar
    12   10   16 ar
    13   11   13 ar
    14   11   18 ar
    15   12   14 ar
    16   12   18 ar
    17   13   19 ar
    18   14   19 ar
    19   15   20 1
    20   16   22 1
    21   17   20 2
    22   17   21 1
    23   17   22 1
    24   18   24 1
    25   19   27 1
    26   20   27 1
    27   21   23 1
    28   21   25 2
    29   22   26 2
    30   23   28 am
    31   23   29 2
    32   25   27 1
    33   26   28 1
    34    1   30 1
    35    2   31 1
    36    3   32 1
    37    4   33 1
    38    5   34 1
    39    6   35 1
    40    7   36 1
    41    8   37 1
    42    9   38 1
    43   10   39 1
    44   11   40 1
    45   12   41 1
    46   13   42 1
    47   14   43 1
    48   24   44 1
    49   24   45 1
    50   24   46 1
    51   28   47 1
@<TRIPOS>Similarity
1.6444
@<TRIPOS>ShapeSim
0.8403
@<TRIPOS>PharmSim
0.8041
# END
# Name:		AO-476/43249991
# Created and modified by SHAFTS on Tue Sep 23 19:00:28 2014

# 

@<TRIPOS>MOLECULE
AO-476/43249991
   44    48     0
SMALL
USER_CHARGE


@<TRIPOS>ATOM
      1 C1          0.4270   -0.6290    3.1495 C.ar      1 <1>        -0.0929
      2 C2         -1.3748    2.6887    0.5787 C.ar      1 <1>        -0.0945
      3 C3          0.9656    0.6566    3.0983 C.ar      1 <1>        -0.0876
      4 C4          0.8626   -1.6040    2.2520 C.ar      1 <1>        -0.0900
      5 C5         -1.0179    1.4802   -0.0196 C.ar      1 <1>        -0.0888
      6 C6         -0.4726    3.7524    0.5944 C.ar      1 <1>        -0.0886
      7 C7          1.9399    0.9672    2.1496 C.ar      1 <1>        -0.0715
      8 C8          1.8368   -1.2932    1.3033 C.ar      1 <1>        -0.0747
      9 C9          0.2412    1.3354   -0.6022 C.ar      1 <1>        -0.0673
     10 C10         0.7866    3.6076    0.0120 C.ar      1 <1>        -0.0676
     11 C11         5.1654   -1.1692    2.3777 C.ar      1 <1>        -0.0257
     12 C12         5.3758   -2.5978    0.4407 C.ar      1 <1>        -0.0271
     13 C13         5.6159   -2.2078    3.1926 C.ar      1 <1>        -0.0122
     14 C14         5.8264   -3.6364    1.2556 C.ar      1 <1>        -0.0129
     15 C15         2.3754   -0.0076    1.2521 C.ar      1 <1>        -0.0387
     16 C16         1.1435    2.3992   -0.5863 C.ar      1 <1>        -0.0284
     17 C17         3.3971    1.2446   -0.7383 C.2       1 <1>         0.0676
     18 C18         5.0453   -1.3643    1.0017 C.ar      1 <1>         0.0041
     19 C19         5.9464   -3.4413    2.6315 C.ar      1 <1>         0.0592
     20 C20         3.3863    0.3144    0.2690 C.2       1 <1>         0.0313
     21 C21         4.6533    1.1036   -1.3431 C.2       1 <1>         0.1216
     22 C22         2.4757    2.2460   -1.2025 C.2       1 <1>         0.0425
     23 C23         5.0479    1.9569   -2.4305 C.2       1 <1>         0.1596
     24 N1          5.3948    0.1407   -0.7940 N.2       1 <1>        -0.2779
     25 N2          2.8361    3.0367   -2.1746 N.2       1 <1>        -0.3063
     26 N3          4.5943   -0.3242    0.1860 N.pl3     1 <1>        -0.2797
     27 N4          4.0742    2.8946   -2.7649 N.am      1 <1>        -0.2273
     28 O1          6.1336    1.8654   -2.9945 O.2       1 <1>        -0.4687
     29 F1          6.3790   -4.4386    3.4140 F         1 <1>        -0.3325
     30 H1         -0.3311   -0.8711    3.8887 H         1 <1>         0.1231
     31 H2         -2.3552    2.8013    1.0322 H         1 <1>         0.1193
     32 H3          0.6263    1.4157    3.7970 H         1 <1>         0.1259
     33 H4          0.4439   -2.6053    2.2927 H         1 <1>         0.1226
     34 H5         -1.7204    0.6521   -0.0317 H         1 <1>         0.1208
     35 H6         -0.7506    4.6933    1.0601 H         1 <1>         0.1211
     36 H7          2.3518    1.9733    2.1241 H         1 <1>         0.1383
     37 H8          2.1649   -2.0640    0.6101 H         1 <1>         0.1306
     38 H9          0.5090    0.3894   -1.0656 H         1 <1>         0.1400
     39 H10         1.4816    4.4431    0.0304 H         1 <1>         0.1374
     40 H11         4.9106   -0.2132    2.8287 H         1 <1>         0.1753
     41 H12         5.2879   -2.7630   -0.6305 H         1 <1>         0.1709
     42 H13         5.7087   -2.0567    4.2639 H         1 <1>         0.1707
     43 H14         6.0846   -4.5968    0.8193 H         1 <1>         0.1703
     44 H15         4.2980    3.5376   -3.5181 H         1 <1>         0.4084
@<TRIPOS>BOND
     1    1    3 ar
     2    1    4 ar
     3    2    5 ar
     4    2    6 ar
     5    3    7 ar
     6    4    8 ar
     7    5    9 ar
     8    6   10 ar
     9    7   15 ar
    10    8   15 ar
    11    9   16 ar
    12   10   16 ar
    13   11   13 ar
    14   11   18 ar
    15   12   14 ar
    16   12   18 ar
    17   13   19 ar
    18   14   19 ar
    19   15   20 1
    20   16   22 1
    21   17   20 2
    22   17   21 1
    23   17   22 1
    24   18   26 1
    25   19   29 1
    26   20   26 1
    27   21   23 1
    28   21   24 2
    29   22   25 2
    30   23   27 am
    31   23   28 2
    32   24   26 1
    33   25   27 1
    34    1   30 1
    35    2   31 1
    36    3   32 1
    37    4   33 1
    38    5   34 1
    39    6   35 1
    40    7   36 1
    41    8   37 1
    42    9   38 1
    43   10   39 1
    44   11   40 1
    45   12   41 1
    46   13   42 1
    47   14   43 1
    48   27   44 1
@<TRIPOS>Similarity
1.6379
@<TRIPOS>ShapeSim
0.8378
@<TRIPOS>PharmSim
0.8001
# END
# Name:		AO-476/43250023
# Created and modified by SHAFTS on Tue Sep 23 19:00:28 2014

# 

@<TRIPOS>MOLECULE
AO-476/43250023
   37    40     0
SMALL
USER_CHARGE


@<TRIPOS>ATOM
      1 C1          5.7060   -3.4904    2.8248 C.ar      1 <1>        -0.0956
      2 C2          4.7977   -2.5697    3.3470 C.ar      1 <1>        -0.0892
      3 C3          6.1371   -3.3722    1.5035 C.ar      1 <1>        -0.0916
      4 C4          4.3204   -1.5308    2.5480 C.ar      1 <1>        -0.0694
      5 C5          5.6598   -2.3333    0.7043 C.ar      1 <1>        -0.0739
      6 C6          1.0954    2.8024    0.8937 C.ar      1 <1>        -0.0592
      7 C7          0.1771    1.1918   -0.6554 C.ar      1 <1>        -0.0609
      8 C8         -0.1840    3.3067    1.1277 C.ar      1 <1>        -0.0301
      9 C9         -1.1022    1.6960   -0.4213 C.ar      1 <1>        -0.0311
     10 C10         2.9990    0.1907    0.5970 C.ar      1 <1>        -0.0283
     11 C11         5.1795    2.5201   -3.1156 C.ar      1 <1>         0.0404
     12 C12         3.4878    1.6746   -1.2356 C.ar      1 <1>         0.0215
     13 C13         1.2758    1.7450    0.0020 C.ar      1 <1>        -0.0534
     14 C14         4.7515   -1.4126    1.2267 C.ar      1 <1>        -0.0441
     15 C15         2.6087    1.2199   -0.2417 C.ar      1 <1>        -0.0179
     16 C16        -1.2827    2.7535    0.4702 C.ar      1 <1>         0.0468
     17 C17         4.2573   -0.3369    0.4000 C.ar      1 <1>        -0.0035
     18 C18         4.7504    1.0854   -1.3701 C.ar      1 <1>         0.0475
     19 C19         3.1674    2.7043   -2.1169 C.ar      1 <1>         0.0182
     20 N1          5.5935    1.5150   -2.3157 N.ar      1 <1>        -0.3318
     21 N2          3.9979    3.1516   -3.0735 N.ar      1 <1>        -0.3494
     22 N3          5.1204    0.0892   -0.5537 N.ar      1 <1>        -0.3450
     23 N4          1.9210    3.3659   -2.0668 N.pl3     1 <1>        -0.3300
     24 F1         -2.5113    3.2377    0.6949 F         1 <1>        -0.3386
     25 H1          6.0788   -4.2982    3.4477 H         1 <1>         0.1200
     26 H2          4.4632   -2.6607    4.3763 H         1 <1>         0.1214
     27 H3          6.8454   -4.0879    1.0966 H         1 <1>         0.1194
     28 H4          3.6128   -0.8208    2.9698 H         1 <1>         0.1474
     29 H5          6.0053   -2.2536   -0.3237 H         1 <1>         0.1346
     30 H6          1.9417    3.2444    1.4139 H         1 <1>         0.1507
     31 H7          0.3014    0.3671   -1.3532 H         1 <1>         0.1467
     32 H8         -0.3248    4.1300    1.8218 H         1 <1>         0.1549
     33 H9         -1.9582    1.2657   -0.9329 H         1 <1>         0.1547
     34 H10         2.3477   -0.1897    1.3790 H         1 <1>         0.1677
     35 H11         5.8790    2.8499   -3.8738 H         1 <1>         0.3157
     36 H12         1.2324    3.0572   -1.4120 H         1 <1>         0.2690
     37 H13         1.7152    4.0670   -2.7484 H         1 <1>         0.2662
@<TRIPOS>BOND
     1    1    2 ar
     2    1    3 ar
     3    2    4 ar
     4    3    5 ar
     5    4   14 ar
     6    5   14 ar
     7    6    8 ar
     8    6   13 ar
     9    7    9 ar
    10    7   13 ar
    11    8   16 ar
    12    9   16 ar
    13   10   15 ar
    14   10   17 ar
    15   11   20 ar
    16   11   21 ar
    17   12   15 ar
    18   12   18 ar
    19   12   19 ar
    20   13   15 1
    21   14   17 1
    22   16   24 1
    23   17   22 ar
    24   18   20 ar
    25   18   22 ar
    26   19   21 ar
    27   19   23 1
    28    1   25 1
    29    2   26 1
    30    3   27 1
    31    4   28 1
    32    5   29 1
    33    6   30 1
    34    7   31 1
    35    8   32 1
    36    9   33 1
    37   10   34 1
    38   11   35 1
    39   23   36 1
    40   23   37 1
@<TRIPOS>Similarity
1.6253
@<TRIPOS>ShapeSim
0.9078
@<TRIPOS>PharmSim
0.7176
# END
# Name:		AO-476/15578130
# Created and modified by SHAFTS on Tue Sep 23 19:00:28 2014

# 

@<TRIPOS>MOLECULE
AO-476/15578130
   37    40     0
SMALL
USER_CHARGE


@<TRIPOS>ATOM
      1 C1          5.7062   -3.4905    2.8247 C.ar      1 <1>        -0.0955
      2 C2          4.7979   -2.5698    3.3470 C.ar      1 <1>        -0.0892
      3 C3          6.1373   -3.3723    1.5034 C.ar      1 <1>        -0.0916
      4 C4          4.3206   -1.5309    2.5481 C.ar      1 <1>        -0.0694
      5 C5          5.6598   -2.3333    0.7043 C.ar      1 <1>        -0.0738
      6 C6          1.0952    2.8023    0.8940 C.ar      1 <1>        -0.0693
      7 C7          0.1772    1.1919   -0.6555 C.ar      1 <1>        -0.0677
      8 C8         -0.1841    3.3068    1.1275 C.ar      1 <1>        -0.0576
      9 C9         -1.1021    1.6964   -0.4220 C.ar      1 <1>        -0.0567
     10 C10         2.9990    0.1906    0.5971 C.ar      1 <1>        -0.0280
     11 C11         5.1793    2.5200   -3.1154 C.ar      1 <1>         0.0405
     12 C12         3.4878    1.6745   -1.2354 C.ar      1 <1>         0.0218
     13 C13         1.2758    1.7449    0.0023 C.ar      1 <1>        -0.0561
     14 C14         4.7515   -1.4126    1.2267 C.ar      1 <1>        -0.0440
     15 C15         2.6087    1.2197   -0.2416 C.ar      1 <1>        -0.0177
     16 C16        -1.2827    2.7539    0.4698 C.ar      1 <1>        -0.0150
     17 C17         4.2574   -0.3370    0.4001 C.ar      1 <1>        -0.0033
     18 C18         4.7503    1.0853   -1.3700 C.ar      1 <1>         0.0478
     19 C19         3.1674    2.7042   -2.1167 C.ar      1 <1>         0.0184
     20 N1          5.5935    1.5150   -2.3156 N.ar      1 <1>        -0.3316
     21 N2          3.9977    3.1515   -3.0733 N.ar      1 <1>        -0.3493
     22 N3          5.1203    0.0891   -0.5537 N.ar      1 <1>        -0.3448
     23 N4          1.9210    3.3659   -2.0666 N.pl3     1 <1>        -0.3298
     24 Cl1        -2.8607    3.3778    0.7574 Cl        1 <1>        -0.1811
     25 H1          6.0790   -4.2983    3.4476 H         1 <1>         0.1201
     26 H2          4.4634   -2.6608    4.3764 H         1 <1>         0.1214
     27 H3          6.8455   -4.0880    1.0965 H         1 <1>         0.1194
     28 H4          3.6129   -0.8209    2.9700 H         1 <1>         0.1474
     29 H5          6.0054   -2.2535   -0.3236 H         1 <1>         0.1346
     30 H6          1.9418    3.2441    1.4141 H         1 <1>         0.1429
     31 H7          0.3018    0.3679   -1.3542 H         1 <1>         0.1467
     32 H8         -0.3103    4.1324    1.8237 H         1 <1>         0.1455
     33 H9         -1.9491    1.2566   -0.9423 H         1 <1>         0.1455
     34 H10         2.3478   -0.1898    1.3791 H         1 <1>         0.1680
     35 H11         5.8789    2.8498   -3.8738 H         1 <1>         0.3159
     36 H12         1.2323    3.0570   -1.4117 H         1 <1>         0.2664
     37 H13         1.7152    4.0669   -2.7482 H         1 <1>         0.2693
@<TRIPOS>BOND
     1    1    2 ar
     2    1    3 ar
     3    2    4 ar
     4    3    5 ar
     5    4   14 ar
     6    5   14 ar
     7    6    8 ar
     8    6   13 ar
     9    7    9 ar
    10    7   13 ar
    11    8   16 ar
    12    9   16 ar
    13   10   15 ar
    14   10   17 ar
    15   11   20 ar
    16   11   21 ar
    17   12   15 ar
    18   12   18 ar
    19   12   19 ar
    20   13   15 1
    21   14   17 1
    22   16   24 1
    23   17   22 ar
    24   18   20 ar
    25   18   22 ar
    26   19   21 ar
    27   19   23 1
    28    1   25 1
    29    2   26 1
    30    3   27 1
    31    4   28 1
    32    5   29 1
    33    6   30 1
    34    7   31 1
    35    8   32 1
    36    9   33 1
    37   10   34 1
    38   11   35 1
    39   23   36 1
    40   23   37 1
@<TRIPOS>Similarity
1.6222
@<TRIPOS>ShapeSim
0.9046
@<TRIPOS>PharmSim
0.7176
# END
# Name:		AO-476/43249983
# Created and modified by SHAFTS on Tue Sep 23 19:00:28 2014

# 

@<TRIPOS>MOLECULE
AO-476/43249983
   44    48     0
SMALL
USER_CHARGE


@<TRIPOS>ATOM
      1 C1          0.4326   -0.6334    3.1501 C.ar      1 <1>        -0.0932
      2 C2         -1.3749    2.6842    0.5833 C.ar      1 <1>        -0.0946
      3 C3          5.9541   -3.4395    2.6258 C.ar      1 <1>        -0.0860
      4 C4          0.9700    0.6527    3.0992 C.ar      1 <1>        -0.0879
      5 C5          0.8682   -1.6074    2.2515 C.ar      1 <1>        -0.0900
      6 C6         -1.0174    1.4765   -0.0162 C.ar      1 <1>        -0.0889
      7 C7         -0.4737    3.7487    0.5989 C.ar      1 <1>        -0.0886
      8 C8          5.6229   -2.2064    3.1874 C.ar      1 <1>        -0.0779
      9 C9          5.8331   -3.6342    1.2500 C.ar      1 <1>        -0.0772
     10 C10         1.9431    0.9649    2.1498 C.ar      1 <1>        -0.0715
     11 C11         1.8411   -1.2951    1.3020 C.ar      1 <1>        -0.0744
     12 C12         0.2413    1.3333   -0.6001 C.ar      1 <1>        -0.0673
     13 C13         0.7851    3.6056    0.0151 C.ar      1 <1>        -0.0676
     14 C14         5.1706   -1.1681    2.3732 C.ar      1 <1>        -0.0525
     15 C15         5.3806   -2.5959    0.4357 C.ar      1 <1>        -0.0512
     16 C16         2.3786   -0.0090    1.2512 C.ar      1 <1>        -0.0385
     17 C17         1.1425    2.3979   -0.5844 C.ar      1 <1>        -0.0286
     18 C18         3.3971    1.2455   -0.7394 C.2       1 <1>         0.0670
     19 C19         5.0494   -1.3629    0.9973 C.ar      1 <1>        -0.0086
     20 C20         3.3881    0.3148    0.2673 C.2       1 <1>         0.0308
     21 C21         4.6528    1.1063   -1.3455 C.2       1 <1>         0.1208
     22 C22         2.4743    2.2464   -1.2020 C.2       1 <1>         0.0420
     23 C23         5.0456    1.9606   -2.4327 C.2       1 <1>         0.1588
     24 N1          5.3959    0.1437   -0.7978 N.2       1 <1>        -0.2787
     25 N2          2.8330    3.0380   -2.1739 N.2       1 <1>        -0.3067
     26 N3          4.5967   -0.3227    0.1827 N.pl3     1 <1>        -0.2825
     27 N4          4.0706    2.8976   -2.7655 N.am      1 <1>        -0.2278
     28 O1          6.1308    1.8705   -2.9979 O.2       1 <1>        -0.4694
     29 H1         -0.3245   -0.8768    3.8899 H         1 <1>         0.1224
     30 H2         -2.3549    2.7956    1.0378 H         1 <1>         0.1191
     31 H3          6.3079   -4.2476    3.2592 H         1 <1>         0.1282
     32 H4          0.6305    1.4110    3.7988 H         1 <1>         0.1253
     33 H5          0.4506   -2.6093    2.2919 H         1 <1>         0.1223
     34 H6         -1.7192    0.6477   -0.0281 H         1 <1>         0.1206
     35 H7         -0.7521    4.6891    1.0654 H         1 <1>         0.1211
     36 H8          5.7183   -2.0540    4.2586 H         1 <1>         0.1342
     37 H9          6.0925   -4.5944    0.8132 H         1 <1>         0.1346
     38 H10         2.3540    1.9713    2.1246 H         1 <1>         0.1379
     39 H11         2.1694   -2.0651    0.6080 H         1 <1>         0.1308
     40 H12         0.5095    0.3879   -1.0644 H         1 <1>         0.1399
     41 H13         1.4793    4.4418    0.0333 H         1 <1>         0.1373
     42 H14         4.9165   -0.2116    2.8237 H         1 <1>         0.1525
     43 H15         5.2918   -2.7611   -0.6354 H         1 <1>         0.1562
     44 H16         4.2931    3.5413   -3.5184 H         1 <1>         0.4079
@<TRIPOS>BOND
     1    1    4 ar
     2    1    5 ar
     3    2    6 ar
     4    2    7 ar
     5    3    8 ar
     6    3    9 ar
     7    4   10 ar
     8    5   11 ar
     9    6   12 ar
    10    7   13 ar
    11    8   14 ar
    12    9   15 ar
    13   10   16 ar
    14   11   16 ar
    15   12   17 ar
    16   13   17 ar
    17   14   19 ar
    18   15   19 ar
    19   16   20 1
    20   17   22 1
    21   18   20 2
    22   18   21 1
    23   18   22 1
    24   19   26 1
    25   20   26 1
    26   21   23 1
    27   21   24 2
    28   22   25 2
    29   23   27 am
    30   23   28 2
    31   24   26 1
    32   25   27 1
    33    1   29 1
    34    2   30 1
    35    3   31 1
    36    4   32 1
    37    5   33 1
    38    6   34 1
    39    7   35 1
    40    8   36 1
    41    9   37 1
    42   10   38 1
    43   11   39 1
    44   12   40 1
    45   13   41 1
    46   14   42 1
    47   15   43 1
    48   27   44 1
@<TRIPOS>Similarity
1.5941
@<TRIPOS>ShapeSim
0.8285
@<TRIPOS>PharmSim
0.7655
# END
# Name:		AO-476/15578132
# Created and modified by SHAFTS on Tue Sep 23 19:00:28 2014

# 

@<TRIPOS>MOLECULE
AO-476/15578132
   41    44     0
SMALL
USER_CHARGE


@<TRIPOS>ATOM
      1 C1         -1.2828    2.7535    0.4705 C.ar      1 <1>        -0.0980
      2 C2         -0.1840    3.3067    1.1278 C.ar      1 <1>        -0.0949
      3 C3         -1.1025    1.6960   -0.4210 C.ar      1 <1>        -0.0959
      4 C4          1.0952    2.8025    0.8935 C.ar      1 <1>        -0.0846
      5 C5          0.1768    1.1918   -0.6554 C.ar      1 <1>        -0.0863
      6 C6          4.8682   -1.2352    2.6056 C.ar      1 <1>        -0.0571
      7 C7          5.1118   -2.6285    0.6470 C.ar      1 <1>        -0.0560
      8 C8          5.3457   -2.2743    3.4042 C.ar      1 <1>        -0.0594
      9 C9          5.5892   -3.6677    1.4457 C.ar      1 <1>        -0.0546
     10 C10         2.9987    0.1909    0.5971 C.ar      1 <1>        -0.0301
     11 C11         5.1796    2.5201   -3.1154 C.ar      1 <1>         0.0390
     12 C12         3.4878    1.6747   -1.2356 C.ar      1 <1>         0.0201
     13 C13         1.2757    1.7450    0.0019 C.ar      1 <1>        -0.0661
     14 C14         4.7513   -1.4123    1.2270 C.ar      1 <1>        -0.0376
     15 C15         2.6086    1.2199   -0.2418 C.ar      1 <1>        -0.0214
     16 C16         5.7063   -3.4906    2.8243 C.ar      1 <1>        -0.0351
     17 C17         4.2572   -0.3367    0.4003 C.ar      1 <1>        -0.0042
     18 C18         4.7504    1.0854   -1.3698 C.ar      1 <1>         0.0458
     19 C19         3.1674    2.7043   -2.1170 C.ar      1 <1>         0.0174
     20 C20         6.5230   -5.7208    2.9458 C.3       1 <1>         0.0114
     21 N1          5.5936    1.5151   -2.3154 N.ar      1 <1>        -0.3332
     22 N2          3.9980    3.1515   -3.0735 N.ar      1 <1>        -0.3505
     23 N3          5.1203    0.0893   -0.5533 N.ar      1 <1>        -0.3471
     24 N4          1.9210    3.3659   -2.0671 N.pl3     1 <1>        -0.3299
     25 O1          6.1727   -4.5041    3.6036 O.3       1 <1>        -0.4625
     26 H1         -2.2791    3.1452    0.6544 H         1 <1>         0.1192
     27 H2         -0.3244    4.1291    1.8232 H         1 <1>         0.1190
     28 H3         -1.9578    1.2640   -0.9322 H         1 <1>         0.1189
     29 H4          1.9418    3.2445    1.4139 H         1 <1>         0.1320
     30 H5          0.3018    0.3668   -1.3527 H         1 <1>         0.1280
     31 H6          4.5914   -0.2929    3.0724 H         1 <1>         0.1570
     32 H7          5.0263   -2.7821   -0.4261 H         1 <1>         0.1515
     33 H8          5.4349   -2.1303    4.4776 H         1 <1>         0.1311
     34 H9          5.8688   -4.6129    0.9883 H         1 <1>         0.1458
     35 H10         2.3475   -0.1895    1.3790 H         1 <1>         0.1655
     36 H11         5.8793    2.8498   -3.8736 H         1 <1>         0.3141
     37 H12         6.8797   -6.4447    3.6826 H         1 <1>         0.1330
     38 H13         7.3024   -5.5244    2.2052 H         1 <1>         0.1099
     39 H14         5.6389   -6.1209    2.4438 H         1 <1>         0.1099
     40 H15         1.2324    3.0570   -1.4122 H         1 <1>         0.2701
     41 H16         1.7153    4.0669   -2.7487 H         1 <1>         0.2658
@<TRIPOS>BOND
     1    1    2 ar
     2    1    3 ar
     3    2    4 ar
     4    3    5 ar
     5    4   13 ar
     6    5   13 ar
     7    6    8 ar
     8    6   14 ar
     9    7    9 ar
    10    7   14 ar
    11    8   16 ar
    12    9   16 ar
    13   10   15 ar
    14   10   17 ar
    15   11   21 ar
    16   11   22 ar
    17   12   15 ar
    18   12   18 ar
    19   12   19 ar
    20   13   15 1
    21   14   17 1
    22   16   25 1
    23   17   23 ar
    24   18   21 ar
    25   18   23 ar
    26   19   22 ar
    27   19   24 1
    28   20   25 1
    29    1   26 1
    30    2   27 1
    31    3   28 1
    32    4   29 1
    33    5   30 1
    34    6   31 1
    35    7   32 1
    36    8   33 1
    37    9   34 1
    38   10   35 1
    39   11   36 1
    40   20   37 1
    41   20   38 1
    42   20   39 1
    43   24   40 1
    44   24   41 1
@<TRIPOS>Similarity
1.5895
@<TRIPOS>ShapeSim
0.8903
@<TRIPOS>PharmSim
0.6992
# END
# Name:		AO-476/43201397
# Created and modified by SHAFTS on Tue Sep 23 19:00:28 2014

# 

@<TRIPOS>MOLECULE
AO-476/43201397
   44    48     0
SMALL
USER_CHARGE


@<TRIPOS>ATOM
      1 C1          0.2985   -0.8000    3.0438 C.ar      1 <1>        -0.0914
      2 C2         -1.4272    2.6418    0.6846 C.ar      1 <1>        -0.0927
      3 C3          5.9106   -3.4400    2.6495 C.ar      1 <1>        -0.0864
      4 C4          0.3556   -1.4185    1.7949 C.ar      1 <1>        -0.0861
      5 C5          1.2360    0.1759    3.3822 C.ar      1 <1>        -0.0880
      6 C6         -0.3435    3.3949    1.1364 C.ar      1 <1>        -0.0872
      7 C7         -1.2633    1.7502   -0.3754 C.ar      1 <1>        -0.0869
      8 C8          5.5344   -2.2241    3.2202 C.ar      1 <1>        -0.0788
      9 C9          5.8309   -3.6165    1.2681 C.ar      1 <1>        -0.0775
     10 C10         1.3501   -1.0611    0.8844 C.ar      1 <1>        -0.0690
     11 C11         2.2304    0.5334    2.4719 C.ar      1 <1>        -0.0715
     12 C12         0.9041    3.2563    0.5281 C.ar      1 <1>        -0.0658
     13 C13        -0.0158    1.6116   -0.9837 C.ar      1 <1>        -0.0659
     14 C14         5.0785   -1.1847    2.4095 C.ar      1 <1>        -0.0544
     15 C15         5.3751   -2.5769    0.4574 C.ar      1 <1>        -0.0522
     16 C16         2.2875   -0.0850    1.2229 C.ar      1 <1>        -0.0349
     17 C17         1.0680    2.3646   -0.5319 C.ar      1 <1>        -0.0271
     18 C18         3.3398    1.2476   -0.6989 C.2       1 <1>         0.0557
     19 C19         4.9989   -1.3611    1.0281 C.ar      1 <1>        -0.0102
     20 C20         3.3181    0.2862    0.2784 C.2       1 <1>         0.0320
     21 C21         4.6025    1.1225   -1.3071 C.2       1 <1>         0.0697
     22 C22         2.3879    2.2180   -1.1757 C.2       1 <1>         0.0399
     23 C23         4.9315    1.9726   -2.4178 C.2       1 <1>         0.0212
     24 N1          5.3497    0.1683   -0.7444 N.2       1 <1>        -0.2931
     25 N2          2.6947    2.9666   -2.1988 N.2       1 <1>        -0.3186
     26 N3          4.5424   -0.3198    0.2169 N.pl3     1 <1>        -0.2837
     27 N4          3.9293    2.8469   -2.7989 N.pl3     1 <1>        -0.2723
     28 S1          6.4133    1.8741   -3.1633 S.2       1 <1>        -0.2291
     29 H1         -0.4763   -1.0779    3.7524 H         1 <1>         0.1252
     30 H2         -2.3984    2.7498    1.1583 H         1 <1>         0.1223
     31 H3          6.2674   -4.2490    3.2802 H         1 <1>         0.1277
     32 H4         -0.3742   -2.1785    1.5316 H         1 <1>         0.1271
     33 H5          1.1907    0.6583    4.3544 H         1 <1>         0.1246
     34 H6         -0.4713    4.0893    1.9617 H         1 <1>         0.1228
     35 H7         -2.1071    1.1636   -0.7270 H         1 <1>         0.1234
     36 H8          5.5977   -2.0860    4.2956 H         1 <1>         0.1335
     37 H9          6.1254   -4.5632    0.8244 H         1 <1>         0.1348
     38 H10         1.3797   -1.5505   -0.0862 H         1 <1>         0.1396
     39 H11         2.9543    1.2952    2.7512 H         1 <1>         0.1337
     40 H12         1.7419    3.8480    0.8882 H         1 <1>         0.1414
     41 H13         0.1002    0.9138   -1.8090 H         1 <1>         0.1394
     42 H14         4.7892   -0.2416    2.8669 H         1 <1>         0.1498
     43 H15         5.3188   -2.7278   -0.6179 H         1 <1>         0.1560
     44 H16         4.0713    3.4801   -3.5796 H         1 <1>         0.4027
@<TRIPOS>BOND
     1    1    4 ar
     2    1    5 ar
     3    2    6 ar
     4    2    7 ar
     5    3    8 ar
     6    3    9 ar
     7    4   10 ar
     8    5   11 ar
     9    6   12 ar
    10    7   13 ar
    11    8   14 ar
    12    9   15 ar
    13   10   16 ar
    14   11   16 ar
    15   12   17 ar
    16   13   17 ar
    17   14   19 ar
    18   15   19 ar
    19   16   20 1
    20   17   22 1
    21   18   20 2
    22   18   21 1
    23   18   22 1
    24   19   26 1
    25   20   26 1
    26   21   23 1
    27   21   24 2
    28   22   25 2
    29   23   27 1
    30   23   28 2
    31   24   26 1
    32   25   27 1
    33    1   29 1
    34    2   30 1
    35    3   31 1
    36    4   32 1
    37    5   33 1
    38    6   34 1
    39    7   35 1
    40    8   36 1
    41    9   37 1
    42   10   38 1
    43   11   39 1
    44   12   40 1
    45   13   41 1
    46   14   42 1
    47   15   43 1
    48   27   44 1
@<TRIPOS>Similarity
1.5834
@<TRIPOS>ShapeSim
0.8170
@<TRIPOS>PharmSim
0.7664
# END
# Name:		AO-081/14337023
# Created and modified by SHAFTS on Tue Sep 23 19:00:28 2014

# 

@<TRIPOS>MOLECULE
AO-081/14337023
   42    45     0
SMALL
USER_CHARGE


@<TRIPOS>ATOM
      1 C1          1.4197    3.0661    0.3933 C.ar      1 <1>        -0.0651
      2 C2          0.5348    1.0044   -0.5032 C.ar      1 <1>        -0.0652
      3 C3          5.8379   -2.4037    0.7819 C.ar      1 <1>        -0.0433
      4 C4          4.3170   -1.8366    2.5713 C.ar      1 <1>        -0.0433
      5 C5          0.1239    3.5657    0.5236 C.ar      1 <1>        -0.0569
      6 C6         -0.7611    1.5040   -0.3729 C.ar      1 <1>        -0.0578
      7 C7          6.4457   -3.3557    1.6001 C.ar      1 <1>        -0.0522
      8 C8          4.9248   -2.7887    3.3897 C.ar      1 <1>        -0.0523
      9 C9          1.6252    1.7855   -0.1202 C.ar      1 <1>        -0.0352
     10 C10         4.7734   -1.6442    1.2674 C.ar      1 <1>         0.0069
     11 C11        -0.9665    2.7846    0.1406 C.ar      1 <1>        -0.0164
     12 C12         5.9893   -3.5482    2.9040 C.ar      1 <1>        -0.0274
     13 C13         4.0665   -0.7687   -0.9620 C.2       1 <1>         0.1361
     14 C14         3.5661    0.5084    0.9007 C.2       1 <1>         0.1409
     15 C15         3.4489    2.8681   -2.2348 C.2       1 <1>         0.1269
     16 C16         3.3486    0.4268   -1.4779 C.3       1 <1>         0.1346
     17 C17         3.9139    1.8093   -1.3208 C.3       1 <1>         0.1342
     18 C18         3.0092    1.2519   -0.2591 C.3       1 <1>         0.1369
     19 C19         3.3566    2.6097   -5.0680 C.3       1 <1>        -0.0290
     20 C20         4.0910    3.7180   -4.3442 C.3       1 <1>         0.0286
     21 N1          4.1482   -0.6658    0.4260 N.am      1 <1>        -0.2365
     22 O1          4.4289   -1.6470   -1.7270 O.2       1 <1>        -0.4663
     23 O2          3.5028    0.9793    2.0242 O.2       1 <1>        -0.4605
     24 O3          2.3099    3.3150   -2.2427 O.2       1 <1>        -0.4723
     25 O4          4.4748    3.2527   -3.0464 O.3       1 <1>        -0.3992
     26 Cl1        -2.5650    3.4012    0.3012 Cl        1 <1>        -0.1852
     27 Br1         6.8130   -4.8381    4.0127 Br        1 <1>        -0.1323
     28 H1          2.2628    3.6828    0.6934 H         1 <1>         0.1416
     29 H2          0.6844    0.0049   -0.9032 H         1 <1>         0.1447
     30 H3          6.2017   -2.2616   -0.2324 H         1 <1>         0.1590
     31 H4          3.4882   -1.2503    2.9598 H         1 <1>         0.1588
     32 H5         -0.0211    4.5658    0.9238 H         1 <1>         0.1446
     33 H6         -1.6013    0.8838   -0.6742 H         1 <1>         0.1434
     34 H7          7.2738   -3.9395    1.2070 H         1 <1>         0.1545
     35 H8          4.5576   -2.9267    4.4033 H         1 <1>         0.1545
     36 H9          2.5820    0.2528   -2.2236 H         1 <1>         0.2064
     37 H10         4.9694    1.8865   -1.0771 H         1 <1>         0.2072
     38 H11         3.9963    1.7308   -5.1876 H         1 <1>         0.0672
     39 H12         2.4561    2.3192   -4.5170 H         1 <1>         0.0592
     40 H13         3.0296    2.9457   -6.0576 H         1 <1>         0.0594
     41 H14         3.4457    4.5938   -4.2280 H         1 <1>         0.1251
     42 H15         4.9909    4.0064   -4.8956 H         1 <1>         0.1251
@<TRIPOS>BOND
     1    1    5 ar
     2    1    9 ar
     3    2    6 ar
     4    2    9 ar
     5    3    7 ar
     6    3   10 ar
     7    4    8 ar
     8    4   10 ar
     9    5   11 ar
    10    6   11 ar
    11    7   12 ar
    12    8   12 ar
    13    9   18 1
    14   10   21 1
    15   11   26 1
    16   12   27 1
    17   13   16 1
    18   13   21 am
    19   13   22 2
    20   14   18 1
    21   14   21 am
    22   14   23 2
    23   15   17 1
    24   15   24 2
    25   15   25 1
    26   16   17 1
    27   16   18 1
    28   17   18 1
    29   19   20 1
    30   20   25 1
    31    1   28 1
    32    2   29 1
    33    3   30 1
    34    4   31 1
    35    5   32 1
    36    6   33 1
    37    7   34 1
    38    8   35 1
    39   16   36 1
    40   17   37 1
    41   19   38 1
    42   19   39 1
    43   19   40 1
    44   20   41 1
    45   20   42 1
@<TRIPOS>Similarity
1.5653
@<TRIPOS>ShapeSim
0.8268
@<TRIPOS>PharmSim
0.7385
# END
# Name:		AG-690/40750128
# Created and modified by SHAFTS on Tue Sep 23 19:00:28 2014

# 

@<TRIPOS>MOLECULE
AG-690/40750128
   39    41     0
SMALL
USER_CHARGE


@<TRIPOS>ATOM
      1 C1          3.1630    2.7419   -2.1470 C.1       1 <1>         0.0362
      2 C2          4.4814   -1.5581    2.4813 C.ar      1 <1>        -0.0724
      3 C3          5.8170   -2.3530    0.6317 C.ar      1 <1>        -0.0751
      4 C4          0.2803    0.9407   -0.2042 C.ar      1 <1>        -0.0653
      5 C5          1.2588    3.1068    0.2293 C.ar      1 <1>        -0.0667
      6 C6          4.9646   -2.5971    3.2768 C.ar      1 <1>        -0.0934
      7 C7          6.3003   -3.3920    1.4271 C.ar      1 <1>        -0.0946
      8 C8         -0.9925    1.4761   -0.0067 C.ar      1 <1>        -0.0556
      9 C9         -0.0140    3.6422    0.4268 C.ar      1 <1>        -0.0561
     10 C10         3.1416    0.1645    0.5386 C.ar      1 <1>        -0.0230
     11 C11         3.5775    1.6727   -1.2834 C.ar      1 <1>         0.0965
     12 C12         1.4060    1.7560   -0.0861 C.ar      1 <1>        -0.0468
     13 C13         4.9076   -1.4362    1.1588 C.ar      1 <1>        -0.0490
     14 C14         2.7263    1.2005   -0.2905 C.ar      1 <1>         0.0092
     15 C15         5.8740   -3.5141    2.7498 C.ar      1 <1>        -0.1086
     16 C16        -1.1396    2.8268    0.3088 C.ar      1 <1>        -0.0143
     17 C17         4.4074   -0.3610    0.3355 C.ar      1 <1>        -0.0130
     18 C18         4.8238    1.0796   -1.4048 C.ar      1 <1>         0.0492
     19 C19         6.3904   -4.6250    3.6001 C.3       1 <1>        -0.0424
     20 C20         5.0362    1.2751   -4.1306 C.3       1 <1>         0.0057
     21 N1          2.8279    3.6064   -2.8450 N.1       1 <1>        -0.3784
     22 N2          5.2623    0.0714   -0.6183 N.ar      1 <1>        -0.3595
     23 S1          6.0064    1.6045   -2.6452 S.3       1 <1>        -0.1538
     24 Cl1        -2.7103    3.4864    0.5539 Cl        1 <1>        -0.1813
     25 H1          3.7725   -0.8517    2.9065 H         1 <1>         0.1438
     26 H2          6.1593   -2.2711   -0.3972 H         1 <1>         0.1361
     27 H3          0.3789   -0.1141   -0.4494 H         1 <1>         0.1460
     28 H4          2.1266    3.7551    0.3258 H         1 <1>         0.1407
     29 H5          4.6263   -2.6850    4.3058 H         1 <1>         0.1204
     30 H6          7.0090   -4.1017    1.0085 H         1 <1>         0.1203
     31 H7         -1.8610    0.8289   -0.1000 H         1 <1>         0.1475
     32 H8         -0.1137    4.6963    0.6734 H         1 <1>         0.1470
     33 H9          2.4959   -0.2223    1.3224 H         1 <1>         0.1729
     34 H10         5.7435   -5.5063    3.5115 H         1 <1>         0.0616
     35 H11         7.4092   -4.9105    3.3074 H         1 <1>         0.0588
     36 H12         6.4346   -4.3304    4.6568 H         1 <1>         0.0587
     37 H13         5.6138    1.5429   -5.0189 H         1 <1>         0.1040
     38 H14         4.1169    1.8657   -4.1119 H         1 <1>         0.0973
     39 H15         4.7787    0.2144   -4.1781 H         1 <1>         0.0974
@<TRIPOS>BOND
     1    1   11 1
     2    1   21 3
     3    2    6 ar
     4    2   13 ar
     5    3    7 ar
     6    3   13 ar
     7    4    8 ar
     8    4   12 ar
     9    5    9 ar
    10    5   12 ar
    11    6   15 ar
    12    7   15 ar
    13    8   16 ar
    14    9   16 ar
    15   10   14 ar
    16   10   17 ar
    17   11   14 ar
    18   11   18 ar
    19   12   14 1
    20   13   17 1
    21   15   19 1
    22   16   24 1
    23   17   22 ar
    24   18   22 ar
    25   18   23 1
    26   20   23 1
    27    2   25 1
    28    3   26 1
    29    4   27 1
    30    5   28 1
    31    6   29 1
    32    7   30 1
    33    8   31 1
    34    9   32 1
    35   10   33 1
    36   19   34 1
    37   19   35 1
    38   19   36 1
    39   20   37 1
    40   20   38 1
    41   20   39 1
@<TRIPOS>Similarity
1.5651
@<TRIPOS>ShapeSim
0.9198
@<TRIPOS>PharmSim
0.6452
# END
# Name:		AE-848/41009149
# Created and modified by SHAFTS on Tue Sep 23 19:00:28 2014

# 

@<TRIPOS>MOLECULE
AE-848/41009149
   40    42     0
SMALL
USER_CHARGE


@<TRIPOS>ATOM
      1 C1          3.0844    2.9117   -2.2813 C.1       1 <1>         0.0459
      2 C2         -1.2008    2.9376    0.2301 C.ar      1 <1>        -0.0972
      3 C3          5.9126   -3.3428    2.5485 C.ar      1 <1>        -0.0967
      4 C4         -0.1040    3.4818    0.8982 C.ar      1 <1>        -0.0945
      5 C5         -1.0217    1.8724   -0.6525 C.ar      1 <1>        -0.0942
      6 C6          4.9985   -2.4403    3.0924 C.ar      1 <1>        -0.0925
      7 C7          6.3222   -3.2064    1.2222 C.ar      1 <1>        -0.0912
      8 C8          1.1721    2.9609    0.6834 C.ar      1 <1>        -0.0835
      9 C9          0.2543    1.3515   -0.8672 C.ar      1 <1>        -0.0824
     10 C10         4.4941   -1.4016    2.3099 C.ar      1 <1>        -0.0762
     11 C11         5.8178   -2.1678    0.4396 C.ar      1 <1>        -0.0734
     12 C12         3.1122    0.3191    0.3957 C.ar      1 <1>        -0.0212
     13 C13         3.5086    1.8444   -1.4212 C.ar      1 <1>         0.1044
     14 C14         1.3513    1.8958   -0.1993 C.ar      1 <1>        -0.0549
     15 C15         4.9037   -1.2653    0.9835 C.ar      1 <1>        -0.0496
     16 C16         2.6749    1.3557   -0.4215 C.ar      1 <1>         0.0126
     17 C17         4.3815   -0.1901    0.1741 C.ar      1 <1>        -0.0099
     18 C18         4.7604    1.2670   -1.5613 C.ar      1 <1>         0.0444
     19 C19         6.5428    2.8319   -2.2922 C.3       1 <1>        -0.0149
     20 C20         5.6046    1.1567   -3.8928 C.3       1 <1>        -0.0149
     21 N1          2.7413    3.7748   -2.9770 N.1       1 <1>        -0.3760
     22 N2          5.2200    0.2588   -0.7869 N.ar      1 <1>        -0.3540
     23 N3          5.6257    1.7512   -2.5753 N.pl3     1 <1>        -0.3817
     24 H1         -2.1945    3.3421    0.3987 H         1 <1>         0.1195
     25 H2          6.3064   -4.1503    3.1585 H         1 <1>         0.1186
     26 H3         -0.2435    4.3101    1.5866 H         1 <1>         0.1203
     27 H4         -1.8756    1.4472   -1.1719 H         1 <1>         0.1205
     28 H5          4.6807   -2.5453    4.1257 H         1 <1>         0.1193
     29 H6          7.0349   -3.9079    0.7984 H         1 <1>         0.1194
     30 H7          2.0171    3.3960    1.2119 H         1 <1>         0.1261
     31 H8          0.3785    0.5206   -1.5576 H         1 <1>         0.1303
     32 H9          3.7823   -0.7061    2.7485 H         1 <1>         0.1336
     33 H10         6.1468   -2.0737   -0.5926 H         1 <1>         0.1418
     34 H11         2.4802   -0.0800    1.1845 H         1 <1>         0.1723
     35 H12         7.1272    3.0721   -3.1843 H         1 <1>         0.0899
     36 H13         7.2278    2.5460   -1.4894 H         1 <1>         0.0962
     37 H14         5.9917    3.7237   -1.9818 H         1 <1>         0.0788
     38 H15         6.3321    1.6527   -4.5405 H         1 <1>         0.0899
     39 H16         4.6107    1.2583   -4.3374 H         1 <1>         0.0790
     40 H17         5.8542    0.0940   -3.8321 H         1 <1>         0.0962
@<TRIPOS>BOND
     1    1   13 1
     2    1   21 3
     3    2    4 ar
     4    2    5 ar
     5    3    6 ar
     6    3    7 ar
     7    4    8 ar
     8    5    9 ar
     9    6   10 ar
    10    7   11 ar
    11    8   14 ar
    12    9   14 ar
    13   10   15 ar
    14   11   15 ar
    15   12   16 ar
    16   12   17 ar
    17   13   16 ar
    18   13   18 ar
    19   14   16 1
    20   15   17 1
    21   17   22 ar
    22   18   22 ar
    23   18   23 1
    24   19   23 1
    25   20   23 1
    26    2   24 1
    27    3   25 1
    28    4   26 1
    29    5   27 1
    30    6   28 1
    31    7   29 1
    32    8   30 1
    33    9   31 1
    34   10   32 1
    35   11   33 1
    36   12   34 1
    37   19   35 1
    38   19   36 1
    39   19   37 1
    40   20   38 1
    41   20   39 1
    42   20   40 1
@<TRIPOS>Similarity
1.5603
@<TRIPOS>ShapeSim
0.9007
@<TRIPOS>PharmSim
0.6596
# END
# Name:		AO-476/43250025
# Created and modified by SHAFTS on Tue Sep 23 19:00:28 2014

# 

@<TRIPOS>MOLECULE
AO-476/43250025
   41    44     0
SMALL
USER_CHARGE


@<TRIPOS>ATOM
      1 C1          5.6826   -3.4713    2.8350 C.ar      1 <1>        -0.0957
      2 C2          5.2771   -2.2678    3.4118 C.ar      1 <1>        -0.0917
      3 C3          5.6064   -3.6429    1.4527 C.ar      1 <1>        -0.0893
      4 C4         -0.3280    3.1890    1.0208 C.ar      1 <1>        -0.0829
      5 C5          4.7954   -1.2358    2.6063 C.ar      1 <1>        -0.0738
      6 C6          5.1246   -2.6110    0.6474 C.ar      1 <1>        -0.0694
      7 C7          0.9694    2.7189    0.8182 C.ar      1 <1>        -0.0787
      8 C8         -1.3946    2.6123    0.3314 C.ar      1 <1>        -0.0686
      9 C9          0.1338    1.0952   -0.7637 C.ar      1 <1>        -0.0503
     10 C10         2.9449    0.1564    0.5574 C.ar      1 <1>        -0.0267
     11 C11         5.1645    2.5620   -3.0826 C.ar      1 <1>         0.0399
     12 C12         3.4452    1.6635   -1.2530 C.ar      1 <1>         0.0231
     13 C13         4.7191   -1.4074    1.2242 C.ar      1 <1>        -0.0439
     14 C14         1.2004    1.6718   -0.0741 C.ar      1 <1>        -0.0502
     15 C15         2.5517    1.1810   -0.2854 C.ar      1 <1>        -0.0148
     16 C16        -1.1638    1.5654   -0.5610 C.ar      1 <1>        -0.0363
     17 C17         4.2206   -0.3389    0.3909 C.ar      1 <1>        -0.0030
     18 C18         4.7251    1.1062   -1.3574 C.ar      1 <1>         0.0480
     19 C19         3.1229    2.6906   -2.1366 C.ar      1 <1>         0.0190
     20 C20        -1.8977   -0.0635   -2.1306 C.3       1 <1>         0.0106
     21 N1          5.5820    1.5624   -2.2778 N.ar      1 <1>        -0.3321
     22 N2          3.9670    3.1642   -3.0683 N.ar      1 <1>        -0.3495
     23 N3          5.0978    0.1142   -0.5372 N.ar      1 <1>        -0.3448
     24 N4          1.8597    3.3213   -2.1159 N.pl3     1 <1>        -0.3293
     25 O1         -2.2046    1.0028   -1.2337 O.3       1 <1>        -0.4634
     26 H1          6.0592   -4.2740    3.4621 H         1 <1>         0.1197
     27 H2          5.3380   -2.1333    4.4878 H         1 <1>         0.1192
     28 H3          5.9233   -4.5793    1.0029 H         1 <1>         0.1212
     29 H4         -0.5077    4.0044    1.7154 H         1 <1>         0.1283
     30 H5          4.4833   -0.3034    3.0710 H         1 <1>         0.1348
     31 H6          5.0716   -2.7590   -0.4285 H         1 <1>         0.1474
     32 H7          1.7904    3.1787    1.3633 H         1 <1>         0.1302
     33 H8         -2.4033    2.9826    0.4933 H         1 <1>         0.1287
     34 H9          0.3044    0.2785   -1.4625 H         1 <1>         0.1535
     35 H10         2.2829   -0.2448    1.3196 H         1 <1>         0.1686
     36 H11         5.8755    2.9136   -3.8202 H         1 <1>         0.3150
     37 H12        -2.8170   -0.4211   -2.6009 H         1 <1>         0.1088
     38 H13        -1.4171   -0.8765   -1.5807 H         1 <1>         0.1090
     39 H14        -1.2164    0.3051   -2.9013 H         1 <1>         0.1329
     40 H15         1.1620    2.9914   -1.4813 H         1 <1>         0.2705
     41 H16         1.6547    4.0213   -2.7987 H         1 <1>         0.2666
@<TRIPOS>BOND
     1    1    2 ar
     2    1    3 ar
     3    2    5 ar
     4    3    6 ar
     5    4    7 ar
     6    4    8 ar
     7    5   13 ar
     8    6   13 ar
     9    7   14 ar
    10    8   16 ar
    11    9   14 ar
    12    9   16 ar
    13   10   15 ar
    14   10   17 ar
    15   11   21 ar
    16   11   22 ar
    17   12   15 ar
    18   12   18 ar
    19   12   19 ar
    20   13   17 1
    21   14   15 1
    22   16   25 1
    23   17   23 ar
    24   18   21 ar
    25   18   23 ar
    26   19   22 ar
    27   19   24 1
    28   20   25 1
    29    1   26 1
    30    2   27 1
    31    3   28 1
    32    4   29 1
    33    5   30 1
    34    6   31 1
    35    7   32 1
    36    8   33 1
    37    9   34 1
    38   10   35 1
    39   11   36 1
    40   20   37 1
    41   20   38 1
    42   20   39 1
    43   24   40 1
    44   24   41 1
@<TRIPOS>Similarity
1.5585
@<TRIPOS>ShapeSim
0.8579
@<TRIPOS>PharmSim
0.7006
# END
# Name:		AO-476/43249986
# Created and modified by SHAFTS on Tue Sep 23 19:00:28 2014

# 

@<TRIPOS>MOLECULE
AO-476/43249986
   44    48     0
SMALL
USER_CHARGE


@<TRIPOS>ATOM
      1 C1          0.4321   -0.6299    3.1524 C.ar      1 <1>        -0.0930
      2 C2         -1.3753    2.6854    0.5826 C.ar      1 <1>        -0.0946
      3 C3          0.9695    0.6561    3.1003 C.ar      1 <1>        -0.0875
      4 C4          0.8676   -1.6047    2.2547 C.ar      1 <1>        -0.0900
      5 C5         -1.0178    1.4772   -0.0157 C.ar      1 <1>        -0.0886
      6 C6         -0.4740    3.7499    0.5973 C.ar      1 <1>        -0.0888
      7 C7          5.8325   -3.6336    1.2467 C.ar      1 <1>        -0.0637
      8 C8          5.9562   -3.4418    2.6227 C.ar      1 <1>        -0.0595
      9 C9          1.9426    0.9675    2.1507 C.ar      1 <1>        -0.0710
     10 C10         1.8407   -1.2933    1.3049 C.ar      1 <1>        -0.0746
     11 C11         0.2409    1.3335   -0.5995 C.ar      1 <1>        -0.0676
     12 C12         0.7847    3.6062    0.0137 C.ar      1 <1>        -0.0672
     13 C13         5.3790   -2.5934    0.4355 C.ar      1 <1>        -0.0271
     14 C14         5.6262   -2.2098    3.1876 C.ar      1 <1>        -0.0113
     15 C15         2.3781   -0.0072    1.2530 C.ar      1 <1>        -0.0377
     16 C16         1.1422    2.3980   -0.5847 C.ar      1 <1>        -0.0284
     17 C17         3.3967    1.2454   -0.7387 C.2       1 <1>         0.0684
     18 C18         5.0489   -1.3615    1.0004 C.ar      1 <1>         0.0551
     19 C19         5.1727   -1.1697    2.3764 C.ar      1 <1>         0.0965
     20 C20         3.3877    0.3156    0.2689 C.2       1 <1>         0.0355
     21 C21         4.6524    1.1055   -1.3446 C.2       1 <1>         0.1227
     22 C22         2.4740    2.2459   -1.2022 C.2       1 <1>         0.0426
     23 C23         5.0452    1.9590   -2.4326 C.2       1 <1>         0.1602
     24 N1          5.3954    0.1435   -0.7961 N.2       1 <1>        -0.2736
     25 N2          2.8327    3.0368   -2.1748 N.2       1 <1>        -0.3063
     26 N3          4.5963   -0.3220    0.1848 N.pl3     1 <1>        -0.2632
     27 N4          4.0703    2.8957   -2.7663 N.am      1 <1>        -0.2272
     28 O1          6.1304    1.8684   -2.9978 O.2       1 <1>        -0.4683
     29 F1          4.8595    0.0096    2.9326 F         1 <1>        -0.3073
     30 H1         -0.3250   -0.8725    3.8923 H         1 <1>         0.1227
     31 H2         -2.3553    2.7973    1.0370 H         1 <1>         0.1193
     32 H3          0.6301    1.4151    3.7994 H         1 <1>         0.1257
     33 H4          0.4500   -2.6065    2.2960 H         1 <1>         0.1223
     34 H5         -1.7196    0.6484   -0.0269 H         1 <1>         0.1210
     35 H6         -0.7524    4.6907    1.0629 H         1 <1>         0.1207
     36 H7          6.0900   -4.5926    0.8070 H         1 <1>         0.1429
     37 H8          6.3096   -4.2520    3.2538 H         1 <1>         0.1480
     38 H9          2.3536    1.9739    2.1246 H         1 <1>         0.1387
     39 H10         2.1688   -2.0639    0.6117 H         1 <1>         0.1296
     40 H11         0.5091    0.3876   -1.0630 H         1 <1>         0.1372
     41 H12         1.4790    4.4425    0.0311 H         1 <1>         0.1401
     42 H13         5.2879   -2.7566   -0.6357 H         1 <1>         0.1695
     43 H14         5.7221   -2.0606    4.2590 H         1 <1>         0.1697
     44 H15         4.2928    3.5387   -3.5198 H         1 <1>         0.4084
@<TRIPOS>BOND
     1    1    3 ar
     2    1    4 ar
     3    2    5 ar
     4    2    6 ar
     5    3    9 ar
     6    4   10 ar
     7    5   11 ar
     8    6   12 ar
     9    7    8 ar
    10    7   13 ar
    11    8   14 ar
    12    9   15 ar
    13   10   15 ar
    14   11   16 ar
    15   12   16 ar
    16   13   18 ar
    17   14   19 ar
    18   15   20 1
    19   16   22 1
    20   17   20 2
    21   17   21 1
    22   17   22 1
    23   18   19 ar
    24   18   26 1
    25   19   29 1
    26   20   26 1
    27   21   23 1
    28   21   24 2
    29   22   25 2
    30   23   27 am
    31   23   28 2
    32   24   26 1
    33   25   27 1
    34    1   30 1
    35    2   31 1
    36    3   32 1
    37    4   33 1
    38    5   34 1
    39    6   35 1
    40    7   36 1
    41    8   37 1
    42    9   38 1
    43   10   39 1
    44   11   40 1
    45   12   41 1
    46   13   42 1
    47   14   43 1
    48   27   44 1
@<TRIPOS>Similarity
1.5583
@<TRIPOS>ShapeSim
0.8202
@<TRIPOS>PharmSim
0.7381
# END
# Name:		AN-329/05740035
# Created and modified by SHAFTS on Tue Sep 23 19:00:28 2014

# 

@<TRIPOS>MOLECULE
AN-329/05740035
   44    47     0
SMALL
USER_CHARGE


@<TRIPOS>ATOM
      1 C1          5.8668   -3.4444    2.6780 C.ar      1 <1>        -0.0960
      2 C2          4.9526   -2.5441    3.2251 C.ar      1 <1>        -0.0918
      3 C3          6.2736   -3.3057    1.3509 C.ar      1 <1>        -0.0900
      4 C4          4.4453   -1.5050    2.4449 C.ar      1 <1>        -0.0748
      5 C5          5.7663   -2.2666    0.5710 C.ar      1 <1>        -0.0713
      6 C6          0.1457    0.9691   -0.1529 C.ar      1 <1>        -0.0685
      7 C7          1.1172    3.1387    0.2789 C.ar      1 <1>        -0.0736
      8 C8         -1.1283    1.4990    0.0510 C.ar      1 <1>        -0.0583
      9 C9         -0.1569    3.6686    0.4828 C.ar      1 <1>        -0.0652
     10 C10         3.0557    0.2035    0.5506 C.ar      1 <1>        -0.0349
     11 C11         3.4238    1.7431   -1.2677 C.ar      1 <1>         0.0029
     12 C12         1.2685    1.7889   -0.0389 C.ar      1 <1>        -0.0626
     13 C13         4.8520   -1.3661    1.1179 C.ar      1 <1>        -0.0475
     14 C14         2.5876    1.2404   -0.2501 C.ar      1 <1>        -0.0318
     15 C15         3.2471    2.7794   -2.2396 C.2       1 <1>         0.0078
     16 C16        -1.2797    2.8488    0.3688 C.ar      1 <1>        -0.0372
     17 C17         4.3262   -0.2890    0.3099 C.ar      1 <1>        -0.0119
     18 C18         4.3478    2.9351   -3.0532 C.2       1 <1>         0.0607
     19 C19         4.6771    1.1536   -1.3972 C.ar      1 <1>         0.0434
     20 C20         4.5597    3.8506   -4.1298 C.2       1 <1>         0.0837
     21 C21        -3.6268    2.4715    0.4344 C.3       1 <1>         0.0115
     22 N1          5.1735    0.1482   -0.6461 N.ar      1 <1>        -0.3559
     23 N2          2.1305    3.5392   -2.3675 N.pl3     1 <1>        -0.3460
     24 N3          5.7844    3.8119   -4.8149 N.am      1 <1>        -0.3073
     25 O1          3.6971    4.6978   -4.4733 O.2       1 <1>        -0.5228
     26 O2         -2.5229    3.3657    0.5671 O.3       1 <1>        -0.4627
     27 S1          5.5995    1.8401   -2.6566 S.3       1 <1>        -0.0709
     28 H1          6.2630   -4.2525    3.2861 H         1 <1>         0.1193
     29 H2          4.6369   -2.6509    4.2586 H         1 <1>         0.1196
     30 H3          6.9865   -4.0057    0.9249 H         1 <1>         0.1208
     31 H4          3.7334   -0.8110    2.8860 H         1 <1>         0.1345
     32 H5          6.0931   -2.1707   -0.4618 H         1 <1>         0.1447
     33 H6          0.2474   -0.0849   -0.4000 H         1 <1>         0.1452
     34 H7          1.9825    3.7906    0.3713 H         1 <1>         0.1384
     35 H8         -1.9992    0.8556   -0.0393 H         1 <1>         0.1464
     36 H9         -0.2687    4.7208    0.7299 H         1 <1>         0.1298
     37 H10         2.4375   -0.2081    1.3444 H         1 <1>         0.1661
     38 H11        -4.5586    3.0121    0.6179 H         1 <1>         0.1098
     39 H12        -3.5213    1.6523    1.1500 H         1 <1>         0.1100
     40 H13        -3.6368    2.0672   -0.5805 H         1 <1>         0.1338
     41 H14         1.2987    3.3818   -1.7857 H         1 <1>         0.2479
     42 H15         2.0348    4.2398   -3.1127 H         1 <1>         0.2557
     43 H16         6.4840    3.1363   -4.5274 H         1 <1>         0.2768
     44 H17         5.9948    4.4355   -5.5874 H         1 <1>         0.2725
@<TRIPOS>BOND
     1    1    2 ar
     2    1    3 ar
     3    2    4 ar
     4    3    5 ar
     5    4   13 ar
     6    5   13 ar
     7    6    8 ar
     8    6   12 ar
     9    7    9 ar
    10    7   12 ar
    11    8   16 ar
    12    9   16 ar
    13   10   14 ar
    14   10   17 ar
    15   11   14 ar
    16   11   15 1
    17   11   19 ar
    18   12   14 1
    19   13   17 1
    20   15   18 2
    21   15   23 1
    22   16   26 1
    23   17   22 ar
    24   18   20 1
    25   18   27 1
    26   19   22 ar
    27   19   27 1
    28   20   24 am
    29   20   25 2
    30   21   26 1
    31    1   28 1
    32    2   29 1
    33    3   30 1
    34    4   31 1
    35    5   32 1
    36    6   33 1
    37    7   34 1
    38    8   35 1
    39    9   36 1
    40   10   37 1
    41   21   38 1
    42   21   39 1
    43   21   40 1
    44   23   41 1
    45   23   42 1
    46   24   43 1
    47   24   44 1
@<TRIPOS>Similarity
1.5561
@<TRIPOS>ShapeSim
0.8736
@<TRIPOS>PharmSim
0.6825
# END
# Name:		AG-205/12125110
# Created and modified by SHAFTS on Tue Sep 23 19:00:28 2014

# 

@<TRIPOS>MOLECULE
AG-205/12125110
   37    39     0
SMALL
USER_CHARGE


@<TRIPOS>ATOM
      1 C1          3.1731    2.7377   -2.1546 C.1       1 <1>         0.0259
      2 C2          4.4826   -1.5594    2.4817 C.ar      1 <1>        -0.0713
      3 C3          5.8181   -2.3528    0.6314 C.ar      1 <1>        -0.0742
      4 C4          1.2277    2.8289    0.7879 C.ar      1 <1>        -0.0654
      5 C5          0.3100    1.2193   -0.7626 C.ar      1 <1>        -0.0671
      6 C6          4.9663   -2.5984    3.2766 C.ar      1 <1>        -0.0934
      7 C7          6.3020   -3.3920    1.4262 C.ar      1 <1>        -0.0948
      8 C8         -0.0447    3.3657    0.9837 C.ar      1 <1>        -0.0561
      9 C9         -0.9624    1.7559   -0.5668 C.ar      1 <1>        -0.0569
     10 C10         3.1415    0.1637    0.5403 C.ar      1 <1>        -0.0269
     11 C11         3.5756    1.6718   -1.2823 C.ar      1 <1>         0.0885
     12 C12         1.4051    1.7557   -0.0853 C.ar      1 <1>        -0.0475
     13 C13         4.9084   -1.4365    1.1591 C.ar      1 <1>        -0.0476
     14 C14         2.7252    1.1993   -0.2889 C.ar      1 <1>         0.0065
     15 C15         5.8760   -3.5147    2.7489 C.ar      1 <1>        -0.1090
     16 C16        -1.1399    2.8292    0.3065 C.ar      1 <1>        -0.0153
     17 C17         4.4075   -0.3612    0.3364 C.ar      1 <1>        -0.0126
     18 C18         4.8222    1.0795   -1.4044 C.ar      1 <1>         0.0403
     19 C19         6.3932   -4.6259    3.5986 C.3       1 <1>        -0.0428
     20 N1          2.8476    3.5999   -2.8599 N.1       1 <1>        -0.3916
     21 N2          5.2616    0.0716   -0.6179 N.ar      1 <1>        -0.3612
     22 N3          5.7042    1.5469   -2.4117 N.pl3     1 <1>        -0.3238
     23 Cl1        -2.7094    3.4930    0.5474 Cl        1 <1>        -0.1828
     24 H1          3.7734   -0.8535    2.9074 H         1 <1>         0.1457
     25 H2          6.1601   -2.2701   -0.3976 H         1 <1>         0.1371
     26 H3          2.0714    3.2582    1.3229 H         1 <1>         0.1463
     27 H4          0.4324    0.3833   -1.4474 H         1 <1>         0.1401
     28 H5          4.6282   -2.6870    4.3055 H         1 <1>         0.1195
     29 H6          7.0110   -4.1011    1.0071 H         1 <1>         0.1193
     30 H7         -0.1687    4.2033    1.6656 H         1 <1>         0.1466
     31 H8         -1.8066    1.3286   -1.1021 H         1 <1>         0.1455
     32 H9          2.4963   -0.2229    1.3245 H         1 <1>         0.1604
     33 H10         5.7466   -5.5074    3.5097 H         1 <1>         0.0611
     34 H11         7.4120   -4.9108    3.3055 H         1 <1>         0.0584
     35 H12         6.4374   -4.3319    4.6554 H         1 <1>         0.0582
     36 H13         5.3879    2.2561   -3.0357 H         1 <1>         0.2696
     37 H14         6.5817    1.0906   -2.5307 H         1 <1>         0.2707
@<TRIPOS>BOND
     1    1   11 1
     2    1   20 3
     3    2    6 ar
     4    2   13 ar
     5    3    7 ar
     6    3   13 ar
     7    4    8 ar
     8    4   12 ar
     9    5    9 ar
    10    5   12 ar
    11    6   15 ar
    12    7   15 ar
    13    8   16 ar
    14    9   16 ar
    15   10   14 ar
    16   10   17 ar
    17   11   14 ar
    18   11   18 ar
    19   12   14 1
    20   13   17 1
    21   15   19 1
    22   16   23 1
    23   17   21 ar
    24   18   21 ar
    25   18   22 1
    26    2   24 1
    27    3   25 1
    28    4   26 1
    29    5   27 1
    30    6   28 1
    31    7   29 1
    32    8   30 1
    33    9   31 1
    34   10   32 1
    35   19   33 1
    36   19   34 1
    37   19   35 1
    38   22   36 1
    39   22   37 1
@<TRIPOS>Similarity
1.5523
@<TRIPOS>ShapeSim
0.9027
@<TRIPOS>PharmSim
0.6496
# END
# Name:		AO-476/42129205
# Created and modified by SHAFTS on Tue Sep 23 19:00:28 2014

# 

@<TRIPOS>MOLECULE
AO-476/42129205
   37    39     0
SMALL
USER_CHARGE


@<TRIPOS>ATOM
      1 C1          3.1732    2.7378   -2.1546 C.1       1 <1>         0.0240
      2 C2          1.2278    2.8289    0.7878 C.ar      1 <1>        -0.0839
      3 C3          0.3102    1.2192   -0.7626 C.ar      1 <1>        -0.0823
      4 C4          4.4824   -1.5593    2.4817 C.ar      1 <1>        -0.0496
      5 C5          5.8180   -2.3528    0.6314 C.ar      1 <1>        -0.0468
      6 C6         -0.0446    3.3655    0.9838 C.ar      1 <1>        -0.0980
      7 C7         -0.9624    1.7557   -0.5665 C.ar      1 <1>        -0.0973
      8 C8          4.9662   -2.5984    3.2766 C.ar      1 <1>        -0.0278
      9 C9          6.3018   -3.3919    1.4264 C.ar      1 <1>        -0.0265
     10 C10         3.1415    0.1638    0.5402 C.ar      1 <1>        -0.0290
     11 C11         3.5756    1.6719   -1.2824 C.ar      1 <1>         0.0864
     12 C12         1.4054    1.7558   -0.0855 C.ar      1 <1>        -0.0573
     13 C13         4.9083   -1.4366    1.1591 C.ar      1 <1>        -0.0364
     14 C14         2.7251    1.1995   -0.2890 C.ar      1 <1>         0.0026
     15 C15        -1.1398    2.8290    0.3067 C.ar      1 <1>        -0.1104
     16 C16         5.8760   -3.5146    2.7489 C.ar      1 <1>         0.0472
     17 C17         4.4075   -0.3612    0.3364 C.ar      1 <1>        -0.0120
     18 C18         4.8223    1.0796   -1.4044 C.ar      1 <1>         0.0390
     19 C19        -2.5003    3.4027    0.5161 C.3       1 <1>        -0.0428
     20 N1          2.8477    3.6000   -2.8598 N.1       1 <1>        -0.3938
     21 N2          5.2616    0.0716   -0.6179 N.ar      1 <1>        -0.3629
     22 N3          5.7044    1.5469   -2.4117 N.pl3     1 <1>        -0.3209
     23 F1          6.3405   -4.5125    3.5123 F         1 <1>        -0.3400
     24 H1          2.0716    3.2587    1.3224 H         1 <1>         0.1266
     25 H2          0.4323    0.3823   -1.4460 H         1 <1>         0.1324
     26 H3          3.7735   -0.8532    2.9075 H         1 <1>         0.1540
     27 H4          6.1597   -2.2705   -0.3976 H         1 <1>         0.1624
     28 H5         -0.1734    4.2024    1.6651 H         1 <1>         0.1190
     29 H6         -1.8101    1.3309   -1.0977 H         1 <1>         0.1200
     30 H7          4.6346   -2.6943    4.3062 H         1 <1>         0.1542
     31 H8          7.0103   -4.1056    1.0163 H         1 <1>         0.1544
     32 H9          2.4962   -0.2228    1.3243 H         1 <1>         0.1569
     33 H10        -2.6911    4.2063   -0.2055 H         1 <1>         0.0572
     34 H11        -3.2782    2.6372    0.3982 H         1 <1>         0.0606
     35 H12        -2.6085    3.8119    1.5292 H         1 <1>         0.0603
     36 H13         5.3880    2.2561   -3.0356 H         1 <1>         0.2795
     37 H14         6.5818    1.0906   -2.5306 H         1 <1>         0.2811
@<TRIPOS>BOND
     1    1   11 1
     2    1   20 3
     3    2    6 ar
     4    2   12 ar
     5    3    7 ar
     6    3   12 ar
     7    4    8 ar
     8    4   13 ar
     9    5    9 ar
    10    5   13 ar
    11    6   15 ar
    12    7   15 ar
    13    8   16 ar
    14    9   16 ar
    15   10   14 ar
    16   10   17 ar
    17   11   14 ar
    18   11   18 ar
    19   12   14 1
    20   13   17 1
    21   15   19 1
    22   16   23 1
    23   17   21 ar
    24   18   21 ar
    25   18   22 1
    26    2   24 1
    27    3   25 1
    28    4   26 1
    29    5   27 1
    30    6   28 1
    31    7   29 1
    32    8   30 1
    33    9   31 1
    34   10   32 1
    35   19   33 1
    36   19   34 1
    37   19   35 1
    38   22   36 1
    39   22   37 1
@<TRIPOS>Similarity
1.5480
@<TRIPOS>ShapeSim
0.9018
@<TRIPOS>PharmSim
0.6462
# END
# Name:		AG-690/40750127
# Created and modified by SHAFTS on Tue Sep 23 19:00:28 2014

# 

@<TRIPOS>MOLECULE
AG-690/40750127
   42    44     0
SMALL
USER_CHARGE


@<TRIPOS>ATOM
      1 C1          3.1630    2.7420   -2.1470 C.1       1 <1>         0.0363
      2 C2          4.4814   -1.5581    2.4813 C.ar      1 <1>        -0.0751
      3 C3          5.8169   -2.3530    0.6317 C.ar      1 <1>        -0.0725
      4 C4          0.2803    0.9407   -0.2041 C.ar      1 <1>        -0.0667
      5 C5          1.2587    3.1067    0.2294 C.ar      1 <1>        -0.0652
      6 C6          4.9646   -2.5971    3.2767 C.ar      1 <1>        -0.0946
      7 C7          6.3003   -3.3920    1.4271 C.ar      1 <1>        -0.0934
      8 C8         -0.9924    1.4761   -0.0067 C.ar      1 <1>        -0.0561
      9 C9         -0.0140    3.6422    0.4268 C.ar      1 <1>        -0.0556
     10 C10         3.1416    0.1646    0.5387 C.ar      1 <1>        -0.0231
     11 C11         3.5775    1.6726   -1.2834 C.ar      1 <1>         0.0967
     12 C12         1.4060    1.7560   -0.0861 C.ar      1 <1>        -0.0468
     13 C13         4.9077   -1.4362    1.1588 C.ar      1 <1>        -0.0490
     14 C14         2.7263    1.2005   -0.2905 C.ar      1 <1>         0.0092
     15 C15         5.8741   -3.5140    2.7498 C.ar      1 <1>        -0.1086
     16 C16        -1.1397    2.8268    0.3088 C.ar      1 <1>        -0.0143
     17 C17         4.4073   -0.3611    0.3355 C.ar      1 <1>        -0.0130
     18 C18         4.8238    1.0796   -1.4048 C.ar      1 <1>         0.0491
     19 C19         6.3904   -4.6250    3.6001 C.3       1 <1>        -0.0424
     20 C20         5.7963    1.1556   -5.3349 C.3       1 <1>        -0.0417
     21 C21         5.5234    0.5049   -3.9921 C.3       1 <1>         0.0003
     22 N1          2.8280    3.6064   -2.8450 N.1       1 <1>        -0.3784
     23 N2          5.2623    0.0714   -0.6183 N.ar      1 <1>        -0.3593
     24 S1          6.0064    1.6045   -2.6452 S.3       1 <1>        -0.1561
     25 Cl1        -2.7104    3.4864    0.5538 Cl        1 <1>        -0.1813
     26 H1          3.7724   -0.8517    2.9065 H         1 <1>         0.1361
     27 H2          6.1593   -2.2710   -0.3972 H         1 <1>         0.1437
     28 H3          0.3789   -0.1141   -0.4495 H         1 <1>         0.1408
     29 H4          2.1266    3.7550    0.3257 H         1 <1>         0.1460
     30 H5          4.6262   -2.6851    4.3058 H         1 <1>         0.1203
     31 H6          7.0090   -4.1017    1.0085 H         1 <1>         0.1204
     32 H7         -1.8611    0.8290   -0.1000 H         1 <1>         0.1470
     33 H8         -0.1138    4.6963    0.6734 H         1 <1>         0.1475
     34 H9          2.4959   -0.2223    1.3224 H         1 <1>         0.1726
     35 H10         5.7435   -5.5063    3.5115 H         1 <1>         0.0616
     36 H11         7.4092   -4.9105    3.3073 H         1 <1>         0.0588
     37 H12         6.4346   -4.3304    4.6569 H         1 <1>         0.0587
     38 H13         5.2435    2.0945   -5.4465 H         1 <1>         0.0485
     39 H14         6.8632    1.3607   -5.4733 H         1 <1>         0.0553
     40 H15         5.4801    0.4880   -6.1434 H         1 <1>         0.0485
     41 H16         6.0849   -0.4299   -3.9025 H         1 <1>         0.0980
     42 H17         4.4588    0.2729   -3.8928 H         1 <1>         0.0980
@<TRIPOS>BOND
     1    1   11 1
     2    1   22 3
     3    2    6 ar
     4    2   13 ar
     5    3    7 ar
     6    3   13 ar
     7    4    8 ar
     8    4   12 ar
     9    5    9 ar
    10    5   12 ar
    11    6   15 ar
    12    7   15 ar
    13    8   16 ar
    14    9   16 ar
    15   10   14 ar
    16   10   17 ar
    17   11   14 ar
    18   11   18 ar
    19   12   14 1
    20   13   17 1
    21   15   19 1
    22   16   25 1
    23   17   23 ar
    24   18   23 ar
    25   18   24 1
    26   20   21 1
    27   21   24 1
    28    2   26 1
    29    3   27 1
    30    4   28 1
    31    5   29 1
    32    6   30 1
    33    7   31 1
    34    8   32 1
    35    9   33 1
    36   10   34 1
    37   19   35 1
    38   19   36 1
    39   19   37 1
    40   20   38 1
    41   20   39 1
    42   20   40 1
    43   21   41 1
    44   21   42 1
@<TRIPOS>Similarity
1.5470
@<TRIPOS>ShapeSim
0.9018
@<TRIPOS>PharmSim
0.6452
# END
# Name:		AN-989/42063253
# Created and modified by SHAFTS on Tue Sep 23 19:00:28 2014

# 

@<TRIPOS>MOLECULE
AN-989/42063253
   36    39     0
SMALL
USER_CHARGE


@<TRIPOS>ATOM
      1 C1          4.4650   -1.4337    2.3624 C.ar      1 <1>        -0.0653
      2 C2          5.8177   -2.2532    0.5360 C.ar      1 <1>        -0.0693
      3 C3          0.1499    1.0299   -0.2240 C.ar      1 <1>        -0.0419
      4 C4          1.1033    3.1989    0.2483 C.ar      1 <1>        -0.0455
      5 C5          4.9214   -2.4765    3.1684 C.ar      1 <1>        -0.0896
      6 C6          6.2740   -3.2961    1.3419 C.ar      1 <1>        -0.0917
      7 C7         -1.1293    1.5487   -0.0239 C.ar      1 <1>        -0.0232
      8 C8         -0.1758    3.7177    0.4484 C.ar      1 <1>        -0.0240
      9 C9          4.3792    2.8144   -2.8868 C.2       1 <1>         0.0662
     10 C10         1.2662    1.8551   -0.0878 C.ar      1 <1>        -0.0228
     11 C11         4.9131   -1.3219    1.0463 C.ar      1 <1>        -0.0340
     12 C12         5.8259   -3.4078    2.6581 C.ar      1 <1>        -0.1060
     13 C13        -1.2922    2.8926    0.3124 C.ar      1 <1>         0.0520
     14 C14         4.7329    1.2598   -1.5217 C.2       1 <1>         0.0944
     15 C15         3.0480    0.2970    0.4763 C.2       1 <1>         0.0052
     16 C16         2.6184    1.3072   -0.2993 C.2       1 <1>         0.0289
     17 C17         4.4277   -0.2102    0.1863 C.2       1 <1>         0.0229
     18 C18         6.3145   -4.5223    3.5208 C.3       1 <1>        -0.0411
     19 N1          5.3096    1.8971   -2.5207 N.2       1 <1>        -0.3036
     20 N2          3.2481    2.8041   -2.1884 N.2       1 <1>        -0.3042
     21 N3          5.2057    0.2367   -0.7572 N.2       1 <1>        -0.3118
     22 N4          3.4619    1.7966   -1.3027 N.pl3     1 <1>        -0.2567
     23 F1         -2.5206    3.3913    0.5029 F         1 <1>        -0.3349
     24 H1          3.7604   -0.7132    2.7697 H         1 <1>         0.1516
     25 H2          6.1734   -2.1761   -0.4881 H         1 <1>         0.1399
     26 H3          0.2609   -0.0197   -0.4858 H         1 <1>         0.1715
     27 H4          1.9637    3.8550    0.3580 H         1 <1>         0.1575
     28 H5          4.5672   -2.5557    4.1927 H         1 <1>         0.1243
     29 H6          6.9791   -4.0170    0.9364 H         1 <1>         0.1230
     30 H7         -1.9987    0.9067   -0.1298 H         1 <1>         0.1591
     31 H8         -0.3029    4.7642    0.7098 H         1 <1>         0.1600
     32 H9          4.5285    3.5185   -3.6917 H         1 <1>         0.3274
     33 H10         2.4646   -0.1445    1.2756 H         1 <1>         0.1986
     34 H11         5.6567   -5.3949    3.4260 H         1 <1>         0.0631
     35 H12         7.3333   -4.8227    3.2443 H         1 <1>         0.0601
     36 H13         6.3468   -4.2237    4.5767 H         1 <1>         0.0602
@<TRIPOS>BOND
     1    1    5 ar
     2    1   11 ar
     3    2    6 ar
     4    2   11 ar
     5    3    7 ar
     6    3   10 ar
     7    4    8 ar
     8    4   10 ar
     9    5   12 ar
    10    6   12 ar
    11    7   13 ar
    12    8   13 ar
    13    9   19 1
    14    9   20 2
    15   10   16 1
    16   11   17 1
    17   12   18 1
    18   13   23 1
    19   14   19 2
    20   14   21 1
    21   14   22 1
    22   15   16 2
    23   15   17 1
    24   16   22 1
    25   17   21 2
    26   20   22 1
    27    1   24 1
    28    2   25 1
    29    3   26 1
    30    4   27 1
    31    5   28 1
    32    6   29 1
    33    7   30 1
    34    8   31 1
    35    9   32 1
    36   15   33 1
    37   18   34 1
    38   18   35 1
    39   18   36 1
@<TRIPOS>Similarity
1.5437
@<TRIPOS>ShapeSim
0.9325
@<TRIPOS>PharmSim
0.6112
# END
# Name:		AI-211/36556006
# Created and modified by SHAFTS on Tue Sep 23 19:00:28 2014

# 

@<TRIPOS>MOLECULE
AI-211/36556006
   39    41     0
SMALL
USER_CHARGE


@<TRIPOS>ATOM
      1 C1          3.1521    2.8475   -2.2557 C.1       1 <1>         0.0466
      2 C2          0.2618    1.0354   -0.2903 C.ar      1 <1>        -0.0823
      3 C3          1.2344    3.2046    0.1409 C.ar      1 <1>        -0.0809
      4 C4          5.0359   -1.1544    2.4226 C.ar      1 <1>        -0.0600
      5 C5          5.2743   -2.5360    0.4549 C.ar      1 <1>        -0.0573
      6 C6         -1.0120    1.5663   -0.0878 C.ar      1 <1>        -0.0968
      7 C7         -0.0395    3.7355    0.3434 C.ar      1 <1>        -0.0963
      8 C8          5.5282   -2.1937    3.2119 C.ar      1 <1>        -0.0618
      9 C9          5.7666   -3.5753    1.2443 C.ar      1 <1>        -0.0606
     10 C10         3.1321    0.2685    0.4388 C.ar      1 <1>        -0.0200
     11 C11         3.5491    1.7824   -1.3829 C.ar      1 <1>         0.1205
     12 C12         1.3851    1.8546   -0.1759 C.ar      1 <1>        -0.0530
     13 C13         4.9088   -1.3257    1.0439 C.ar      1 <1>        -0.0379
     14 C14         2.7063    1.3040   -0.3859 C.ar      1 <1>         0.0169
     15 C15        -1.1628    2.9163    0.2292 C.ar      1 <1>        -0.1093
     16 C16         5.8936   -3.4041    2.6229 C.ar      1 <1>        -0.0349
     17 C17         4.3995   -0.2499    0.2271 C.ar      1 <1>        -0.0020
     18 C18         4.7978    1.1964   -1.5129 C.ar      1 <1>         0.0940
     19 C19        -2.5247    3.4839    0.4459 C.3       1 <1>        -0.0422
     20 C20         6.5537    2.6822   -2.1169 C.3       1 <1>         0.0344
     21 N1          2.8306    3.7101   -2.9623 N.1       1 <1>        -0.3790
     22 N2          5.2463    0.1889   -0.7310 N.ar      1 <1>        -0.3352
     23 O1          5.6665    1.6320   -2.4806 O.3       1 <1>        -0.4083
     24 Br1         6.5617   -4.8123    3.6917 Br        1 <1>        -0.1390
     25 H1          0.3628   -0.0191   -0.5361 H         1 <1>         0.1284
     26 H2          2.1001    3.8561    0.2330 H         1 <1>         0.1334
     27 H3          4.7552   -0.2168    2.8963 H         1 <1>         0.1495
     28 H4          5.1820   -2.6846   -0.6183 H         1 <1>         0.1570
     29 H5         -1.8815    0.9206   -0.1778 H         1 <1>         0.1208
     30 H6         -0.1478    4.7886    0.5895 H         1 <1>         0.1214
     31 H7          5.6216   -2.0438    4.2845 H         1 <1>         0.1443
     32 H8          6.0468   -4.5120    0.7698 H         1 <1>         0.1443
     33 H9          2.4924   -0.1232    1.2252 H         1 <1>         0.1698
     34 H10        -2.8092    3.4016    1.5021 H         1 <1>         0.0617
     35 H11        -2.5664    4.5418    0.1559 H         1 <1>         0.0593
     36 H12        -3.2759    2.9591   -0.1586 H         1 <1>         0.0589
     37 H13         7.1887    2.9355   -2.9693 H         1 <1>         0.1252
     38 H14         7.1697    2.3639   -1.2720 H         1 <1>         0.1446
     39 H15         5.9681    3.5584   -1.8286 H         1 <1>         0.1252
@<TRIPOS>BOND
     1    1   11 1
     2    1   21 3
     3    2    6 ar
     4    2   12 ar
     5    3    7 ar
     6    3   12 ar
     7    4    8 ar
     8    4   13 ar
     9    5    9 ar
    10    5   13 ar
    11    6   15 ar
    12    7   15 ar
    13    8   16 ar
    14    9   16 ar
    15   10   14 ar
    16   10   17 ar
    17   11   14 ar
    18   11   18 ar
    19   12   14 1
    20   13   17 1
    21   15   19 1
    22   16   24 1
    23   17   22 ar
    24   18   22 ar
    25   18   23 1
    26   20   23 1
    27    2   25 1
    28    3   26 1
    29    4   27 1
    30    5   28 1
    31    6   29 1
    32    7   30 1
    33    8   31 1
    34    9   32 1
    35   10   33 1
    36   19   34 1
    37   19   35 1
    38   19   36 1
    39   20   37 1
    40   20   38 1
    41   20   39 1
@<TRIPOS>Similarity
1.5423
@<TRIPOS>ShapeSim
0.8960
@<TRIPOS>PharmSim
0.6462
# END
# Name:		AI-211/36556008
# Created and modified by SHAFTS on Tue Sep 23 19:00:28 2014

# 

@<TRIPOS>MOLECULE
AI-211/36556008
   36    38     0
SMALL
USER_CHARGE


@<TRIPOS>ATOM
      1 C1          3.1523    2.8475   -2.2560 C.1       1 <1>         0.0471
      2 C2          0.2618    1.0354   -0.2905 C.ar      1 <1>        -0.0641
      3 C3          1.2343    3.2045    0.1410 C.ar      1 <1>        -0.0656
      4 C4          5.0362   -1.1542    2.4225 C.ar      1 <1>        -0.0576
      5 C5          5.2741   -2.5360    0.4550 C.ar      1 <1>        -0.0550
      6 C6         -1.0120    1.5661   -0.0875 C.ar      1 <1>        -0.0551
      7 C7         -0.0396    3.7353    0.3439 C.ar      1 <1>        -0.0556
      8 C8          5.5281   -2.1937    3.2120 C.ar      1 <1>        -0.0533
      9 C9          5.7660   -3.5755    1.2444 C.ar      1 <1>        -0.0521
     10 C10         3.1323    0.2687    0.4386 C.ar      1 <1>        -0.0191
     11 C11         3.5492    1.7825   -1.3831 C.ar      1 <1>         0.1215
     12 C12         1.3851    1.8546   -0.1762 C.ar      1 <1>        -0.0435
     13 C13         4.9092   -1.3254    1.0440 C.ar      1 <1>        -0.0375
     14 C14         2.7065    1.3040   -0.3861 C.ar      1 <1>         0.0197
     15 C15        -1.1628    2.9162    0.2295 C.ar      1 <1>        -0.0139
     16 C16         5.8929   -3.4042    2.6229 C.ar      1 <1>        -0.0132
     17 C17         4.3996   -0.2498    0.2270 C.ar      1 <1>        -0.0017
     18 C18         4.7980    1.1965   -1.5132 C.ar      1 <1>         0.0946
     19 C19         6.5539    2.6824   -2.1172 C.3       1 <1>         0.0347
     20 N1          2.8307    3.7100   -2.9627 N.1       1 <1>        -0.3782
     21 N2          5.2465    0.1891   -0.7311 N.ar      1 <1>        -0.3347
     22 O1          5.6667    1.6321   -2.4808 O.3       1 <1>        -0.4079
     23 Cl1        -2.7348    3.5700    0.4813 Cl        1 <1>        -0.1809
     24 Cl2         6.4984   -4.6868    3.5978 Cl        1 <1>        -0.1816
     25 H1          0.3631   -0.0189   -0.5369 H         1 <1>         0.1471
     26 H2          2.1003    3.8558    0.2345 H         1 <1>         0.1418
     27 H3          4.7559   -0.2166    2.8963 H         1 <1>         0.1506
     28 H4          5.1801   -2.6851   -0.6182 H         1 <1>         0.1581
     29 H5         -1.8788    0.9159   -0.1779 H         1 <1>         0.1478
     30 H6         -0.1421    4.7889    0.5915 H         1 <1>         0.1473
     31 H7          5.6202   -2.0474    4.2854 H         1 <1>         0.1467
     32 H8          6.0454   -4.5138    0.7722 H         1 <1>         0.1468
     33 H9          2.4927   -0.1231    1.2250 H         1 <1>         0.1707
     34 H10         7.1887    2.9357   -2.9697 H         1 <1>         0.1256
     35 H11         7.1698    2.3641   -1.2724 H         1 <1>         0.1256
     36 H12         5.9682    3.5586   -1.8290 H         1 <1>         0.1450
@<TRIPOS>BOND
     1    1   11 1
     2    1   20 3
     3    2    6 ar
     4    2   12 ar
     5    3    7 ar
     6    3   12 ar
     7    4    8 ar
     8    4   13 ar
     9    5    9 ar
    10    5   13 ar
    11    6   15 ar
    12    7   15 ar
    13    8   16 ar
    14    9   16 ar
    15   10   14 ar
    16   10   17 ar
    17   11   14 ar
    18   11   18 ar
    19   12   14 1
    20   13   17 1
    21   15   23 1
    22   16   24 1
    23   17   21 ar
    24   18   21 ar
    25   18   22 1
    26   19   22 1
    27    2   25 1
    28    3   26 1
    29    4   27 1
    30    5   28 1
    31    6   29 1
    32    7   30 1
    33    8   31 1
    34    9   32 1
    35   10   33 1
    36   19   34 1
    37   19   35 1
    38   19   36 1
@<TRIPOS>Similarity
1.5399
@<TRIPOS>ShapeSim
0.8945
@<TRIPOS>PharmSim
0.6455
# END
# Name:		AG-690/11481219
# Created and modified by SHAFTS on Tue Sep 23 19:00:28 2014

# 

@<TRIPOS>MOLECULE
AG-690/11481219
   32    34     0
SMALL
USER_CHARGE


@<TRIPOS>ATOM
      1 C1          3.0882    2.9241   -2.2873 C.1       1 <1>         0.0459
      2 C2          6.0656   -3.3438    2.4344 C.ar      1 <1>        -0.0951
      3 C3          5.6888   -2.1491    3.0477 C.ar      1 <1>        -0.0894
      4 C4          5.9157   -3.4980    1.0562 C.ar      1 <1>        -0.0914
      5 C5          5.1622   -1.1084    2.2828 C.ar      1 <1>        -0.0711
      6 C6          5.3891   -2.4572    0.2912 C.ar      1 <1>        -0.0749
      7 C7          1.2254    2.9185    0.6962 C.ar      1 <1>        -0.0669
      8 C8          0.3084    1.3121   -0.8582 C.ar      1 <1>        -0.0684
      9 C9         -0.0544    3.4196    0.9334 C.ar      1 <1>        -0.0631
     10 C10        -0.9715    1.8134   -0.6209 C.ar      1 <1>        -0.0637
     11 C11         3.1949    0.3065    0.3561 C.ar      1 <1>        -0.0162
     12 C12         3.5491    1.8534   -1.4512 C.ar      1 <1>         0.1150
     13 C13         1.4069    1.8647   -0.1996 C.ar      1 <1>        -0.0454
     14 C14         5.0124   -1.2622    0.9046 C.ar      1 <1>        -0.0466
     15 C15         2.7345    1.3451   -0.4455 C.ar      1 <1>         0.0161
     16 C16        -1.1529    2.8670    0.2750 C.ar      1 <1>        -0.0345
     17 C17         4.4675   -0.1850    0.1133 C.ar      1 <1>        -0.0035
     18 C18         4.8059    1.2929   -1.6130 C.ar      1 <1>         0.1024
     19 N1          2.7155    3.7902   -2.9636 N.1       1 <1>        -0.3712
     20 N2          5.2877    0.2832   -0.8541 N.ar      1 <1>        -0.3384
     21 Br1        -2.8875    3.5448    0.5966 Br        1 <1>        -0.1364
     22 Br2         6.0026    1.9193   -2.9656 Br        1 <1>        -0.0078
     23 H1          6.4772   -4.1534    3.0299 H         1 <1>         0.1209
     24 H2          5.8069   -2.0284    4.1205 H         1 <1>         0.1219
     25 H3          6.2102   -4.4273    0.5778 H         1 <1>         0.1206
     26 H4          4.8734   -0.1829    2.7756 H         1 <1>         0.1455
     27 H5          5.2789   -2.5914   -0.7822 H         1 <1>         0.1345
     28 H6          2.0718    3.3597    1.2173 H         1 <1>         0.1458
     29 H7          0.4335    0.4900   -1.5587 H         1 <1>         0.1403
     30 H8         -0.1788    4.2404    1.6350 H         1 <1>         0.1465
     31 H9         -1.8166    1.3717   -1.1422 H         1 <1>         0.1459
     32 H10         2.5777   -0.1081    1.1484 H         1 <1>         0.1828
@<TRIPOS>BOND
     1    1   12 1
     2    1   19 3
     3    2    3 ar
     4    2    4 ar
     5    3    5 ar
     6    4    6 ar
     7    5   14 ar
     8    6   14 ar
     9    7    9 ar
    10    7   13 ar
    11    8   10 ar
    12    8   13 ar
    13    9   16 ar
    14   10   16 ar
    15   11   15 ar
    16   11   17 ar
    17   12   15 ar
    18   12   18 ar
    19   13   15 1
    20   14   17 1
    21   16   21 1
    22   17   20 ar
    23   18   20 ar
    24   18   22 1
    25    2   23 1
    26    3   24 1
    27    4   25 1
    28    5   26 1
    29    6   27 1
    30    7   28 1
    31    8   29 1
    32    9   30 1
    33   10   31 1
    34   11   32 1
@<TRIPOS>Similarity
1.5347
@<TRIPOS>ShapeSim
0.8703
@<TRIPOS>PharmSim
0.6644
# END
# Name:		AE-641/00006013
# Created and modified by SHAFTS on Tue Sep 23 19:00:28 2014

# 

@<TRIPOS>MOLECULE
AE-641/00006013
   37    40     0
SMALL
USER_CHARGE


@<TRIPOS>ATOM
      1 C1         -1.2514    2.8621    0.3387 C.ar      1 <1>        -0.0994
      2 C2          5.8698   -3.3743    2.6065 C.ar      1 <1>        -0.0979
      3 C3          3.9206    3.3299   -3.2124 C.ar      1 <1>        -0.0872
      4 C4         -0.1529    3.4137    0.9979 C.ar      1 <1>        -0.0965
      5 C5         -1.0712    1.8029   -0.5509 C.ar      1 <1>        -0.0968
      6 C6          5.4998   -2.1693    3.2035 C.ar      1 <1>        -0.0939
      7 C7          5.7335   -3.5407    1.2283 C.ar      1 <1>        -0.0920
      8 C8          5.1786    2.7603   -3.3654 C.ar      1 <1>        -0.0804
      9 C9          3.0691    2.8581   -2.2175 C.ar      1 <1>        -0.0756
     10 C10         1.1258    2.9063    0.7675 C.ar      1 <1>        -0.0880
     11 C11         0.2075    1.2953   -0.7812 C.ar      1 <1>        -0.0883
     12 C12         4.9934   -1.1305    2.4224 C.ar      1 <1>        -0.0779
     13 C13         5.2272   -2.5020    0.4471 C.ar      1 <1>        -0.0742
     14 C14         5.5821    1.7208   -2.5236 C.ar      1 <1>        -0.0601
     15 C15         3.0687    0.2851    0.4583 C.ar      1 <1>        -0.0450
     16 C16         3.4752    1.8126   -1.3710 C.ar      1 <1>        -0.0490
     17 C17         1.3060    1.8471   -0.1219 C.ar      1 <1>        -0.0748
     18 C18         4.8571   -1.2968    1.0442 C.ar      1 <1>        -0.0535
     19 C19         2.6383    1.3184   -0.3614 C.ar      1 <1>        -0.0515
     20 C20         4.7511    1.2297   -1.5205 C.ar      1 <1>        -0.0327
     21 C21         4.3332   -0.2214    0.2361 C.ar      1 <1>        -0.0269
     22 N1          5.1715    0.2266   -0.7265 N.ar      1 <1>        -0.3895
     23 H1         -2.2471    3.2564    0.5194 H         1 <1>         0.1164
     24 H2          6.2656   -4.1825    3.2147 H         1 <1>         0.1166
     25 H3          3.6041    4.1379   -3.8649 H         1 <1>         0.1224
     26 H4         -0.2932    4.2374    1.6918 H         1 <1>         0.1184
     27 H5         -1.9262    1.3721   -1.0635 H         1 <1>         0.1180
     28 H6          5.6073   -2.0390    4.2764 H         1 <1>         0.1174
     29 H7          6.0226   -4.4783    0.7626 H         1 <1>         0.1186
     30 H8          5.8490    3.1225   -4.1393 H         1 <1>         0.1312
     31 H9          2.0919    3.3257   -2.1249 H         1 <1>         0.1338
     32 H10         1.9719    3.3469    1.2895 H         1 <1>         0.1264
     33 H11         0.3324    0.4690   -1.4769 H         1 <1>         0.1261
     34 H12         4.7096   -0.1970    2.9027 H         1 <1>         0.1312
     35 H13         5.1272   -2.6459   -0.6261 H         1 <1>         0.1421
     36 H14         6.5724    1.2916   -2.6643 H         1 <1>         0.1540
     37 H15         2.4361   -0.1132    1.2468 H         1 <1>         0.1584
@<TRIPOS>BOND
     1    1    4 ar
     2    1    5 ar
     3    2    6 ar
     4    2    7 ar
     5    3    8 ar
     6    3    9 ar
     7    4   10 ar
     8    5   11 ar
     9    6   12 ar
    10    7   13 ar
    11    8   14 ar
    12    9   16 ar
    13   10   17 ar
    14   11   17 ar
    15   12   18 ar
    16   13   18 ar
    17   14   20 ar
    18   15   19 ar
    19   15   21 ar
    20   16   19 ar
    21   16   20 ar
    22   17   19 1
    23   18   21 1
    24   20   22 ar
    25   21   22 ar
    26    1   23 1
    27    2   24 1
    28    3   25 1
    29    4   26 1
    30    5   27 1
    31    6   28 1
    32    7   29 1
    33    8   30 1
    34    9   31 1
    35   10   32 1
    36   11   33 1
    37   12   34 1
    38   13   35 1
    39   14   36 1
    40   15   37 1
@<TRIPOS>Similarity
1.5285
@<TRIPOS>ShapeSim
0.8831
@<TRIPOS>PharmSim
0.6454
# END
# Name:		AG-690/12404942
# Created and modified by SHAFTS on Tue Sep 23 19:00:28 2014

# 

@<TRIPOS>MOLECULE
AG-690/12404942
   38    41     0
SMALL
USER_CHARGE


@<TRIPOS>ATOM
      1 C1          4.6001   -1.4972    2.4214 C.ar      1 <1>        -0.0674
      2 C2          5.8266   -2.2987    0.5003 C.ar      1 <1>        -0.0715
      3 C3         -0.1713    1.0577   -0.1380 C.ar      1 <1>        -0.0773
      4 C4          1.2177    3.0330   -0.0618 C.ar      1 <1>        -0.0742
      5 C5          5.1234   -2.5374    3.1896 C.ar      1 <1>        -0.0900
      6 C6          6.3500   -3.3388    1.2685 C.ar      1 <1>        -0.0923
      7 C7         -1.2857    1.8286    0.1926 C.ar      1 <1>        -0.0683
      8 C8          0.1032    3.8040    0.2688 C.ar      1 <1>        -0.0666
      9 C9          4.1464    2.7777   -2.8236 C.2       1 <1>         0.0555
     10 C10         4.9517   -1.3779    1.0769 C.ar      1 <1>        -0.0413
     11 C11         1.0804    1.6599   -0.2652 C.ar      1 <1>        -0.0632
     12 C12         5.9983   -3.4581    2.6130 C.ar      1 <1>        -0.1059
     13 C13        -1.1486    3.2016    0.3960 C.ar      1 <1>        -0.0374
     14 C14         4.6020    1.2392   -1.4522 C.2       1 <1>         0.0749
     15 C15         4.3933   -0.2660    0.2550 C.2       1 <1>         0.0005
     16 C16         3.0074    0.2711    0.6135 C.3       1 <1>         0.0394
     17 C17         2.2900    0.8233   -0.6240 C.3       1 <1>         0.0592
     18 C18         6.5585   -4.5695    3.4350 C.3       1 <1>        -0.0407
     19 N1          5.1837    2.0399   -2.3269 N.2       1 <1>        -0.3131
     20 N2          2.9433    2.4936   -2.3243 N.2       1 <1>        -0.3214
     21 N3          5.1213    0.2328   -0.7032 N.2       1 <1>        -0.3242
     22 N4          3.2640    1.5470   -1.4308 N.pl3     1 <1>        -0.2910
     23 Br1        -2.6589    4.2452    0.8445 Br        1 <1>        -0.1384
     24 H1          3.9193   -0.7850    2.8803 H         1 <1>         0.1513
     25 H2          6.1075   -2.2156   -0.5463 H         1 <1>         0.1396
     26 H3         -0.2876   -0.0115   -0.2949 H         1 <1>         0.1308
     27 H4          2.1892    3.5107   -0.1578 H         1 <1>         0.1402
     28 H5          4.8443   -2.6225    4.2362 H         1 <1>         0.1242
     29 H6          7.0314   -4.0514    0.8113 H         1 <1>         0.1226
     30 H7         -2.2538    1.3435    0.2888 H         1 <1>         0.1417
     31 H8          0.2270    4.8725    0.4237 H         1 <1>         0.1437
     32 H9          4.2734    3.5447   -3.5731 H         1 <1>         0.3095
     33 H10         2.4461   -0.5866    0.9937 H         1 <1>         0.1377
     34 H11         3.0767    1.0108    1.4104 H         1 <1>         0.1426
     35 H12         1.9324   -0.0440   -1.2458 H         1 <1>         0.1861
     36 H13         5.9044   -5.4486    3.3848 H         1 <1>         0.0637
     37 H14         7.5579   -4.8589    3.0854 H         1 <1>         0.0606
     38 H15         6.6634   -4.2732    4.4869 H         1 <1>         0.0604
@<TRIPOS>BOND
     1    1    5 ar
     2    1   10 ar
     3    2    6 ar
     4    2   10 ar
     5    3    7 ar
     6    3   11 ar
     7    4    8 ar
     8    4   11 ar
     9    5   12 ar
    10    6   12 ar
    11    7   13 ar
    12    8   13 ar
    13    9   19 1
    14    9   20 2
    15   10   15 1
    16   11   17 1
    17   12   18 1
    18   13   23 1
    19   14   19 2
    20   14   21 1
    21   14   22 1
    22   15   16 1
    23   15   21 2
    24   16   17 1
    25   17   22 1
    26   20   22 1
    27    1   24 1
    28    2   25 1
    29    3   26 1
    30    4   27 1
    31    5   28 1
    32    6   29 1
    33    7   30 1
    34    8   31 1
    35    9   32 1
    36   16   33 1
    37   16   34 1
    38   17   35 1
    39   18   36 1
    40   18   37 1
    41   18   38 1
@<TRIPOS>Similarity
1.5174
@<TRIPOS>ShapeSim
0.9239
@<TRIPOS>PharmSim
0.5935
# END
# Name:		AE-842/32998057
# Created and modified by SHAFTS on Tue Sep 23 19:00:28 2014

# 

@<TRIPOS>MOLECULE
AE-842/32998057
   41    44     0
SMALL
USER_CHARGE


@<TRIPOS>ATOM
      1 C1         -1.2876    3.0073    0.2627 C.ar      1 <1>        -0.0967
      2 C2         -0.0995    3.7146    0.4459 C.ar      1 <1>        -0.0919
      3 C3         -1.2501    1.6408   -0.0153 C.ar      1 <1>        -0.0913
      4 C4          1.1263    3.0556    0.3510 C.ar      1 <1>        -0.0751
      5 C5         -0.0243    0.9819   -0.1102 C.ar      1 <1>        -0.0743
      6 C6          5.6435   -2.2125    0.5559 C.ar      1 <1>        -0.0545
      7 C7          4.3118   -1.5565    2.4620 C.ar      1 <1>        -0.0550
      8 C8          6.2643   -3.1947    1.3276 C.ar      1 <1>        -0.0512
      9 C9          4.9327   -2.5387    3.2337 C.ar      1 <1>        -0.0515
     10 C10         1.1639    1.6892    0.0729 C.ar      1 <1>        -0.0503
     11 C11         4.6673   -1.3934    1.1231 C.ar      1 <1>        -0.0388
     12 C12         5.9089   -3.3578    2.6665 C.ar      1 <1>        -0.0166
     13 C13         2.4568    0.9942   -0.0273 C.2       1 <1>        -0.0257
     14 C14         5.0862    2.7059   -2.3853 C.3       1 <1>        -0.0549
     15 C15         6.2343    1.7830   -1.9349 C.3       1 <1>        -0.0543
     16 C16         3.9129    2.7771   -1.3905 C.3       1 <1>        -0.0382
     17 C17         5.7640    0.4283   -1.3706 C.3       1 <1>        -0.0378
     18 C18         3.5185    1.3608   -1.0302 C.3       1 <1>         0.0044
     19 C19         4.7067    0.7030   -0.3146 C.3       1 <1>         0.0041
     20 N1          2.7576   -0.0527    0.6866 N.2       1 <1>        -0.3692
     21 N2          4.0488   -0.4109    0.3519 N.pl3     1 <1>        -0.3558
     22 Cl1         6.6751   -4.5696    3.6183 Cl        1 <1>        -0.1916
     23 H1         -2.2419    3.5203    0.3365 H         1 <1>         0.1178
     24 H2         -0.1289    4.7785    0.6621 H         1 <1>         0.1198
     25 H3         -2.1752    1.0900   -0.1577 H         1 <1>         0.1199
     26 H4          2.0460    3.6165    0.4955 H         1 <1>         0.1357
     27 H5         -0.0071   -0.0831   -0.3274 H         1 <1>         0.1378
     28 H6          5.9285   -2.0930   -0.4862 H         1 <1>         0.1493
     29 H7          3.5534   -0.9226    2.9144 H         1 <1>         0.1480
     30 H8          7.0246   -3.8244    0.8725 H         1 <1>         0.1487
     31 H9          4.6466   -2.6528    4.2763 H         1 <1>         0.1489
     32 H10         5.4746    3.7139   -2.5698 H         1 <1>         0.0454
     33 H11         4.7055    2.3363   -3.3462 H         1 <1>         0.0419
     34 H12         6.9207    1.6143   -2.7724 H         1 <1>         0.0478
     35 H13         6.8105    2.3028   -1.1584 H         1 <1>         0.0440
     36 H14         4.2020    3.3461   -0.4990 H         1 <1>         0.0575
     37 H15         3.0703    3.3092   -1.8454 H         1 <1>         0.0613
     38 H16         5.3693   -0.2033   -2.1756 H         1 <1>         0.0622
     39 H17         6.6158   -0.1064   -0.9359 H         1 <1>         0.0631
     40 H18         3.2507    0.8105   -1.9453 H         1 <1>         0.1055
     41 H19         5.1163    1.3735    0.4568 H         1 <1>         0.1119
@<TRIPOS>BOND
     1    1    2 ar
     2    1    3 ar
     3    2    4 ar
     4    3    5 ar
     5    4   10 ar
     6    5   10 ar
     7    6    8 ar
     8    6   11 ar
     9    7    9 ar
    10    7   11 ar
    11    8   12 ar
    12    9   12 ar
    13   10   13 1
    14   11   21 1
    15   12   22 1
    16   13   18 1
    17   13   20 2
    18   14   15 1
    19   14   16 1
    20   15   17 1
    21   16   18 1
    22   17   19 1
    23   18   19 1
    24   19   21 1
    25   20   21 1
    26    1   23 1
    27    2   24 1
    28    3   25 1
    29    4   26 1
    30    5   27 1
    31    6   28 1
    32    7   29 1
    33    8   30 1
    34    9   31 1
    35   14   32 1
    36   14   33 1
    37   15   34 1
    38   15   35 1
    39   16   36 1
    40   16   37 1
    41   17   38 1
    42   17   39 1
    43   18   40 1
    44   19   41 1
@<TRIPOS>Similarity
1.5162
@<TRIPOS>ShapeSim
0.8928
@<TRIPOS>PharmSim
0.6234
# END
# Name:		AS-980/15246972
# Created and modified by SHAFTS on Tue Sep 23 19:00:28 2014

# 

@<TRIPOS>MOLECULE
AS-980/15246972
   40    43     0
SMALL
USER_CHARGE


@<TRIPOS>ATOM
      1 C1         -1.7631    2.9313    0.5706 C.ar      1 <1>        -0.0954
      2 C2          5.9439   -3.0832    2.2605 C.ar      1 <1>        -0.0915
      3 C3         -1.5899    1.8446   -0.2866 C.ar      1 <1>        -0.0902
      4 C4         -0.6710    3.4549    1.2627 C.ar      1 <1>        -0.0898
      5 C5          6.1326   -2.7964    0.9086 C.ar      1 <1>        -0.0826
      6 C6          5.0103   -2.3604    3.0032 C.ar      1 <1>        -0.0818
      7 C7         -0.3244    1.2813   -0.4514 C.ar      1 <1>        -0.0709
      8 C8          0.5943    2.8914    1.0979 C.ar      1 <1>        -0.0705
      9 C9          5.3877   -1.7868    0.2993 C.ar      1 <1>        -0.0566
     10 C10         4.2653   -1.3507    2.3938 C.ar      1 <1>        -0.0556
     11 C11         4.4071    2.4842   -2.6233 C.ar      1 <1>        -0.0643
     12 C12         3.0524    1.5795   -0.8794 C.ar      1 <1>         0.0074
     13 C13         0.7676    1.8046    0.2407 C.ar      1 <1>        -0.0350
     14 C14         3.1999    2.4999   -1.9245 C.ar      1 <1>        -0.0580
     15 C15         4.4540   -1.0639    1.0419 C.ar      1 <1>        -0.0121
     16 C16         2.0750    1.2227    0.0708 C.2       1 <1>         0.0256
     17 C17         5.3874    1.5699   -2.2524 C.ar      1 <1>        -0.0483
     18 C18         4.1096    0.7230   -0.6143 C.ar      1 <1>         0.0349
     19 C19         2.1452    3.4802   -2.3192 C.3       1 <1>        -0.0241
     20 C20         6.6761    1.5647   -3.0113 C.3       1 <1>        -0.0103
     21 N1          2.4701    0.2279    0.8721 N.2       1 <1>        -0.3177
     22 N2          5.2921    0.6619   -1.2511 N.ar      1 <1>        -0.3742
     23 N3          3.7096   -0.0548    0.4320 N.pl3     1 <1>        -0.2876
     24 H1         -2.7481    3.3707    0.6982 H         1 <1>         0.1194
     25 H2          6.5224   -3.8703    2.7351 H         1 <1>         0.1191
     26 H3         -2.4397    1.4377   -0.8265 H         1 <1>         0.1214
     27 H4         -0.8061    4.3017    1.9290 H         1 <1>         0.1216
     28 H5          6.8586   -3.3599    0.3299 H         1 <1>         0.1277
     29 H6          4.8629   -2.5852    4.0556 H         1 <1>         0.1290
     30 H7         -0.2056    0.4344   -1.1232 H         1 <1>         0.1376
     31 H8          1.4355    3.3112    1.6446 H         1 <1>         0.1376
     32 H9          5.5439   -1.5739   -0.7554 H         1 <1>         0.1474
     33 H10         3.5403   -0.7955    2.9842 H         1 <1>         0.1498
     34 H11         4.5784    3.1764   -3.4430 H         1 <1>         0.1395
     35 H12         1.4860    3.0441   -3.0791 H         1 <1>         0.0762
     36 H13         1.5357    3.7761   -1.4564 H         1 <1>         0.0719
     37 H14         2.5885    4.3977   -2.7262 H         1 <1>         0.0743
     38 H15         7.3922    2.2494   -2.5444 H         1 <1>         0.0932
     39 H16         7.1150    0.5606   -3.0363 H         1 <1>         0.0917
     40 H17         6.5219    1.8736   -4.0520 H         1 <1>         0.0911
@<TRIPOS>BOND
     1    1    3 ar
     2    1    4 ar
     3    2    5 ar
     4    2    6 ar
     5    3    7 ar
     6    4    8 ar
     7    5    9 ar
     8    6   10 ar
     9    7   13 ar
    10    8   13 ar
    11    9   15 ar
    12   10   15 ar
    13   11   14 ar
    14   11   17 ar
    15   12   14 ar
    16   12   16 1
    17   12   18 ar
    18   13   16 1
    19   14   19 1
    20   15   23 1
    21   16   21 2
    22   17   20 1
    23   17   22 ar
    24   18   22 ar
    25   18   23 1
    26   21   23 1
    27    1   24 1
    28    2   25 1
    29    3   26 1
    30    4   27 1
    31    5   28 1
    32    6   29 1
    33    7   30 1
    34    8   31 1
    35    9   32 1
    36   10   33 1
    37   11   34 1
    38   19   35 1
    39   19   36 1
    40   19   37 1
    41   20   38 1
    42   20   39 1
    43   20   40 1
@<TRIPOS>Similarity
1.5131
@<TRIPOS>ShapeSim
0.8877
@<TRIPOS>PharmSim
0.6254
# END
# Name:		AG-205/32388062
# Created and modified by SHAFTS on Tue Sep 23 19:00:28 2014

# 

@<TRIPOS>MOLECULE
AG-205/32388062
   41    44     0
SMALL
USER_CHARGE


@<TRIPOS>ATOM
      1 C1          7.3970    2.6206   -4.5518 C.ar      1 <1>        -0.0981
      2 C2          5.9471   -3.3493    2.5361 C.ar      1 <1>        -0.0981
      3 C3          6.1501    2.1056   -4.9060 C.ar      1 <1>        -0.0923
      4 C4          7.7673    2.6893   -3.2086 C.ar      1 <1>        -0.0942
      5 C5          5.0329   -2.4533    3.0900 C.ar      1 <1>        -0.0942
      6 C6          6.3446   -3.2077    1.2066 C.ar      1 <1>        -0.0923
      7 C7          5.2733    1.6593   -3.9172 C.ar      1 <1>        -0.0754
      8 C8          6.8906    2.2429   -2.2198 C.ar      1 <1>        -0.0792
      9 C9          4.5163   -1.4152    2.3144 C.ar      1 <1>        -0.0792
     10 C10         5.8280   -2.1696    0.4310 C.ar      1 <1>        -0.0754
     11 C11         1.0952    3.2372   -0.4996 C.ar      1 <1>        -0.0751
     12 C12         0.3128    1.0978    0.3055 C.ar      1 <1>        -0.0751
     13 C13        -0.1772    3.7751   -0.3071 C.ar      1 <1>        -0.0685
     14 C14        -0.9598    1.6359    0.4981 C.ar      1 <1>        -0.0685
     15 C15         3.4823    1.8359   -1.3985 C.ar      1 <1>        -0.0488
     16 C16         3.1087    0.3028    0.4165 C.ar      1 <1>        -0.0488
     17 C17         1.3402    1.8986   -0.1934 C.ar      1 <1>        -0.0682
     18 C18         5.6435    1.7279   -2.5741 C.ar      1 <1>        -0.0555
     19 C19         4.9138   -1.2735    0.9849 C.ar      1 <1>        -0.0555
     20 C20         2.6593    1.3396   -0.3936 C.ar      1 <1>        -0.0530
     21 C21        -1.2047    2.9744    0.1919 C.ar      1 <1>        -0.0411
     22 C22         4.7358    1.2657   -1.5510 C.ar      1 <1>        -0.0289
     23 C23         4.3790   -0.1990    0.1827 C.ar      1 <1>        -0.0289
     24 N1          5.2070    0.2574   -0.7835 N.ar      1 <1>        -0.3878
     25 I1         -3.0996    3.7763    0.4796 I         1 <1>        -0.1315
     26 H1          8.0802    2.9666   -5.3219 H         1 <1>         0.1165
     27 H2          6.3505   -4.1564    3.1406 H         1 <1>         0.1165
     28 H3          5.8623    2.0507   -5.9519 H         1 <1>         0.1187
     29 H4          8.7386    3.0888   -2.9321 H         1 <1>         0.1176
     30 H5          4.7246   -2.5624    4.1256 H         1 <1>         0.1176
     31 H6          7.0575   -3.9041    0.7750 H         1 <1>         0.1187
     32 H7          4.3049    1.2602   -4.2096 H         1 <1>         0.1408
     33 H8          7.1931    2.3021   -1.1770 H         1 <1>         0.1296
     34 H9          3.8047   -0.7247    2.7610 H         1 <1>         0.1296
     35 H10         6.1476   -2.0713   -0.6037 H         1 <1>         0.1408
     36 H11         1.8861    3.8735   -0.8899 H         1 <1>         0.1387
     37 H12         0.4881    0.0525    0.5479 H         1 <1>         0.1387
     38 H13        -0.3459    4.8202   -0.5529 H         1 <1>         0.1405
     39 H14        -1.7462    0.9943    0.8877 H         1 <1>         0.1405
     40 H15         3.1524    2.6449   -2.0447 H         1 <1>         0.1545
     41 H16         2.4836   -0.1001    1.2085 H         1 <1>         0.1545
@<TRIPOS>BOND
     1    1    3 ar
     2    1    4 ar
     3    2    5 ar
     4    2    6 ar
     5    3    7 ar
     6    4    8 ar
     7    5    9 ar
     8    6   10 ar
     9    7   18 ar
    10    8   18 ar
    11    9   19 ar
    12   10   19 ar
    13   11   13 ar
    14   11   17 ar
    15   12   14 ar
    16   12   17 ar
    17   13   21 ar
    18   14   21 ar
    19   15   20 ar
    20   15   22 ar
    21   16   20 ar
    22   16   23 ar
    23   17   20 1
    24   18   22 1
    25   19   23 1
    26   21   25 1
    27   22   24 ar
    28   23   24 ar
    29    1   26 1
    30    2   27 1
    31    3   28 1
    32    4   29 1
    33    5   30 1
    34    6   31 1
    35    7   32 1
    36    8   33 1
    37    9   34 1
    38   10   35 1
    39   11   36 1
    40   12   37 1
    41   13   38 1
    42   14   39 1
    43   15   40 1
    44   16   41 1
@<TRIPOS>Similarity
1.5117
@<TRIPOS>ShapeSim
0.8332
@<TRIPOS>PharmSim
0.6785
# END
# Name:		AO-476/43380440
# Created and modified by SHAFTS on Tue Sep 23 19:00:28 2014

# 

@<TRIPOS>MOLECULE
AO-476/43380440
   38    41     0
SMALL
USER_CHARGE


@<TRIPOS>ATOM
      1 C1          5.8877   -3.4145    2.6512 C.ar      1 <1>        -0.0955
      2 C2          5.4918   -2.2189    3.2505 C.ar      1 <1>        -0.0913
      3 C3          5.7640   -3.5775    1.2713 C.ar      1 <1>        -0.0892
      4 C4         -1.0745    2.1642   -0.2416 C.2       1 <1>        -0.0794
      5 C5          4.9721   -1.1862    2.4701 C.ar      1 <1>        -0.0734
      6 C6          5.2444   -2.5448    0.4909 C.ar      1 <1>        -0.0694
      7 C7          0.0251    1.3706   -0.6786 C.2       1 <1>        -0.0726
      8 C8          3.0240    0.1901    0.5177 C.ar      1 <1>        -0.0236
      9 C9         -0.6884    3.1325    0.6590 C.2       1 <1>        -0.0494
     10 C10         3.3678    1.7352   -1.2775 C.ar      1 <1>         0.0325
     11 C11         4.8485   -1.3491    1.0902 C.ar      1 <1>        -0.0430
     12 C12         2.5295    1.2231   -0.2762 C.ar      1 <1>        -0.0081
     13 C13         3.2796    2.7416   -2.2718 C.2       1 <1>         0.0297
     14 C14         4.3098   -0.2783    0.2815 C.ar      1 <1>         0.0017
     15 C15         1.2102    1.7627   -0.0955 C.2       1 <1>        -0.0314
     16 C16         4.4835    2.7321   -2.9367 C.2       1 <1>         0.0844
     17 C17         4.6367    1.1733   -1.4072 C.ar      1 <1>         0.0835
     18 C18         4.9738    3.5139   -4.0221 C.2       1 <1>         0.0735
     19 C19         6.3756    3.2463   -4.5307 C.3       1 <1>         0.0285
     20 N1          5.1602    0.1766   -0.6678 N.ar      1 <1>        -0.3303
     21 N2          2.2349    3.5567   -2.5308 N.pl3     1 <1>        -0.3373
     22 O1          4.3540    4.4254   -4.6119 O.2       1 <1>        -0.5145
     23 O2          5.3119    1.7868   -2.4219 O.3       1 <1>        -0.3473
     24 S1          0.9939    3.0824    0.9740 S.3       1 <1>        -0.1713
     25 H1          6.2939   -4.2179    3.2588 H         1 <1>         0.1198
     26 H2          5.5895   -2.0912    4.3245 H         1 <1>         0.1199
     27 H3          6.0735   -4.5077    0.8038 H         1 <1>         0.1214
     28 H4         -2.0968    2.0323   -0.5711 H         1 <1>         0.1215
     29 H5          4.6680   -0.2599    2.9522 H         1 <1>         0.1353
     30 H6          5.1545   -2.6860   -0.5835 H         1 <1>         0.1468
     31 H7         -0.0572    0.5553   -1.3868 H         1 <1>         0.1320
     32 H8          2.4114   -0.2392    1.3070 H         1 <1>         0.1740
     33 H9         -1.3137    3.8672    1.1464 H         1 <1>         0.1784
     34 H10         6.4121    2.4910   -5.3315 H         1 <1>         0.1008
     35 H11         7.0632    2.9183   -3.7359 H         1 <1>         0.1113
     36 H12         6.8710    4.1268   -4.9777 H         1 <1>         0.1113
     37 H13         1.3410    3.4800   -2.0234 H         1 <1>         0.2547
     38 H14         2.2462    4.2309   -3.3102 H         1 <1>         0.2660
@<TRIPOS>BOND
     1    1    2 ar
     2    1    3 ar
     3    2    5 ar
     4    3    6 ar
     5    4    7 1
     6    4    9 2
     7    5   11 ar
     8    6   11 ar
     9    7   15 2
    10    8   12 ar
    11    8   14 ar
    12    9   24 1
    13   10   12 ar
    14   10   13 1
    15   10   17 ar
    16   11   14 1
    17   12   15 1
    18   13   16 2
    19   13   21 1
    20   14   20 ar
    21   15   24 1
    22   16   18 1
    23   16   23 1
    24   17   20 ar
    25   17   23 1
    26   18   19 1
    27   18   22 2
    28    1   25 1
    29    2   26 1
    30    3   27 1
    31    4   28 1
    32    5   29 1
    33    6   30 1
    34    7   31 1
    35    8   32 1
    36    9   33 1
    37   19   34 1
    38   19   35 1
    39   19   36 1
    40   21   37 1
    41   21   38 1
@<TRIPOS>Similarity
1.5059
@<TRIPOS>ShapeSim
0.8436
@<TRIPOS>PharmSim
0.6623
# END
# Name:		AN-919/13952015
# Created and modified by SHAFTS on Tue Sep 23 19:00:28 2014

# 

@<TRIPOS>MOLECULE
AN-919/13952015
   39    41     0
SMALL
USER_CHARGE


@<TRIPOS>ATOM
      1 C1          3.1628    2.7422   -2.1467 C.1       1 <1>         0.0357
      2 C2          5.8741   -3.5138    2.7499 C.ar      1 <1>        -0.0963
      3 C3          4.9645   -2.5969    3.2767 C.ar      1 <1>        -0.0921
      4 C4          6.3005   -3.3919    1.4274 C.ar      1 <1>        -0.0908
      5 C5          4.4812   -1.5582    2.4811 C.ar      1 <1>        -0.0757
      6 C6          5.8172   -2.3532    0.6317 C.ar      1 <1>        -0.0730
      7 C7          0.2804    0.9407   -0.2040 C.ar      1 <1>        -0.0833
      8 C8          1.2588    3.1068    0.2294 C.ar      1 <1>        -0.0821
      9 C9         -0.9923    1.4760   -0.0068 C.ar      1 <1>        -0.0972
     10 C10        -0.0140    3.6422    0.4267 C.ar      1 <1>        -0.0967
     11 C11         3.1416    0.1644    0.5387 C.ar      1 <1>        -0.0242
     12 C12         3.5774    1.6727   -1.2833 C.ar      1 <1>         0.0956
     13 C13         1.4060    1.7560   -0.0859 C.ar      1 <1>        -0.0562
     14 C14         4.9075   -1.4363    1.1585 C.ar      1 <1>        -0.0500
     15 C15         2.7262    1.2006   -0.2903 C.ar      1 <1>         0.0063
     16 C16        -1.1397    2.8268    0.3085 C.ar      1 <1>        -0.1097
     17 C17         4.4074   -0.3612    0.3354 C.ar      1 <1>        -0.0139
     18 C18         4.8238    1.0798   -1.4048 C.ar      1 <1>         0.0484
     19 C19        -2.5004    3.3992    0.5197 C.3       1 <1>        -0.0424
     20 C20         5.0360    1.2757   -4.1306 C.3       1 <1>         0.0053
     21 N1          2.8277    3.6067   -2.8446 N.1       1 <1>        -0.3791
     22 N2          5.2622    0.0714   -0.6184 N.ar      1 <1>        -0.3602
     23 S1          6.0063    1.6047   -2.6451 S.3       1 <1>        -0.1546
     24 H1          6.2516   -4.3214    3.3702 H         1 <1>         0.1191
     25 H2          4.6337   -2.6907    4.3069 H         1 <1>         0.1197
     26 H3          7.0098   -4.1047    1.0169 H         1 <1>         0.1198
     27 H4          3.7727   -0.8513    2.9065 H         1 <1>         0.1345
     28 H5          6.1590   -2.2706   -0.3973 H         1 <1>         0.1422
     29 H6          0.3788   -0.1143   -0.4487 H         1 <1>         0.1274
     30 H7          2.1266    3.7554    0.3243 H         1 <1>         0.1322
     31 H8         -1.8637    0.8332   -0.0997 H         1 <1>         0.1206
     32 H9         -0.1194    4.6958    0.6714 H         1 <1>         0.1211
     33 H10         2.4959   -0.2224    1.3223 H         1 <1>         0.1718
     34 H11        -2.7893    3.3187    1.5749 H         1 <1>         0.0615
     35 H12        -2.5373    4.4571    0.2286 H         1 <1>         0.0591
     36 H13        -3.2512    2.8767   -0.0874 H         1 <1>         0.0589
     37 H14         5.6135    1.5435   -5.0187 H         1 <1>         0.0969
     38 H15         4.1167    1.8662   -4.1118 H         1 <1>         0.0969
     39 H16         4.7784    0.2148   -4.1782 H         1 <1>         0.1036
@<TRIPOS>BOND
     1    1   12 1
     2    1   21 3
     3    2    3 ar
     4    2    4 ar
     5    3    5 ar
     6    4    6 ar
     7    5   14 ar
     8    6   14 ar
     9    7    9 ar
    10    7   13 ar
    11    8   10 ar
    12    8   13 ar
    13    9   16 ar
    14   10   16 ar
    15   11   15 ar
    16   11   17 ar
    17   12   15 ar
    18   12   18 ar
    19   13   15 1
    20   14   17 1
    21   16   19 1
    22   17   22 ar
    23   18   22 ar
    24   18   23 1
    25   20   23 1
    26    2   24 1
    27    3   25 1
    28    4   26 1
    29    5   27 1
    30    6   28 1
    31    7   29 1
    32    8   30 1
    33    9   31 1
    34   10   32 1
    35   11   33 1
    36   19   34 1
    37   19   35 1
    38   19   36 1
    39   20   37 1
    40   20   38 1
    41   20   39 1
@<TRIPOS>Similarity
1.5041
@<TRIPOS>ShapeSim
0.9102
@<TRIPOS>PharmSim
0.5939
# END
# Name:		AG-690/12404942
# Created and modified by SHAFTS on Tue Sep 23 19:00:28 2014

# 

@<TRIPOS>MOLECULE
AG-690/12404942
   38    41     0
SMALL
USER_CHARGE


@<TRIPOS>ATOM
      1 C1          4.5179   -1.5605    2.3882 C.ar      1 <1>        -0.0675
      2 C2          5.9067   -2.2379    0.5308 C.ar      1 <1>        -0.0718
      3 C3          0.9285    3.3660    0.4457 C.ar      1 <1>        -0.0738
      4 C4          0.3487    1.1285   -0.2572 C.ar      1 <1>        -0.0723
      5 C5          5.0427   -2.5979    3.1590 C.ar      1 <1>        -0.0902
      6 C6          6.4317   -3.2752    1.3017 C.ar      1 <1>        -0.0926
      7 C7         -0.4160    3.7327    0.3880 C.ar      1 <1>        -0.0664
      8 C8         -0.9959    1.4950   -0.3148 C.ar      1 <1>        -0.0658
      9 C9          4.1719    2.8221   -2.7810 C.2       1 <1>         0.0557
     10 C10         4.9500   -1.3807    1.0741 C.ar      1 <1>        -0.0414
     11 C11         1.3109    2.0639    0.1231 C.ar      1 <1>        -0.0602
     12 C12         5.9997   -3.4551    2.6159 C.ar      1 <1>        -0.1062
     13 C13        -1.3783    2.7972    0.0078 C.ar      1 <1>        -0.0367
     14 C14         4.6068    1.2477   -1.4441 C.2       1 <1>         0.0752
     15 C15         4.3899   -0.2717    0.2493 C.2       1 <1>         0.0005
     16 C16         2.9576    0.1839    0.5303 C.3       1 <1>         0.0389
     17 C17         2.7702    1.6661    0.1857 C.3       1 <1>         0.0584
     18 C18         6.5614   -4.5634    3.4408 C.3       1 <1>        -0.0409
     19 N1          5.0409    1.7896   -2.5676 N.2       1 <1>        -0.3130
     20 N2          3.2170    2.9735   -1.8631 N.2       1 <1>        -0.3206
     21 N3          5.1212    0.2329   -0.7032 N.2       1 <1>        -0.3239
     22 N4          3.4888    1.9416   -1.0515 N.pl3     1 <1>        -0.2906
     23 Br1        -3.1997    3.2948   -0.0707 Br        1 <1>        -0.1389
     24 H1          3.7727   -0.8980    2.8209 H         1 <1>         0.1515
     25 H2          6.2508   -2.1072   -0.4918 H         1 <1>         0.1394
     26 H3          1.6713    4.1015    0.7432 H         1 <1>         0.1342
     27 H4          0.6374    0.1119   -0.5111 H         1 <1>         0.1403
     28 H5          4.7007   -2.7305    4.1819 H         1 <1>         0.1241
     29 H6          7.1773   -3.9381    0.8707 H         1 <1>         0.1223
     30 H7         -0.6971    4.7517    0.6416 H         1 <1>         0.1425
     31 H8         -1.7332    0.7541   -0.6127 H         1 <1>         0.1436
     32 H9          4.2400    3.4840   -3.6315 H         1 <1>         0.3086
     33 H10         2.2424   -0.4515    0.0093 H         1 <1>         0.1351
     34 H11         2.8105    0.0508    1.6054 H         1 <1>         0.1424
     35 H12         3.2576    2.2842    0.9899 H         1 <1>         0.1758
     36 H13         5.9581   -5.4717    3.3217 H         1 <1>         0.0635
     37 H14         7.5951   -4.7917    3.1507 H         1 <1>         0.0605
     38 H15         6.5819   -4.2964    4.5054 H         1 <1>         0.0603
@<TRIPOS>BOND
     1    1    5 ar
     2    1   10 ar
     3    2    6 ar
     4    2   10 ar
     5    3    7 ar
     6    3   11 ar
     7    4    8 ar
     8    4   11 ar
     9    5   12 ar
    10    6   12 ar
    11    7   13 ar
    12    8   13 ar
    13    9   19 1
    14    9   20 2
    15   10   15 1
    16   11   17 1
    17   12   18 1
    18   13   23 1
    19   14   19 2
    20   14   21 1
    21   14   22 1
    22   15   16 1
    23   15   21 2
    24   16   17 1
    25   17   22 1
    26   20   22 1
    27    1   24 1
    28    2   25 1
    29    3   26 1
    30    4   27 1
    31    5   28 1
    32    6   29 1
    33    7   30 1
    34    8   31 1
    35    9   32 1
    36   16   33 1
    37   16   34 1
    38   17   35 1
    39   18   36 1
    40   18   37 1
    41   18   38 1
@<TRIPOS>Similarity
1.4984
@<TRIPOS>ShapeSim
0.9069
@<TRIPOS>PharmSim
0.5915
# END
# Name:		AM-879/15041697
# Created and modified by SHAFTS on Tue Sep 23 19:00:28 2014

# 

@<TRIPOS>MOLECULE
AM-879/15041697
   38    40     0
SMALL
USER_CHARGE


@<TRIPOS>ATOM
      1 C1          3.1924    2.8501   -2.2813 C.1       1 <1>         0.0251
      2 C2          5.9162   -3.4056    2.6118 C.ar      1 <1>        -0.0971
      3 C3          5.0058   -2.4916    3.1420 C.ar      1 <1>        -0.0924
      4 C4          6.3397   -3.2807    1.2886 C.ar      1 <1>        -0.0911
      5 C5          0.0031    3.7477    0.3059 C.ar      1 <1>        -0.0826
      6 C6          4.5185   -1.4526    2.3489 C.ar      1 <1>        -0.0748
      7 C7          5.8526   -2.2417    0.4956 C.ar      1 <1>        -0.0719
      8 C8          1.2765    3.2146    0.1064 C.ar      1 <1>        -0.0769
      9 C9         -1.1212    2.9303    0.1896 C.ar      1 <1>        -0.0686
     10 C10         0.3013    1.0468   -0.3259 C.ar      1 <1>        -0.0485
     11 C11         3.1701    0.2727    0.4102 C.ar      1 <1>        -0.0271
     12 C12         3.5982    1.7838   -1.4113 C.ar      1 <1>         0.0885
     13 C13         4.9420   -1.3276    1.0257 C.ar      1 <1>        -0.0486
     14 C14         1.4257    1.8642   -0.2095 C.ar      1 <1>        -0.0424
     15 C15         2.7505    1.3086   -0.4169 C.ar      1 <1>         0.0081
     16 C16        -0.9721    1.5799   -0.1264 C.ar      1 <1>        -0.0355
     17 C17         4.4367   -0.2497    0.2036 C.ar      1 <1>        -0.0137
     18 C18         4.8457    1.1938   -1.5363 C.ar      1 <1>         0.0398
     19 C19        -1.8450   -0.5884   -0.5651 C.3       1 <1>         0.0106
     20 N1          2.8642    3.7126   -2.9851 N.1       1 <1>        -0.3928
     21 N2          5.2883    0.1856   -0.7518 N.ar      1 <1>        -0.3626
     22 N3          5.7251    1.6639   -2.5446 N.pl3     1 <1>        -0.3208
     23 O1         -2.0693    0.7825   -0.2397 O.3       1 <1>        -0.4631
     24 H1          6.2967   -4.2135    3.2300 H         1 <1>         0.1175
     25 H2          4.6772   -2.5877    4.1726 H         1 <1>         0.1184
     26 H3          7.0497   -3.9913    0.8756 H         1 <1>         0.1185
     27 H4         -0.1131    4.7992    0.5515 H         1 <1>         0.1287
     28 H5          3.8093   -0.7478    2.7768 H         1 <1>         0.1356
     29 H6          6.1922   -2.1567   -0.5339 H         1 <1>         0.1441
     30 H7          2.1431    3.8647    0.2007 H         1 <1>         0.1291
     31 H8         -2.1109    3.3508    0.3461 H         1 <1>         0.1274
     32 H9          0.4080   -0.0076   -0.5728 H         1 <1>         0.1506
     33 H10         2.5270   -0.1160    1.1951 H         1 <1>         0.1588
     34 H11        -2.8028   -1.1111   -0.6247 H         1 <1>         0.1327
     35 H12        -1.2145   -1.0470    0.2009 H         1 <1>         0.1088
     36 H13        -1.3401   -0.6462   -1.5323 H         1 <1>         0.1084
     37 H14         5.4064    2.3734   -3.1670 H         1 <1>         0.2793
     38 H15         6.6031    1.2093   -2.6657 H         1 <1>         0.2809
@<TRIPOS>BOND
     1    1   12 1
     2    1   20 3
     3    2    3 ar
     4    2    4 ar
     5    3    6 ar
     6    4    7 ar
     7    5    8 ar
     8    5    9 ar
     9    6   13 ar
    10    7   13 ar
    11    8   14 ar
    12    9   16 ar
    13   10   14 ar
    14   10   16 ar
    15   11   15 ar
    16   11   17 ar
    17   12   15 ar
    18   12   18 ar
    19   13   17 1
    20   14   15 1
    21   16   23 1
    22   17   21 ar
    23   18   21 ar
    24   18   22 1
    25   19   23 1
    26    2   24 1
    27    3   25 1
    28    4   26 1
    29    5   27 1
    30    6   28 1
    31    7   29 1
    32    8   30 1
    33    9   31 1
    34   10   32 1
    35   11   33 1
    36   19   34 1
    37   19   35 1
    38   19   36 1
    39   22   37 1
    40   22   38 1
@<TRIPOS>Similarity
1.4947
@<TRIPOS>ShapeSim
0.8976
@<TRIPOS>PharmSim
0.5971
# END
# Name:		AG-401/43339472
# Created and modified by SHAFTS on Tue Sep 23 19:00:28 2014

# 

@<TRIPOS>MOLECULE
AG-401/43339472
   30    32     0
SMALL
USER_CHARGE


@<TRIPOS>ATOM
      1 C1          5.7901   -3.3472    2.6245 C.ar      1 <1>        -0.0942
      2 C2          6.2429   -3.2466    1.3090 C.ar      1 <1>        -0.0872
      3 C3          4.8880   -2.4086    3.1254 C.ar      1 <1>        -0.0870
      4 C4          5.7937   -2.2072    0.4945 C.ar      1 <1>        -0.0618
      5 C5          4.4388   -1.3693    2.3107 C.ar      1 <1>        -0.0613
      6 C6          1.2770    3.1223    0.2031 C.ar      1 <1>        -0.0457
      7 C7         -0.0049    3.6093    0.4581 C.ar      1 <1>        -0.0346
      8 C8          3.5611    1.8099   -1.4186 C.ar      1 <1>        -0.0293
      9 C9          0.3574    0.9318   -0.2367 C.ar      1 <1>        -0.0218
     10 C10         4.8104    1.2440   -1.5708 C.ar      1 <1>        -0.0123
     11 C11         4.8916   -1.2685    0.9953 C.ar      1 <1>        -0.0262
     12 C12         1.4582    1.7836   -0.1444 C.ar      1 <1>        -0.0257
     13 C13        -1.1056    2.7576    0.3658 C.ar      1 <1>         0.0275
     14 C14        -0.9246    1.4189    0.0184 C.ar      1 <1>         0.0307
     15 C15         2.7851    1.2804   -0.4078 C.ar      1 <1>        -0.0063
     16 C16         4.4258   -0.1907    0.1500 C.ar      1 <1>         0.0164
     17 N1          5.2768    0.2386   -0.8013 N.ar      1 <1>        -0.3670
     18 N2          3.1873    0.2761    0.3985 N.ar      1 <1>        -0.3590
     19 Cl1        -2.6677    3.4202    0.6972 Cl        1 <1>        -0.1546
     20 Cl2        -2.2487    0.3144   -0.1081 Cl        1 <1>        -0.1549
     21 H1          6.1385   -4.1577    3.2579 H         1 <1>         0.1200
     22 H2          6.9439   -3.9782    0.9184 H         1 <1>         0.1206
     23 H3          4.5339   -2.4873    4.1490 H         1 <1>         0.1210
     24 H4          6.1558   -2.1424   -0.5289 H         1 <1>         0.1481
     25 H5          3.7350   -0.6453    2.7148 H         1 <1>         0.1496
     26 H6          2.1250    3.7991    0.2768 H         1 <1>         0.1667
     27 H7         -0.1275    4.6557    0.7266 H         1 <1>         0.1618
     28 H8          3.2253    2.6163   -2.0585 H         1 <1>         0.1620
     29 H9          0.5005   -0.1121   -0.5091 H         1 <1>         0.1733
     30 H10         5.4917    1.5939   -2.3390 H         1 <1>         0.2314
@<TRIPOS>BOND
     1    1    2 ar
     2    1    3 ar
     3    2    4 ar
     4    3    5 ar
     5    4   11 ar
     6    5   11 ar
     7    6    7 ar
     8    6   12 ar
     9    7   13 ar
    10    8   10 ar
    11    8   15 ar
    12    9   12 ar
    13    9   14 ar
    14   10   17 ar
    15   11   16 1
    16   12   15 1
    17   13   14 ar
    18   13   19 1
    19   14   20 1
    20   15   18 ar
    21   16   17 ar
    22   16   18 ar
    23    1   21 1
    24    2   22 1
    25    3   23 1
    26    4   24 1
    27    5   25 1
    28    6   26 1
    29    7   27 1
    30    8   28 1
    31    9   29 1
    32   10   30 1
@<TRIPOS>Similarity
1.4939
@<TRIPOS>ShapeSim
0.8645
@<TRIPOS>PharmSim
0.6294
# END
# Name:		AF-826/30392059
# Created and modified by SHAFTS on Tue Sep 23 19:00:28 2014

# 

@<TRIPOS>MOLECULE
AF-826/30392059
   38    40     0
SMALL
USER_CHARGE


@<TRIPOS>ATOM
      1 C1          1.0321    3.1751    0.5873 C.ar      1 <1>        -0.0527
      2 C2          0.0959    1.5616   -0.9482 C.ar      1 <1>        -0.0509
      3 C3         -0.2138    3.3166    1.1982 C.ar      1 <1>        -0.0504
      4 C4         -1.1500    1.7031   -0.3372 C.ar      1 <1>        -0.0489
      5 C5          3.4189    1.2100   -0.7038 C.ar      1 <1>         0.0395
      6 C6          1.1870    2.2977   -0.4861 C.ar      1 <1>        -0.0256
      7 C7          3.4247    0.2225    0.3310 C.2       1 <1>         0.0350
      8 C8         -1.3048    2.5806    0.7361 C.ar      1 <1>        -0.0098
      9 C9          2.4713    2.1523   -1.1164 C.ar      1 <1>         0.0262
     10 C10         4.6004   -0.4952    0.3688 C.2       1 <1>         0.1060
     11 C11         4.6135    1.1911   -1.4120 C.ar      1 <1>         0.0760
     12 C12         3.9418    2.8494   -2.7446 C.ar      1 <1>         0.0658
     13 C13         4.9906   -1.5543    1.2453 C.2       1 <1>         0.1524
     14 C14         3.0917   -3.0811    4.0165 C.3       1 <1>        -0.0293
     15 C15         5.9217    3.4214   -4.5519 C.3       1 <1>         0.0229
     16 C16         4.2882   -2.9105    3.1049 C.3       1 <1>         0.0297
     17 N1          2.7402    2.9795   -2.1491 N.ar      1 <1>        -0.3290
     18 N2          4.9339    1.9910   -2.4478 N.ar      1 <1>        -0.3154
     19 N3          2.3995   -0.0002    1.1906 N.pl3     1 <1>        -0.3394
     20 O1          6.0877   -2.1578    1.2108 O.2       1 <1>        -0.4703
     21 O2          4.0149   -1.8633    2.1676 O.3       1 <1>        -0.3914
     22 S1          5.7019    0.0123   -0.8375 S.3       1 <1>        -0.0340
     23 S2          4.2577    3.9615   -4.1051 S.3       1 <1>        -0.1154
     24 Cl1        -2.8420    2.7569    1.4895 Cl        1 <1>        -0.1770
     25 H1          1.8730    3.7558    0.9587 H         1 <1>         0.1539
     26 H2          0.2005    0.8742   -1.7845 H         1 <1>         0.1579
     27 H3         -0.3209    4.0053    2.0325 H         1 <1>         0.1494
     28 H4         -1.9918    1.1242   -0.7086 H         1 <1>         0.1515
     29 H5          2.8892   -2.1607    4.5710 H         1 <1>         0.0586
     30 H6          2.2010   -3.3489    3.4384 H         1 <1>         0.0585
     31 H7          3.2635   -3.8933    4.7307 H         1 <1>         0.0656
     32 H8          6.2899    4.0107   -5.3952 H         1 <1>         0.1074
     33 H9          5.9058    2.3659   -4.8345 H         1 <1>         0.1075
     34 H10         6.5954    3.5538   -3.7020 H         1 <1>         0.1195
     35 H11         4.4853   -3.8347    2.5533 H         1 <1>         0.1221
     36 H12         5.1769   -2.6422    3.6839 H         1 <1>         0.1221
     37 H13         1.5485    0.5755    1.1798 H         1 <1>         0.2596
     38 H14         2.4683   -0.6900    1.9489 H         1 <1>         0.2523
@<TRIPOS>BOND
     1    1    3 ar
     2    1    6 ar
     3    2    4 ar
     4    2    6 ar
     5    3    8 ar
     6    4    8 ar
     7    5    7 1
     8    5    9 ar
     9    5   11 ar
    10    6    9 1
    11    7   10 2
    12    7   19 1
    13    8   24 1
    14    9   17 ar
    15   10   13 1
    16   10   22 1
    17   11   18 ar
    18   11   22 1
    19   12   17 ar
    20   12   18 ar
    21   12   23 1
    22   13   20 2
    23   13   21 1
    24   14   16 1
    25   15   23 1
    26   16   21 1
    27    1   25 1
    28    2   26 1
    29    3   27 1
    30    4   28 1
    31   14   29 1
    32   14   30 1
    33   14   31 1
    34   15   32 1
    35   15   33 1
    36   15   34 1
    37   16   35 1
    38   16   36 1
    39   19   37 1
    40   19   38 1
@<TRIPOS>Similarity
1.4923
@<TRIPOS>ShapeSim
0.8548
@<TRIPOS>PharmSim
0.6375
# END
# Name:		AE-848/34408043
# Created and modified by SHAFTS on Tue Sep 23 19:00:28 2014

# 

@<TRIPOS>MOLECULE
AE-848/34408043
   40    42     0
SMALL
USER_CHARGE


@<TRIPOS>ATOM
      1 C1          3.1625    2.7423   -2.1465 C.1       1 <1>         0.0353
      2 C2          5.8742   -3.5138    2.7499 C.ar      1 <1>        -0.0964
      3 C3          4.9646   -2.5969    3.2767 C.ar      1 <1>        -0.0922
      4 C4          6.3006   -3.3919    1.4273 C.ar      1 <1>        -0.0909
      5 C5          4.4811   -1.5582    2.4811 C.ar      1 <1>        -0.0757
      6 C6          5.8171   -2.3531    0.6317 C.ar      1 <1>        -0.0730
      7 C7          0.2805    0.9405   -0.2039 C.ar      1 <1>        -0.0658
      8 C8          1.2591    3.1066    0.2292 C.ar      1 <1>        -0.0699
      9 C9         -0.9923    1.4762   -0.0067 C.ar      1 <1>        -0.0573
     10 C10        -0.0137    3.6422    0.4264 C.ar      1 <1>        -0.0639
     11 C11         3.1415    0.1645    0.5388 C.ar      1 <1>        -0.0248
     12 C12         3.5771    1.6727   -1.2832 C.ar      1 <1>         0.0951
     13 C13         1.4061    1.7558   -0.0857 C.ar      1 <1>        -0.0500
     14 C14         4.9075   -1.4363    1.1584 C.ar      1 <1>        -0.0501
     15 C15         2.7260    1.2005   -0.2902 C.ar      1 <1>         0.0066
     16 C16        -1.1394    2.8269    0.3083 C.ar      1 <1>        -0.0365
     17 C17         4.4073   -0.3611    0.3355 C.ar      1 <1>        -0.0143
     18 C18         4.8235    1.0798   -1.4048 C.ar      1 <1>         0.0481
     19 C19        -2.4596    4.7378    0.8195 C.3       1 <1>         0.0113
     20 C20         5.5230    0.5057   -3.9920 C.3       1 <1>         0.0053
     21 N1          2.8274    3.6068   -2.8444 N.1       1 <1>        -0.3793
     22 N2          5.2621    0.0714   -0.6183 N.ar      1 <1>        -0.3605
     23 O1         -2.3812    3.3496    0.5000 O.3       1 <1>        -0.4626
     24 S1          6.0060    1.6049   -2.6451 S.3       1 <1>        -0.1547
     25 H1          6.2517   -4.3214    3.3701 H         1 <1>         0.1189
     26 H2          4.6338   -2.6908    4.3069 H         1 <1>         0.1194
     27 H3          7.0098   -4.1046    1.0169 H         1 <1>         0.1197
     28 H4          3.7727   -0.8514    2.9065 H         1 <1>         0.1345
     29 H5          6.1590   -2.2706   -0.3973 H         1 <1>         0.1422
     30 H6          0.3788   -0.1142   -0.4490 H         1 <1>         0.1426
     31 H7          2.1266    3.7551    0.3247 H         1 <1>         0.1405
     32 H8         -1.8655    0.8362   -0.1003 H         1 <1>         0.1468
     33 H9         -0.1222    4.6953    0.6714 H         1 <1>         0.1308
     34 H10         2.4958   -0.2225    1.3224 H         1 <1>         0.1711
     35 H11        -3.5063    5.0249    0.9462 H         1 <1>         0.1095
     36 H12        -2.0048    5.3237    0.0168 H         1 <1>         0.1098
     37 H13        -1.9190    4.9192    1.7516 H         1 <1>         0.1333
     38 H14         6.1554    0.6867   -4.8647 H         1 <1>         0.0969
     39 H15         4.4802    0.6877   -4.2638 H         1 <1>         0.1035
     40 H16         5.6344   -0.5355   -3.6796 H         1 <1>         0.0969
@<TRIPOS>BOND
     1    1   12 1
     2    1   21 3
     3    2    3 ar
     4    2    4 ar
     5    3    5 ar
     6    4    6 ar
     7    5   14 ar
     8    6   14 ar
     9    7    9 ar
    10    7   13 ar
    11    8   10 ar
    12    8   13 ar
    13    9   16 ar
    14   10   16 ar
    15   11   15 ar
    16   11   17 ar
    17   12   15 ar
    18   12   18 ar
    19   13   15 1
    20   14   17 1
    21   16   23 1
    22   17   22 ar
    23   18   22 ar
    24   18   24 1
    25   19   23 1
    26   20   24 1
    27    2   25 1
    28    3   26 1
    29    4   27 1
    30    5   28 1
    31    6   29 1
    32    7   30 1
    33    8   31 1
    34    9   32 1
    35   10   33 1
    36   11   34 1
    37   19   35 1
    38   19   36 1
    39   19   37 1
    40   20   38 1
    41   20   39 1
    42   20   40 1
@<TRIPOS>Similarity
1.4897
@<TRIPOS>ShapeSim
0.9018
@<TRIPOS>PharmSim
0.5879
# END
# Name:		AI-211/36556007
# Created and modified by SHAFTS on Tue Sep 23 19:00:28 2014

# 

@<TRIPOS>MOLECULE
AI-211/36556007
   36    38     0
SMALL
USER_CHARGE


@<TRIPOS>ATOM
      1 C1          3.0979    2.9096   -2.2872 C.1       1 <1>         0.0471
      2 C2          5.9158   -3.3454    2.5488 C.ar      1 <1>        -0.0955
      3 C3          5.0017   -2.4435    3.0932 C.ar      1 <1>        -0.0912
      4 C4          6.3253   -3.2086    1.2224 C.ar      1 <1>        -0.0900
      5 C5          4.4971   -1.4044    2.3112 C.ar      1 <1>        -0.0743
      6 C6          5.8205   -2.1695    0.4404 C.ar      1 <1>        -0.0716
      7 C7          1.1906    3.2452    0.1242 C.ar      1 <1>        -0.0554
      8 C8         -0.0851    3.7672    0.3379 C.ar      1 <1>        -0.0382
      9 C9          0.2287    1.0717   -0.3089 C.ar      1 <1>        -0.0269
     10 C10         3.1136    0.3193    0.3964 C.ar      1 <1>        -0.0186
     11 C11         3.5079    1.8436   -1.4216 C.ar      1 <1>         0.1223
     12 C12         4.9065   -1.2675    0.9848 C.ar      1 <1>        -0.0470
     13 C13         1.3475    1.8974   -0.1992 C.ar      1 <1>        -0.0290
     14 C14         2.6752    1.3551   -0.4210 C.ar      1 <1>         0.0236
     15 C15        -1.2039    2.9416    0.2282 C.ar      1 <1>         0.0268
     16 C16        -1.0470    1.5937   -0.0951 C.ar      1 <1>         0.0295
     17 C17         4.3831   -0.1896    0.1742 C.ar      1 <1>        -0.0039
     18 C18         4.7599    1.2667   -1.5624 C.ar      1 <1>         0.0948
     19 C19         6.5013    2.7672   -2.1717 C.3       1 <1>         0.0347
     20 N1          2.7659    3.7728   -2.9881 N.1       1 <1>        -0.3783
     21 N2          5.2204    0.2591   -0.7876 N.ar      1 <1>        -0.3349
     22 O1          5.6191    1.7125   -2.5340 O.3       1 <1>        -0.4078
     23 Cl1        -2.7570    3.6470    0.5083 Cl        1 <1>        -0.1541
     24 Cl2        -2.3945    0.5204   -0.2414 Cl        1 <1>        -0.1537
     25 H1          6.3099   -4.1535    3.1583 H         1 <1>         0.1201
     26 H2          4.6841   -2.5489    4.1264 H         1 <1>         0.1205
     27 H3          7.0379   -3.9097    0.7983 H         1 <1>         0.1205
     28 H4          3.7855   -0.7091    2.7502 H         1 <1>         0.1361
     29 H5          6.1495   -2.0751   -0.5918 H         1 <1>         0.1437
     30 H6          2.0530    3.9021    0.2111 H         1 <1>         0.1506
     31 H7         -0.1885    4.8203    0.5883 H         1 <1>         0.1614
     32 H8          0.3528    0.0206   -0.5626 H         1 <1>         0.1714
     33 H9          2.4819   -0.0801    1.1854 H         1 <1>         0.1709
     34 H10         7.1288    3.0285   -3.0274 H         1 <1>         0.1256
     35 H11         7.1251    2.4496   -1.3324 H         1 <1>         0.1256
     36 H12         5.9117    3.6381   -1.8757 H         1 <1>         0.1450
@<TRIPOS>BOND
     1    1   11 1
     2    1   20 3
     3    2    3 ar
     4    2    4 ar
     5    3    5 ar
     6    4    6 ar
     7    5   12 ar
     8    6   12 ar
     9    7    8 ar
    10    7   13 ar
    11    8   15 ar
    12    9   13 ar
    13    9   16 ar
    14   10   14 ar
    15   10   17 ar
    16   11   14 ar
    17   11   18 ar
    18   12   17 1
    19   13   14 1
    20   15   16 ar
    21   15   23 1
    22   16   24 1
    23   17   21 ar
    24   18   21 ar
    25   18   22 1
    26   19   22 1
    27    2   25 1
    28    3   26 1
    29    4   27 1
    30    5   28 1
    31    6   29 1
    32    7   30 1
    33    8   31 1
    34    9   32 1
    35   10   33 1
    36   19   34 1
    37   19   35 1
    38   19   36 1
@<TRIPOS>Similarity
1.4886
@<TRIPOS>ShapeSim
0.9021
@<TRIPOS>PharmSim
0.5865
# END
# Name:		AG-205/36992102
# Created and modified by SHAFTS on Tue Sep 23 19:00:28 2014

# 

@<TRIPOS>MOLECULE
AG-205/36992102
   42    45     0
SMALL
USER_CHARGE


@<TRIPOS>ATOM
      1 C1          5.3283   -2.8170    2.8614 C.2       1 <1>        -0.0733
      2 C2          0.1458    0.9692   -0.1531 C.ar      1 <1>        -0.0598
      3 C3          1.1171    3.1388    0.2789 C.ar      1 <1>        -0.0601
      4 C4         -1.1283    1.4990    0.0511 C.ar      1 <1>        -0.0299
      5 C5         -0.1571    3.6686    0.4831 C.ar      1 <1>        -0.0299
      6 C6          4.5954   -1.6750    2.4266 C.2       1 <1>        -0.0582
      7 C7          3.0553    0.2036    0.5504 C.ar      1 <1>        -0.0261
      8 C8          6.1229   -3.3334    1.8617 C.2       1 <1>        -0.0417
      9 C9          3.4239    1.7432   -1.2678 C.ar      1 <1>         0.0120
     10 C10         1.2685    1.7890   -0.0391 C.ar      1 <1>        -0.0551
     11 C11         2.5875    1.2406   -0.2504 C.ar      1 <1>        -0.0250
     12 C12         3.2474    2.7796   -2.2399 C.2       1 <1>         0.0220
     13 C13        -1.2797    2.8485    0.3692 C.ar      1 <1>         0.0476
     14 C14         4.3258   -0.2889    0.3099 C.ar      1 <1>         0.0086
     15 C15         4.8580   -1.3622    1.1108 C.2       1 <1>        -0.0081
     16 C16         4.3482    2.9351   -3.0533 C.2       1 <1>         0.0985
     17 C17         4.6771    1.1536   -1.3972 C.ar      1 <1>         0.0579
     18 C18         4.5601    3.8507   -4.1301 C.2       1 <1>         0.1490
     19 C19         2.3449    4.1526   -6.3950 C.3       1 <1>        -0.0295
     20 C20         3.2437    5.1382   -5.6789 C.3       1 <1>         0.0293
     21 N1          5.1734    0.1482   -0.6461 N.ar      1 <1>        -0.3428
     22 N2          2.1308    3.5393   -2.3677 N.pl3     1 <1>        -0.3436
     23 O1          5.6001    3.9261   -4.8241 O.2       1 <1>        -0.4722
     24 O2          3.4762    4.6734   -4.3450 O.3       1 <1>        -0.3922
     25 F1         -2.5032    3.3573    0.5651 F         1 <1>        -0.3379
     26 S1          5.9836   -2.4428    0.4058 S.3       1 <1>        -0.1516
     27 S2          5.5998    1.8399   -2.6565 S.3       1 <1>        -0.0447
     28 H1          5.2762   -3.2381    3.8570 H         1 <1>         0.1213
     29 H2          0.2474   -0.0850   -0.4002 H         1 <1>         0.1489
     30 H3          1.9824    3.7909    0.3712 H         1 <1>         0.1481
     31 H4         -2.0026    0.8607   -0.0374 H         1 <1>         0.1560
     32 H5         -0.2757    4.7193    0.7305 H         1 <1>         0.1566
     33 H6          3.9126   -1.1158    3.0543 H         1 <1>         0.1438
     34 H7          2.4369   -0.2077    1.3441 H         1 <1>         0.1713
     35 H8          6.7788   -4.1908    1.9170 H         1 <1>         0.1814
     36 H9          2.8115    3.1648   -6.4460 H         1 <1>         0.0585
     37 H10         1.3828    4.0631   -5.8801 H         1 <1>         0.0585
     38 H11         2.1305    4.4950   -7.4127 H         1 <1>         0.0653
     39 H12         2.7712    6.1239   -5.6315 H         1 <1>         0.1216
     40 H13         4.2048    5.2258   -6.1942 H         1 <1>         0.1216
     41 H14         1.2989    3.3818   -1.7858 H         1 <1>         0.2555
     42 H15         2.0348    4.2398   -3.1128 H         1 <1>         0.2484
@<TRIPOS>BOND
     1    1    6 1
     2    1    8 2
     3    2    4 ar
     4    2   10 ar
     5    3    5 ar
     6    3   10 ar
     7    4   13 ar
     8    5   13 ar
     9    6   15 2
    10    7   11 ar
    11    7   14 ar
    12    8   26 1
    13    9   11 ar
    14    9   12 1
    15    9   17 ar
    16   10   11 1
    17   12   16 2
    18   12   22 1
    19   13   25 1
    20   14   15 1
    21   14   21 ar
    22   15   26 1
    23   16   18 1
    24   16   27 1
    25   17   21 ar
    26   17   27 1
    27   18   23 2
    28   18   24 1
    29   19   20 1
    30   20   24 1
    31    1   28 1
    32    2   29 1
    33    3   30 1
    34    4   31 1
    35    5   32 1
    36    6   33 1
    37    7   34 1
    38    8   35 1
    39   19   36 1
    40   19   37 1
    41   19   38 1
    42   20   39 1
    43   20   40 1
    44   22   41 1
    45   22   42 1
@<TRIPOS>Similarity
1.4879
@<TRIPOS>ShapeSim
0.8501
@<TRIPOS>PharmSim
0.6378
# END
# Name:		AG-205/36992071
# Created and modified by SHAFTS on Tue Sep 23 19:00:28 2014

# 

@<TRIPOS>MOLECULE
AG-205/36992071
   42    45     0
SMALL
USER_CHARGE


@<TRIPOS>ATOM
      1 C1          5.3278   -2.8170    2.8615 C.2       1 <1>        -0.0732
      2 C2          0.1457    0.9693   -0.1534 C.ar      1 <1>        -0.0682
      3 C3          1.1170    3.1387    0.2790 C.ar      1 <1>        -0.0685
      4 C4         -1.1283    1.4989    0.0510 C.ar      1 <1>        -0.0564
      5 C5         -0.1570    3.6684    0.4835 C.ar      1 <1>        -0.0564
      6 C6          4.5950   -1.6751    2.4265 C.2       1 <1>        -0.0582
      7 C7          3.0553    0.2035    0.5502 C.ar      1 <1>        -0.0258
      8 C8          6.1225   -3.3335    1.8619 C.2       1 <1>        -0.0417
      9 C9          3.4240    1.7432   -1.2679 C.ar      1 <1>         0.0123
     10 C10         1.2685    1.7891   -0.0394 C.ar      1 <1>        -0.0578
     11 C11         2.5875    1.2407   -0.2505 C.ar      1 <1>        -0.0248
     12 C12         3.2476    2.7796   -2.2399 C.2       1 <1>         0.0222
     13 C13        -1.2797    2.8486    0.3695 C.ar      1 <1>        -0.0143
     14 C14         4.3257   -0.2889    0.3098 C.ar      1 <1>         0.0088
     15 C15         4.8578   -1.3622    1.1108 C.2       1 <1>        -0.0081
     16 C16         4.3485    2.9351   -3.0532 C.2       1 <1>         0.0986
     17 C17         4.6772    1.1536   -1.3972 C.ar      1 <1>         0.0582
     18 C18         4.5606    3.8508   -4.1299 C.2       1 <1>         0.1491
     19 C19         2.3456    4.1527   -6.3951 C.3       1 <1>        -0.0295
     20 C20         3.2443    5.1383   -5.6790 C.3       1 <1>         0.0293
     21 N1          5.1733    0.1482   -0.6460 N.ar      1 <1>        -0.3426
     22 N2          2.1311    3.5393   -2.3679 N.pl3     1 <1>        -0.3435
     23 O1          5.6005    3.9261   -4.8240 O.2       1 <1>        -0.4721
     24 O2          3.4767    4.6735   -4.3450 O.3       1 <1>        -0.3922
     25 S1          5.9835   -2.4429    0.4058 S.3       1 <1>        -0.1515
     26 S2          5.6000    1.8399   -2.6562 S.3       1 <1>        -0.0446
     27 Cl1        -2.8520    3.5010    0.6231 Cl        1 <1>        -0.1804
     28 H1          5.2756   -3.2381    3.8570 H         1 <1>         0.1213
     29 H2          0.2474   -0.0847   -0.4008 H         1 <1>         0.1450
     30 H3          1.9826    3.7904    0.3724 H         1 <1>         0.1442
     31 H4         -1.9947    0.8483   -0.0391 H         1 <1>         0.1466
     32 H5         -0.2599    4.7216    0.7323 H         1 <1>         0.1473
     33 H6          3.9122   -1.1159    3.0542 H         1 <1>         0.1439
     34 H7          2.4366   -0.2077    1.3439 H         1 <1>         0.1715
     35 H8          6.7784   -4.1908    1.9171 H         1 <1>         0.1815
     36 H9          2.8121    3.1650   -6.4460 H         1 <1>         0.0585
     37 H10         1.3834    4.0632   -5.8803 H         1 <1>         0.0585
     38 H11         2.1313    4.4951   -7.4129 H         1 <1>         0.0653
     39 H12         2.7718    6.1241   -5.6315 H         1 <1>         0.1216
     40 H13         4.2055    5.2259   -6.1941 H         1 <1>         0.1216
     41 H14         1.2991    3.3818   -1.7861 H         1 <1>         0.2557
     42 H15         2.0352    4.2399   -3.1130 H         1 <1>         0.2486
@<TRIPOS>BOND
     1    1    6 1
     2    1    8 2
     3    2    4 ar
     4    2   10 ar
     5    3    5 ar
     6    3   10 ar
     7    4   13 ar
     8    5   13 ar
     9    6   15 2
    10    7   11 ar
    11    7   14 ar
    12    8   25 1
    13    9   11 ar
    14    9   12 1
    15    9   17 ar
    16   10   11 1
    17   12   16 2
    18   12   22 1
    19   13   27 1
    20   14   15 1
    21   14   21 ar
    22   15   25 1
    23   16   18 1
    24   16   26 1
    25   17   21 ar
    26   17   26 1
    27   18   23 2
    28   18   24 1
    29   19   20 1
    30   20   24 1
    31    1   28 1
    32    2   29 1
    33    3   30 1
    34    4   31 1
    35    5   32 1
    36    6   33 1
    37    7   34 1
    38    8   35 1
    39   19   36 1
    40   19   37 1
    41   19   38 1
    42   20   39 1
    43   20   40 1
    44   22   41 1
    45   22   42 1
@<TRIPOS>Similarity
1.4852
@<TRIPOS>ShapeSim
0.8474
@<TRIPOS>PharmSim
0.6378
# END
# Name:		AG-690/40749964
# Created and modified by SHAFTS on Tue Sep 23 19:00:28 2014

# 

@<TRIPOS>MOLECULE
AG-690/40749964
   45    47     0
SMALL
USER_CHARGE


@<TRIPOS>ATOM
      1 C1          3.1630    2.7420   -2.1470 C.1       1 <1>         0.0363
      2 C2          5.0286   -1.2607    2.5372 C.ar      1 <1>        -0.0724
      3 C3          5.2699   -2.6504    0.5757 C.ar      1 <1>        -0.0752
      4 C4          0.2803    0.9407   -0.2042 C.ar      1 <1>        -0.0667
      5 C5          1.2587    3.1067    0.2294 C.ar      1 <1>        -0.0653
      6 C6          5.5118   -2.2997    3.3327 C.ar      1 <1>        -0.0935
      7 C7          5.7530   -3.6894    1.3712 C.ar      1 <1>        -0.0947
      8 C8         -0.9924    1.4761   -0.0067 C.ar      1 <1>        -0.0562
      9 C9         -0.0140    3.6421    0.4269 C.ar      1 <1>        -0.0556
     10 C10         3.1416    0.1646    0.5386 C.ar      1 <1>        -0.0230
     11 C11         3.5775    1.6727   -1.2834 C.ar      1 <1>         0.0971
     12 C12         1.4060    1.7560   -0.0861 C.ar      1 <1>        -0.0468
     13 C13         4.9077   -1.4362    1.1587 C.ar      1 <1>        -0.0489
     14 C14         2.7263    1.2005   -0.2905 C.ar      1 <1>         0.0093
     15 C15         5.8740   -3.5140    2.7497 C.ar      1 <1>        -0.1087
     16 C16        -1.1397    2.8268    0.3088 C.ar      1 <1>        -0.0144
     17 C17         4.4073   -0.3611    0.3355 C.ar      1 <1>        -0.0124
     18 C18         4.8238    1.0797   -1.4048 C.ar      1 <1>         0.0499
     19 C19         6.3904   -4.6249    3.6003 C.3       1 <1>        -0.0425
     20 C20         6.8065    2.8553   -0.3583 C.3       1 <1>        -0.0445
     21 C21         8.1573    0.8774   -1.1356 C.3       1 <1>        -0.0429
     22 C22         7.3611    2.1046   -1.5631 C.3       1 <1>        -0.0051
     23 N1          2.8280    3.6065   -2.8449 N.1       1 <1>        -0.3786
     24 N2          5.2623    0.0714   -0.6183 N.ar      1 <1>        -0.3581
     25 S1          6.0064    1.6046   -2.6452 S.3       1 <1>        -0.1575
     26 Cl1        -2.7104    3.4863    0.5539 Cl        1 <1>        -0.1814
     27 H1          4.7498   -0.3204    3.0067 H         1 <1>         0.1440
     28 H2          5.1819   -2.8024   -0.4975 H         1 <1>         0.1359
     29 H3          0.3789   -0.1141   -0.4495 H         1 <1>         0.1407
     30 H4          2.1266    3.7550    0.3258 H         1 <1>         0.1459
     31 H5          5.6017   -2.1545    4.4060 H         1 <1>         0.1201
     32 H6          6.0334   -4.6320    0.9085 H         1 <1>         0.1201
     33 H7         -1.8611    0.8289   -0.1000 H         1 <1>         0.1468
     34 H8         -0.1138    4.6963    0.6735 H         1 <1>         0.1474
     35 H9          2.4959   -0.2224    1.3223 H         1 <1>         0.1724
     36 H10         5.5635   -5.2570    3.9463 H         1 <1>         0.0615
     37 H11         7.1007   -5.2531    3.0473 H         1 <1>         0.0588
     38 H12         6.9246   -4.2391    4.4785 H         1 <1>         0.0586
     39 H13         6.1516    2.2019    0.2289 H         1 <1>         0.0470
     40 H14         7.6101    3.1928    0.3056 H         1 <1>         0.0538
     41 H15         6.2169    3.7294   -0.6573 H         1 <1>         0.0442
     42 H16         7.5231    0.1936   -0.5604 H         1 <1>         0.0492
     43 H17         9.0028    1.1535   -0.4958 H         1 <1>         0.0558
     44 H18         8.5446    0.3210   -1.9967 H         1 <1>         0.0492
     45 H19         8.0119    2.7740   -2.1355 H         1 <1>         0.1002
@<TRIPOS>BOND
     1    1   11 1
     2    1   23 3
     3    2    6 ar
     4    2   13 ar
     5    3    7 ar
     6    3   13 ar
     7    4    8 ar
     8    4   12 ar
     9    5    9 ar
    10    5   12 ar
    11    6   15 ar
    12    7   15 ar
    13    8   16 ar
    14    9   16 ar
    15   10   14 ar
    16   10   17 ar
    17   11   14 ar
    18   11   18 ar
    19   12   14 1
    20   13   17 1
    21   15   19 1
    22   16   26 1
    23   17   24 ar
    24   18   24 ar
    25   18   25 1
    26   20   22 1
    27   21   22 1
    28   22   25 1
    29    2   27 1
    30    3   28 1
    31    4   29 1
    32    5   30 1
    33    6   31 1
    34    7   32 1
    35    8   33 1
    36    9   34 1
    37   10   35 1
    38   19   36 1
    39   19   37 1
    40   19   38 1
    41   20   39 1
    42   20   40 1
    43   20   41 1
    44   21   42 1
    45   21   43 1
    46   21   44 1
    47   22   45 1
@<TRIPOS>Similarity
1.4843
@<TRIPOS>ShapeSim
0.8561
@<TRIPOS>PharmSim
0.6282
# END
# Name:		AG-205/33140043
# Created and modified by SHAFTS on Tue Sep 23 19:00:28 2014

# 

@<TRIPOS>MOLECULE
AG-205/33140043
   49    53     0
SMALL
USER_CHARGE


@<TRIPOS>ATOM
      1 C1          5.8673   -3.4441    2.6781 C.ar      1 <1>        -0.0958
      2 C2          5.4970   -2.2396    3.2763 C.ar      1 <1>        -0.0917
      3 C3          5.7301   -3.6095    1.2999 C.ar      1 <1>        -0.0898
      4 C4          4.9895   -1.2007    2.4962 C.ar      1 <1>        -0.0745
      5 C5          5.2224   -2.5705    0.5199 C.ar      1 <1>        -0.0709
      6 C6          0.1456    0.9691   -0.1527 C.ar      1 <1>        -0.0686
      7 C7          1.1171    3.1387    0.2788 C.ar      1 <1>        -0.0735
      8 C8         -1.1283    1.4991    0.0511 C.ar      1 <1>        -0.0583
      9 C9         -0.1569    3.6686    0.4827 C.ar      1 <1>        -0.0652
     10 C10         3.0558    0.2035    0.5506 C.ar      1 <1>        -0.0352
     11 C11         3.4238    1.7431   -1.2676 C.ar      1 <1>        -0.0005
     12 C12         1.2684    1.7890   -0.0390 C.ar      1 <1>        -0.0629
     13 C13         4.8521   -1.3660    1.1180 C.ar      1 <1>        -0.0471
     14 C14         2.5876    1.2404   -0.2500 C.ar      1 <1>        -0.0329
     15 C15         3.2471    2.7795   -2.2397 C.2       1 <1>        -0.0007
     16 C16        -1.2797    2.8488    0.3688 C.ar      1 <1>        -0.0371
     17 C17         4.3262   -0.2889    0.3099 C.ar      1 <1>        -0.0116
     18 C18         4.3476    2.9350   -3.0533 C.2       1 <1>         0.0456
     19 C19         4.6770    1.1536   -1.3972 C.ar      1 <1>         0.0416
     20 C20         4.5596    3.8505   -4.1300 C.2       1 <1>         0.0476
     21 C21         2.9607    5.7526   -4.8892 C.3       1 <1>        -0.0294
     22 C22         3.5748    5.1803   -6.1331 C.3       1 <1>        -0.0296
     23 C23         3.3604    4.3069   -4.9318 C.3       1 <1>         0.0121
     24 C24        -2.6055    4.7534    0.8891 C.3       1 <1>         0.0116
     25 N1          5.1735    0.1482   -0.6462 N.ar      1 <1>        -0.3557
     26 N2          2.1304    3.5391   -2.3677 N.pl3     1 <1>        -0.3488
     27 O1          5.6595    4.3186   -4.4869 O.2       1 <1>        -0.5266
     28 O2         -2.5229    3.3658    0.5670 O.3       1 <1>        -0.4626
     29 S1          5.5994    1.8400   -2.6567 S.3       1 <1>        -0.0779
     30 H1          6.2640   -4.2522    3.2854 H         1 <1>         0.1197
     31 H2          5.6054   -2.1100    4.3492 H         1 <1>         0.1196
     32 H3          6.0195   -4.5466    0.8333 H         1 <1>         0.1210
     33 H4          4.7055   -0.2676    2.9775 H         1 <1>         0.1347
     34 H5          5.1218   -2.7138   -0.5533 H         1 <1>         0.1450
     35 H6          0.2474   -0.0849   -0.3999 H         1 <1>         0.1451
     36 H7          1.9826    3.7907    0.3711 H         1 <1>         0.1388
     37 H8         -1.9993    0.8555   -0.0392 H         1 <1>         0.1463
     38 H9         -0.2688    4.7209    0.7298 H         1 <1>         0.1296
     39 H10         2.4376   -0.2079    1.3444 H         1 <1>         0.1657
     40 H11         3.5641    6.4279   -4.2949 H         1 <1>         0.0677
     41 H12         1.9067    6.0012   -4.9170 H         1 <1>         0.0670
     42 H13         2.9326    5.0475   -6.9953 H         1 <1>         0.0676
     43 H14         4.5912    5.4685   -6.3725 H         1 <1>         0.0661
     44 H15         2.5563    3.5815   -4.9935 H         1 <1>         0.0994
     45 H16        -3.6529    5.0358    1.0212 H         1 <1>         0.1339
     46 H17        -2.1570    5.3421    0.0850 H         1 <1>         0.1099
     47 H18        -2.0612    4.9356    1.8187 H         1 <1>         0.1100
     48 H19         1.2986    3.3818   -1.7858 H         1 <1>         0.2478
     49 H20         2.0346    4.2397   -3.1129 H         1 <1>         0.2532
@<TRIPOS>BOND
     1    1    2 ar
     2    1    3 ar
     3    2    4 ar
     4    3    5 ar
     5    4   13 ar
     6    5   13 ar
     7    6    8 ar
     8    6   12 ar
     9    7    9 ar
    10    7   12 ar
    11    8   16 ar
    12    9   16 ar
    13   10   14 ar
    14   10   17 ar
    15   11   14 ar
    16   11   15 1
    17   11   19 ar
    18   12   14 1
    19   13   17 1
    20   15   18 2
    21   15   26 1
    22   16   28 1
    23   17   25 ar
    24   18   20 1
    25   18   29 1
    26   19   25 ar
    27   19   29 1
    28   20   23 1
    29   20   27 2
    30   21   22 1
    31   21   23 1
    32   22   23 1
    33   24   28 1
    34    1   30 1
    35    2   31 1
    36    3   32 1
    37    4   33 1
    38    5   34 1
    39    6   35 1
    40    7   36 1
    41    8   37 1
    42    9   38 1
    43   10   39 1
    44   21   40 1
    45   21   41 1
    46   22   42 1
    47   22   43 1
    48   23   44 1
    49   24   45 1
    50   24   46 1
    51   24   47 1
    52   26   48 1
    53   26   49 1
@<TRIPOS>Similarity
1.4833
@<TRIPOS>ShapeSim
0.8167
@<TRIPOS>PharmSim
0.6666
# END
# Name:		AO-081/15246973
# Created and modified by SHAFTS on Tue Sep 23 19:00:28 2014

# 

@<TRIPOS>MOLECULE
AO-081/15246973
   43    46     0
SMALL
USER_CHARGE


@<TRIPOS>ATOM
      1 C1          5.9443   -3.0837    2.2602 C.ar      1 <1>        -0.0915
      2 C2          6.1329   -2.7968    0.9082 C.ar      1 <1>        -0.0819
      3 C3          5.0108   -2.3610    3.0030 C.ar      1 <1>        -0.0826
      4 C4         -0.3238    1.2807   -0.4508 C.ar      1 <1>        -0.0703
      5 C5          0.5942    2.8919    1.0979 C.ar      1 <1>        -0.0706
      6 C6         -1.5893    1.8441   -0.2869 C.ar      1 <1>        -0.0927
      7 C7         -0.6713    3.4554    1.2618 C.ar      1 <1>        -0.0930
      8 C8          5.3878   -1.7871    0.2991 C.ar      1 <1>        -0.0556
      9 C9          4.2658   -1.3513    2.3938 C.ar      1 <1>        -0.0565
     10 C10         4.4071    2.4843   -2.6228 C.ar      1 <1>        -0.0643
     11 C11         3.0526    1.5795   -0.8789 C.ar      1 <1>         0.0072
     12 C12         0.7679    1.8046    0.2416 C.ar      1 <1>        -0.0345
     13 C13        -1.7629    2.9314    0.5694 C.ar      1 <1>        -0.1081
     14 C14         3.2000    2.4999   -1.9239 C.ar      1 <1>        -0.0581
     15 C15         4.4543   -1.0642    1.0419 C.ar      1 <1>        -0.0122
     16 C16         2.0753    1.2227    0.0714 C.2       1 <1>         0.0255
     17 C17         5.3874    1.5699   -2.2522 C.ar      1 <1>        -0.0481
     18 C18         4.1097    0.7228   -0.6140 C.ar      1 <1>         0.0348
     19 C19        -3.1161    3.5339    0.7429 C.3       1 <1>        -0.0425
     20 C20         2.1452    3.4803   -2.3184 C.3       1 <1>        -0.0243
     21 C21         6.6759    1.5648   -3.0113 C.3       1 <1>        -0.0102
     22 N1          2.4704    0.2276    0.8725 N.2       1 <1>        -0.3180
     23 N2          5.2921    0.6618   -1.2509 N.ar      1 <1>        -0.3741
     24 N3          3.7098   -0.0551    0.4322 N.pl3     1 <1>        -0.2878
     25 H1          6.5229   -3.8710    2.7344 H         1 <1>         0.1190
     26 H2          6.8587   -3.3603    0.3294 H         1 <1>         0.1289
     27 H3          4.8635   -2.5860    4.0555 H         1 <1>         0.1277
     28 H4         -0.2053    0.4330   -1.1215 H         1 <1>         0.1389
     29 H5          1.4353    3.3118    1.6447 H         1 <1>         0.1389
     30 H6         -2.4343    1.4305   -0.8307 H         1 <1>         0.1218
     31 H7         -0.7983    4.3025    1.9307 H         1 <1>         0.1217
     32 H8          5.5439   -1.5741   -0.7556 H         1 <1>         0.1497
     33 H9          3.5409   -0.7960    2.9844 H         1 <1>         0.1475
     34 H10         4.5782    3.1766   -3.4425 H         1 <1>         0.1393
     35 H11        -3.6495    3.0444    1.5670 H         1 <1>         0.0611
     36 H12        -3.0493    4.6077    0.9609 H         1 <1>         0.0586
     37 H13        -3.7176    3.4321   -0.1700 H         1 <1>         0.0585
     38 H14         1.4859    3.0445   -3.0781 H         1 <1>         0.0758
     39 H15         1.5359    3.7763   -1.4553 H         1 <1>         0.0716
     40 H16         2.5885    4.3979   -2.7253 H         1 <1>         0.0742
     41 H17         7.3922    2.2495   -2.5443 H         1 <1>         0.0934
     42 H18         7.1148    0.5606   -3.0365 H         1 <1>         0.0912
     43 H19         6.5217    1.8738   -4.0518 H         1 <1>         0.0919
@<TRIPOS>BOND
     1    1    2 ar
     2    1    3 ar
     3    2    8 ar
     4    3    9 ar
     5    4    6 ar
     6    4   12 ar
     7    5    7 ar
     8    5   12 ar
     9    6   13 ar
    10    7   13 ar
    11    8   15 ar
    12    9   15 ar
    13   10   14 ar
    14   10   17 ar
    15   11   14 ar
    16   11   16 1
    17   11   18 ar
    18   12   16 1
    19   13   19 1
    20   14   20 1
    21   15   24 1
    22   16   22 2
    23   17   21 1
    24   17   23 ar
    25   18   23 ar
    26   18   24 1
    27   22   24 1
    28    1   25 1
    29    2   26 1
    30    3   27 1
    31    4   28 1
    32    5   29 1
    33    6   30 1
    34    7   31 1
    35    8   32 1
    36    9   33 1
    37   10   34 1
    38   19   35 1
    39   19   36 1
    40   19   37 1
    41   20   38 1
    42   20   39 1
    43   20   40 1
    44   21   41 1
    45   21   42 1
    46   21   43 1
@<TRIPOS>Similarity
1.4787
@<TRIPOS>ShapeSim
0.8764
@<TRIPOS>PharmSim
0.6023
# END
# Name:		AG-690/11481222
# Created and modified by SHAFTS on Tue Sep 23 19:00:28 2014

# 

@<TRIPOS>MOLECULE
AG-690/11481222
   39    41     0
SMALL
USER_CHARGE


@<TRIPOS>ATOM
      1 C1          3.0966    2.9091   -2.2867 C.1       1 <1>         0.0464
      2 C2          5.9137   -3.3432    2.5478 C.ar      1 <1>        -0.0957
      3 C3          5.0001   -2.4409    3.0924 C.ar      1 <1>        -0.0914
      4 C4          6.3228   -3.2067    1.2212 C.ar      1 <1>        -0.0902
      5 C5          4.4954   -1.4019    2.3103 C.ar      1 <1>        -0.0745
      6 C6          5.8180   -2.1678    0.4392 C.ar      1 <1>        -0.0718
      7 C7          0.2325    1.0697   -0.3084 C.ar      1 <1>        -0.0678
      8 C8          1.1934    3.2438    0.1244 C.ar      1 <1>        -0.0663
      9 C9         -1.0435    1.5912   -0.0951 C.ar      1 <1>        -0.0641
     10 C10        -0.0826    3.7653    0.3379 C.ar      1 <1>        -0.0635
     11 C11         3.1127    0.3192    0.3975 C.ar      1 <1>        -0.0200
     12 C12         3.5067    1.8432   -1.4210 C.ar      1 <1>         0.1213
     13 C13         1.3510    1.8960   -0.1986 C.ar      1 <1>        -0.0437
     14 C14         4.9044   -1.2654    0.9837 C.ar      1 <1>        -0.0474
     15 C15         2.6743    1.3550   -0.4200 C.ar      1 <1>         0.0197
     16 C16        -1.2011    2.9389    0.2281 C.ar      1 <1>        -0.0354
     17 C17         4.3820   -0.1898    0.1747 C.ar      1 <1>        -0.0047
     18 C18         4.7585    1.2661   -1.5622 C.ar      1 <1>         0.0941
     19 C19         7.8039    0.7835   -2.2601 C.3       1 <1>        -0.0295
     20 C20         6.5254    0.7572   -3.0705 C.3       1 <1>         0.0259
     21 N1          2.7644    3.7723   -2.9876 N.1       1 <1>        -0.3792
     22 N2          5.2191    0.2585   -0.7874 N.ar      1 <1>        -0.3355
     23 O1          5.6174    1.7113   -2.5341 O.3       1 <1>        -0.4109
     24 Br1        -2.9297    3.6464    0.5164 Br        1 <1>        -0.1381
     25 H1          6.3078   -4.1511    3.1574 H         1 <1>         0.1198
     26 H2          4.6828   -2.5460    4.1257 H         1 <1>         0.1202
     27 H3          7.0351   -3.9081    0.7970 H         1 <1>         0.1203
     28 H4          3.7839   -0.7064    2.7495 H         1 <1>         0.1359
     29 H5          6.1466   -2.0735   -0.5931 H         1 <1>         0.1435
     30 H6          0.3391    0.0171   -0.5596 H         1 <1>         0.1409
     31 H7          2.0553    3.9008    0.2129 H         1 <1>         0.1462
     32 H8         -1.9047    0.9341   -0.1851 H         1 <1>         0.1449
     33 H9         -0.1882    4.8173    0.5888 H         1 <1>         0.1455
     34 H10         2.4812   -0.0799    1.1867 H         1 <1>         0.1696
     35 H11         8.2713    1.7713   -2.3007 H         1 <1>         0.0671
     36 H12         7.6032    0.5300   -1.2141 H         1 <1>         0.0582
     37 H13         8.5147    0.0405   -2.6368 H         1 <1>         0.0582
     38 H14         6.0631   -0.2334   -3.0256 H         1 <1>         0.1260
     39 H15         6.7277    1.0114   -4.1152 H         1 <1>         0.1260
@<TRIPOS>BOND
     1    1   12 1
     2    1   21 3
     3    2    3 ar
     4    2    4 ar
     5    3    5 ar
     6    4    6 ar
     7    5   14 ar
     8    6   14 ar
     9    7    9 ar
    10    7   13 ar
    11    8   10 ar
    12    8   13 ar
    13    9   16 ar
    14   10   16 ar
    15   11   15 ar
    16   11   17 ar
    17   12   15 ar
    18   12   18 ar
    19   13   15 1
    20   14   17 1
    21   16   24 1
    22   17   22 ar
    23   18   22 ar
    24   18   23 1
    25   19   20 1
    26   20   23 1
    27    2   25 1
    28    3   26 1
    29    4   27 1
    30    5   28 1
    31    6   29 1
    32    7   30 1
    33    8   31 1
    34    9   32 1
    35   10   33 1
    36   11   34 1
    37   19   35 1
    38   19   36 1
    39   19   37 1
    40   20   38 1
    41   20   39 1
@<TRIPOS>Similarity
1.4786
@<TRIPOS>ShapeSim
0.8924
@<TRIPOS>PharmSim
0.5862
# END
# Name:		AK-777/36504058
# Created and modified by SHAFTS on Tue Sep 23 19:00:28 2014

# 

@<TRIPOS>MOLECULE
AK-777/36504058
   45    49     0
SMALL
USER_CHARGE


@<TRIPOS>ATOM
      1 C1          5.8670   -3.4442    2.6780 C.ar      1 <1>        -0.0954
      2 C2          5.4967   -2.2399    3.2762 C.ar      1 <1>        -0.0895
      3 C3          5.7298   -3.6096    1.2998 C.ar      1 <1>        -0.0915
      4 C4          4.9893   -1.2008    2.4962 C.ar      1 <1>        -0.0707
      5 C5          5.2222   -2.5706    0.5197 C.ar      1 <1>        -0.0744
      6 C6          1.0904    2.8592    0.8377 C.ar      1 <1>        -0.0605
      7 C7          0.1725    1.2486   -0.7117 C.ar      1 <1>        -0.0608
      8 C8         -0.1837    3.3892    1.0416 C.ar      1 <1>        -0.0303
      9 C9         -1.1016    1.7785   -0.5079 C.ar      1 <1>        -0.0303
     10 C10         3.0557    0.2035    0.5505 C.ar      1 <1>        -0.0337
     11 C11         3.4239    1.7431   -1.2677 C.ar      1 <1>         0.0008
     12 C12         1.2684    1.7890   -0.0390 C.ar      1 <1>        -0.0569
     13 C13         4.8519   -1.3662    1.1180 C.ar      1 <1>        -0.0467
     14 C14         2.5875    1.2405   -0.2501 C.ar      1 <1>        -0.0305
     15 C15         3.2471    2.7795   -2.2396 C.2       1 <1>        -0.0002
     16 C16        -1.2797    2.8487    0.3690 C.ar      1 <1>         0.0472
     17 C17         4.3261   -0.2890    0.3099 C.ar      1 <1>        -0.0106
     18 C18         4.3478    2.9351   -3.0532 C.2       1 <1>         0.0468
     19 C19         4.6770    1.1535   -1.3972 C.ar      1 <1>         0.0430
     20 C20         4.5598    3.8506   -4.1299 C.2       1 <1>         0.0487
     21 C21         6.0586    2.8253   -5.9881 C.3       1 <1>        -0.0293
     22 C22         5.9486    4.2930   -6.2807 C.3       1 <1>        -0.0294
     23 C23         5.8820    3.8033   -4.8638 C.3       1 <1>         0.0125
     24 N1          5.1734    0.1482   -0.6462 N.ar      1 <1>        -0.3545
     25 N2          2.1306    3.5393   -2.3676 N.pl3     1 <1>        -0.3490
     26 O1          3.7476    4.7079   -4.5321 O.2       1 <1>        -0.5255
     27 F1         -2.5032    3.3577    0.5648 F         1 <1>        -0.3383
     28 S1          5.5995    1.8400   -2.6566 S.3       1 <1>        -0.0761
     29 H1          6.2637   -4.2525    3.2853 H         1 <1>         0.1202
     30 H2          5.6050   -2.1103    4.3491 H         1 <1>         0.1214
     31 H3          6.0192   -4.5468    0.8331 H         1 <1>         0.1200
     32 H4          4.7053   -0.2678    2.9775 H         1 <1>         0.1454
     33 H5          5.1216   -2.7139   -0.5534 H         1 <1>         0.1346
     34 H6          1.9347    3.2916    1.3695 H         1 <1>         0.1481
     35 H7          0.2950    0.4143   -1.3982 H         1 <1>         0.1475
     36 H8         -0.3227    4.2225    1.7240 H         1 <1>         0.1556
     37 H9         -1.9555    1.3583   -1.0311 H         1 <1>         0.1561
     38 H10         2.4374   -0.2080    1.3442 H         1 <1>         0.1672
     39 H11         5.2169    2.1956   -6.2489 H         1 <1>         0.0678
     40 H12         7.0261    2.3568   -6.1220 H         1 <1>         0.0672
     41 H13         6.8420    4.8077   -6.6128 H         1 <1>         0.0678
     42 H14         5.0322    4.6496   -6.7349 H         1 <1>         0.0664
     43 H15         6.7504    3.9910   -4.2416 H         1 <1>         0.0995
     44 H16         1.2987    3.3819   -1.7858 H         1 <1>         0.2464
     45 H17         2.0348    4.2398   -3.1129 H         1 <1>         0.2535
@<TRIPOS>BOND
     1    1    2 ar
     2    1    3 ar
     3    2    4 ar
     4    3    5 ar
     5    4   13 ar
     6    5   13 ar
     7    6    8 ar
     8    6   12 ar
     9    7    9 ar
    10    7   12 ar
    11    8   16 ar
    12    9   16 ar
    13   10   14 ar
    14   10   17 ar
    15   11   14 ar
    16   11   15 1
    17   11   19 ar
    18   12   14 1
    19   13   17 1
    20   15   18 2
    21   15   25 1
    22   16   27 1
    23   17   24 ar
    24   18   20 1
    25   18   28 1
    26   19   24 ar
    27   19   28 1
    28   20   23 1
    29   20   26 2
    30   21   22 1
    31   21   23 1
    32   22   23 1
    33    1   29 1
    34    2   30 1
    35    3   31 1
    36    4   32 1
    37    5   33 1
    38    6   34 1
    39    7   35 1
    40    8   36 1
    41    9   37 1
    42   10   38 1
    43   21   39 1
    44   21   40 1
    45   22   41 1
    46   22   42 1
    47   23   43 1
    48   25   44 1
    49   25   45 1
@<TRIPOS>Similarity
1.4743
@<TRIPOS>ShapeSim
0.8095
@<TRIPOS>PharmSim
0.6647
# END
# Name:		AM-807/41930361
# Created and modified by SHAFTS on Tue Sep 23 19:00:28 2014

# 

@<TRIPOS>MOLECULE
AM-807/41930361
   40    44     0
SMALL
USER_CHARGE


@<TRIPOS>ATOM
      1 C1          5.8516   -3.4418    2.6871 C.ar      1 <1>        -0.0990
      2 C2          5.4832   -2.2356    3.2826 C.ar      1 <1>        -0.0922
      3 C3          5.7168   -3.6089    1.3088 C.ar      1 <1>        -0.0943
      4 C4          4.9797   -1.1965    2.5000 C.ar      1 <1>        -0.0727
      5 C5          5.2135   -2.5699    0.5261 C.ar      1 <1>        -0.0765
      6 C6          1.0890    2.8603    0.8379 C.ar      1 <1>        -0.0704
      7 C7          0.1720    1.2491   -0.7115 C.ar      1 <1>        -0.0703
      8 C8         -0.1858    3.3876    1.0438 C.ar      1 <1>        -0.0563
      9 C9         -1.1028    1.7766   -0.5055 C.ar      1 <1>        -0.0572
     10 C10         3.0533    0.2089    0.5489 C.ar      1 <1>        -0.0375
     11 C11         3.4249    1.7460   -1.2711 C.ar      1 <1>         0.0085
     12 C12         1.2680    1.7909   -0.0398 C.ar      1 <1>        -0.0614
     13 C13         4.8449   -1.3637    1.1218 C.ar      1 <1>        -0.0494
     14 C14         2.5871    1.2455   -0.2534 C.ar      1 <1>        -0.0318
     15 C15         3.2752    2.7706   -2.2479 C.2       1 <1>         0.0195
     16 C16        -1.2816    2.8459    0.3722 C.ar      1 <1>        -0.0152
     17 C17         4.3232   -0.2863    0.3109 C.ar      1 <1>        -0.0143
     18 C18         4.3785    2.9157   -3.0543 C.2       1 <1>         0.0528
     19 C19         4.6809    1.1519   -1.3983 C.ar      1 <1>         0.0459
     20 C20         3.2213    4.7430   -4.2677 C.2       1 <1>        -0.0240
     21 C21         4.4534    3.8933   -4.1165 C.2       1 <1>         0.0435
     22 C22         2.1587    4.5585   -3.4436 C.2       1 <1>        -0.0342
     23 N1          5.1731    0.1467   -0.6444 N.ar      1 <1>        -0.3565
     24 N2          2.2006    3.5760   -2.4469 N.pl3     1 <1>        -0.3282
     25 O1          1.0528    5.1611   -3.4119 O.3       1 <1>        -0.5164
     26 O2          5.4102    4.0641   -4.8655 O.2       1 <1>        -0.5639
     27 S1          5.6165    1.8322   -2.6616 S.3       1 <1>        -0.0706
     28 Cl1        -2.8539    3.4983    0.6257 Cl        1 <1>        -0.1831
     29 H1          6.2453   -4.2501    3.2964 H         1 <1>         0.1139
     30 H2          5.5896   -2.1047    4.3556 H         1 <1>         0.1177
     31 H3          6.0050   -4.5474    0.8442 H         1 <1>         0.1160
     32 H4          4.6969   -0.2621    2.9793 H         1 <1>         0.1440
     33 H5          5.1147   -2.7146   -0.5470 H         1 <1>         0.1328
     34 H6          1.9334    3.2936    1.3687 H         1 <1>         0.1403
     35 H7          0.2954    0.4160   -1.3996 H         1 <1>         0.1420
     36 H8         -0.3107    4.2224    1.7293 H         1 <1>         0.1501
     37 H9         -1.9475    1.3452   -1.0366 H         1 <1>         0.1461
     38 H10         2.4341   -0.2007    1.3432 H         1 <1>         0.1615
     39 H11         3.2280    5.4925   -5.0528 H         1 <1>         0.1319
     40 H12         1.3565    3.5209   -1.8871 H         1 <1>         0.3086
@<TRIPOS>BOND
     1    1    2 ar
     2    1    3 ar
     3    2    4 ar
     4    3    5 ar
     5    4   13 ar
     6    5   13 ar
     7    6    8 ar
     8    6   12 ar
     9    7    9 ar
    10    7   12 ar
    11    8   16 ar
    12    9   16 ar
    13   10   14 ar
    14   10   17 ar
    15   11   14 ar
    16   11   15 1
    17   11   19 ar
    18   12   14 1
    19   13   17 1
    20   15   18 2
    21   15   24 1
    22   16   28 1
    23   17   23 ar
    24   18   21 1
    25   18   27 1
    26   19   23 ar
    27   19   27 1
    28   20   21 1
    29   20   22 2
    30   21   26 2
    31   22   24 1
    32   22   25 1
    33    1   29 1
    34    2   30 1
    35    3   31 1
    36    4   32 1
    37    5   33 1
    38    6   34 1
    39    7   35 1
    40    8   36 1
    41    9   37 1
    42   10   38 1
    43   20   39 1
    44   24   40 1
@<TRIPOS>Similarity
1.4698
@<TRIPOS>ShapeSim
0.8061
@<TRIPOS>PharmSim
0.6637
# END
# Name:		AI-060/41884474
# Created and modified by SHAFTS on Tue Sep 23 19:00:28 2014

# 

@<TRIPOS>MOLECULE
AI-060/41884474
   39    42     0
SMALL
USER_CHARGE


@<TRIPOS>ATOM
      1 C1          5.0701   -1.1962    2.4464 C.ar      1 <1>        -0.0711
      2 C2          5.3251   -2.6157    0.5082 C.ar      1 <1>        -0.0762
      3 C3          1.3910    2.9209    0.5983 C.ar      1 <1>        -0.0614
      4 C4          0.4711    1.3081   -0.9477 C.ar      1 <1>        -0.0690
      5 C5          5.5102   -2.2357    3.2656 C.ar      1 <1>        -0.0949
      6 C6          5.7654   -3.6553    1.3274 C.ar      1 <1>        -0.0979
      7 C7          0.1206    3.4658    0.7857 C.ar      1 <1>        -0.0568
      8 C8         -0.7992    1.8530   -0.7603 C.ar      1 <1>        -0.0625
      9 C9          3.2636    0.2452    0.3877 C.ar      1 <1>        -0.0358
     10 C10         1.5660    1.8421   -0.2684 C.ar      1 <1>        -0.0498
     11 C11         4.9774   -1.3862    1.0676 C.ar      1 <1>        -0.0480
     12 C12         2.8869    1.2760   -0.4638 C.ar      1 <1>        -0.0085
     13 C13         3.7804    1.7048   -1.4419 C.ar      1 <1>         0.0580
     14 C14         5.8579   -3.4652    2.7063 C.ar      1 <1>        -0.1117
     15 C15        -0.9744    2.9318    0.1065 C.ar      1 <1>        -0.0216
     16 C16         4.5216   -0.3102    0.2196 C.ar      1 <1>        -0.0124
     17 C17         5.0277    1.0919   -1.5432 C.ar      1 <1>         0.0512
     18 C18         3.4401    2.7945   -2.3757 C.2       1 <1>         0.1070
     19 C19         5.6628    2.4347   -3.3195 C.2       1 <1>        -0.0322
     20 C20         6.3283   -4.5767    3.5823 C.3       1 <1>        -0.0450
     21 N1          5.4092    0.0865   -0.7216 N.ar      1 <1>        -0.3519
     22 N2          5.9790    1.4751   -2.5070 N.2       1 <1>        -0.3569
     23 N3          4.4447    3.0922   -3.2821 N.am      1 <1>        -0.2831
     24 O1          2.3687    3.3884   -2.3610 O.2       1 <1>        -0.5053
     25 S1          6.9250    2.8783   -4.5288 S.3       1 <1>        -0.3382
     26 Cl1        -2.5413    3.6056    0.3373 Cl        1 <1>        -0.1943
     27 H1          4.8020   -0.2438    2.8976 H         1 <1>         0.1484
     28 H2          5.2590   -2.7791   -0.5649 H         1 <1>         0.1340
     29 H3          2.2347    3.3482    1.1347 H         1 <1>         0.1550
     30 H4          0.5916    0.4679   -1.6274 H         1 <1>         0.1386
     31 H5          5.5781   -2.0790    4.3390 H         1 <1>         0.1171
     32 H6          6.0347   -4.6099    0.8830 H         1 <1>         0.1139
     33 H7         -0.0014    4.3076    1.4627 H         1 <1>         0.1410
     34 H8         -1.6435    1.4275   -1.2969 H         1 <1>         0.1347
     35 H9          2.5945   -0.1186    1.1630 H         1 <1>         0.1472
     36 H10         5.4791   -5.1856    3.9161 H         1 <1>         0.0552
     37 H11         7.0367   -5.2279    3.0540 H         1 <1>         0.0571
     38 H12         6.8504   -4.1922    4.4682 H         1 <1>         0.0571
     39 H13         4.2782    3.8321   -3.9577 H         1 <1>         0.3688
@<TRIPOS>BOND
     1    1    5 ar
     2    1   11 ar
     3    2    6 ar
     4    2   11 ar
     5    3    7 ar
     6    3   10 ar
     7    4    8 ar
     8    4   10 ar
     9    5   14 ar
    10    6   14 ar
    11    7   15 ar
    12    8   15 ar
    13    9   12 ar
    14    9   16 ar
    15   10   12 1
    16   11   16 1
    17   12   13 ar
    18   13   17 ar
    19   13   18 1
    20   14   20 1
    21   15   26 1
    22   16   21 ar
    23   17   21 ar
    24   17   22 1
    25   18   23 am
    26   18   24 2
    27   19   22 2
    28   19   23 1
    29   19   25 1
    30    1   27 1
    31    2   28 1
    32    3   29 1
    33    4   30 1
    34    5   31 1
    35    6   32 1
    36    7   33 1
    37    8   34 1
    38    9   35 1
    39   20   36 1
    40   20   37 1
    41   20   38 1
    42   23   39 1
@<TRIPOS>Similarity
1.4675
@<TRIPOS>ShapeSim
0.8842
@<TRIPOS>PharmSim
0.5833
# END
# Name:		AG-690/36427043
# Created and modified by SHAFTS on Tue Sep 23 19:00:28 2014

# 

@<TRIPOS>MOLECULE
AG-690/36427043
   39    41     0
SMALL
USER_CHARGE


@<TRIPOS>ATOM
      1 C1          3.1628    2.7421   -2.1467 C.1       1 <1>         0.0359
      2 C2         -1.1398    2.8268    0.3082 C.ar      1 <1>        -0.0969
      3 C3          5.8745   -3.5138    2.7498 C.ar      1 <1>        -0.0962
      4 C4         -0.9923    1.4760   -0.0069 C.ar      1 <1>        -0.0938
      5 C5         -0.0143    3.6424    0.4262 C.ar      1 <1>        -0.0943
      6 C6          5.5121   -2.2995    3.3327 C.ar      1 <1>        -0.0920
      7 C7          5.7534   -3.6894    1.3714 C.ar      1 <1>        -0.0908
      8 C8          0.2805    0.9407   -0.2037 C.ar      1 <1>        -0.0823
      9 C9          1.2586    3.1070    0.2293 C.ar      1 <1>        -0.0836
     10 C10         5.0286   -1.2608    2.5370 C.ar      1 <1>        -0.0756
     11 C11         5.2699   -2.6508    0.5757 C.ar      1 <1>        -0.0730
     12 C12         3.1415    0.1645    0.5388 C.ar      1 <1>        -0.0241
     13 C13         3.5773    1.6727   -1.2832 C.ar      1 <1>         0.0958
     14 C14         1.4061    1.7562   -0.0856 C.ar      1 <1>        -0.0567
     15 C15         4.9074   -1.4365    1.1586 C.ar      1 <1>        -0.0499
     16 C16         2.7262    1.2007   -0.2902 C.ar      1 <1>         0.0063
     17 C17         4.4073   -0.3612    0.3356 C.ar      1 <1>        -0.0137
     18 C18         4.8237    1.0796   -1.4049 C.ar      1 <1>         0.0485
     19 C19         4.4589    1.1560   -4.8554 C.3       1 <1>        -0.0418
     20 C20         5.5228    0.5051   -3.9922 C.3       1 <1>         0.0000
     21 N1          2.8278    3.6066   -2.8445 N.1       1 <1>        -0.3790
     22 N2          5.2621    0.0712   -0.6184 N.ar      1 <1>        -0.3599
     23 S1          6.0061    1.6046   -2.6452 S.3       1 <1>        -0.1567
     24 H1         -2.1311    3.2437    0.4597 H         1 <1>         0.1200
     25 H2          6.2525   -4.3218    3.3693 H         1 <1>         0.1192
     26 H3         -1.8686    0.8413   -0.1004 H         1 <1>         0.1209
     27 H4         -0.1285    4.6945    0.6701 H         1 <1>         0.1204
     28 H5          5.6078   -2.1620    4.4057 H         1 <1>         0.1197
     29 H6          6.0367   -4.6342    0.9167 H         1 <1>         0.1198
     30 H7          0.3789   -0.1142   -0.4490 H         1 <1>         0.1310
     31 H8          2.1267    3.7551    0.3242 H         1 <1>         0.1262
     32 H9          4.7504   -0.3200    3.0064 H         1 <1>         0.1346
     33 H10         5.1815   -2.8021   -0.4975 H         1 <1>         0.1421
     34 H11         2.4959   -0.2224    1.3224 H         1 <1>         0.1720
     35 H12         3.5624    1.3978   -4.2746 H         1 <1>         0.0485
     36 H13         4.8278    2.0740   -5.3253 H         1 <1>         0.0485
     37 H14         4.1590    0.4718   -5.6563 H         1 <1>         0.0552
     38 H15         6.4078    0.2725   -4.5922 H         1 <1>         0.0977
     39 H16         5.1457   -0.4294   -3.5660 H         1 <1>         0.0977
@<TRIPOS>BOND
     1    1   13 1
     2    1   21 3
     3    2    4 ar
     4    2    5 ar
     5    3    6 ar
     6    3    7 ar
     7    4    8 ar
     8    5    9 ar
     9    6   10 ar
    10    7   11 ar
    11    8   14 ar
    12    9   14 ar
    13   10   15 ar
    14   11   15 ar
    15   12   16 ar
    16   12   17 ar
    17   13   16 ar
    18   13   18 ar
    19   14   16 1
    20   15   17 1
    21   17   22 ar
    22   18   22 ar
    23   18   23 1
    24   19   20 1
    25   20   23 1
    26    2   24 1
    27    3   25 1
    28    4   26 1
    29    5   27 1
    30    6   28 1
    31    7   29 1
    32    8   30 1
    33    9   31 1
    34   10   32 1
    35   11   33 1
    36   12   34 1
    37   19   35 1
    38   19   36 1
    39   19   37 1
    40   20   38 1
    41   20   39 1
@<TRIPOS>Similarity
1.4674
@<TRIPOS>ShapeSim
0.8671
@<TRIPOS>PharmSim
0.6003
# END
# Name:		AH-487/40652383
# Created and modified by SHAFTS on Tue Sep 23 19:00:28 2014

# 

@<TRIPOS>MOLECULE
AH-487/40652383
   40    43     0
SMALL
USER_CHARGE


@<TRIPOS>ATOM
      1 C1          5.9450   -3.0824    2.2614 C.ar      1 <1>        -0.0897
      2 C2          6.1337   -2.7958    0.9094 C.ar      1 <1>        -0.0809
      3 C3          5.0111   -2.3598    3.0038 C.ar      1 <1>        -0.0804
      4 C4         -0.6693    3.4550    1.2626 C.ar      1 <1>        -0.0740
      5 C5          0.5952    2.8903    1.0974 C.ar      1 <1>        -0.0581
      6 C6          5.3884   -1.7866    0.2999 C.ar      1 <1>        -0.0547
      7 C7          4.2658   -1.3505    2.3942 C.ar      1 <1>        -0.0541
      8 C8         -1.7622    2.9328    0.5707 C.ar      1 <1>        -0.0645
      9 C9         -0.3258    1.2810   -0.4515 C.ar      1 <1>        -0.0408
     10 C10         4.4067    2.4836   -2.6236 C.ar      1 <1>        -0.0027
     11 C11         3.0521    1.5787   -0.8797 C.ar      1 <1>         0.0650
     12 C12         0.7671    1.8033    0.2403 C.ar      1 <1>        -0.0181
     13 C13         3.1994    2.4990   -1.9249 C.ar      1 <1>         0.1061
     14 C14         4.4545   -1.0639    1.0422 C.ar      1 <1>        -0.0085
     15 C15        -1.5903    1.8459   -0.2863 C.ar      1 <1>        -0.0282
     16 C16         2.0747    1.2218    0.0705 C.2       1 <1>         0.0469
     17 C17         5.3873    1.5696   -2.2525 C.ar      1 <1>        -0.0247
     18 C18         4.1096    0.7225   -0.6142 C.ar      1 <1>         0.0571
     19 C19         6.6759    1.5647   -3.0113 C.3       1 <1>        -0.0023
     20 C20         2.1443    3.4787   -2.3199 C.3       1 <1>         0.3536
     21 N1          2.4701    0.2272    0.8721 N.2       1 <1>        -0.3068
     22 N2          5.2921    0.6618   -1.2510 N.ar      1 <1>        -0.3577
     23 N3          3.7097   -0.0552    0.4321 N.pl3     1 <1>        -0.2783
     24 F1          2.5059    4.2784   -3.3659 F         1 <1>        -0.2089
     25 F2          0.9734    2.8927   -2.7062 F         1 <1>        -0.2075
     26 F3          1.8130    4.3286   -1.3053 F         1 <1>        -0.2070
     27 Br1        -3.0713    1.1374   -1.2229 Br        1 <1>        -0.1363
     28 H1          6.5237   -3.8693    2.7360 H         1 <1>         0.1219
     29 H2          6.8599   -3.3592    0.3309 H         1 <1>         0.1300
     30 H3          4.8637   -2.5845    4.0563 H         1 <1>         0.1309
     31 H4         -0.8030    4.3010    1.9305 H         1 <1>         0.1368
     32 H5          1.4375    3.3089    1.6435 H         1 <1>         0.1547
     33 H6          5.5447   -1.5739   -0.7549 H         1 <1>         0.1496
     34 H7          3.5406   -0.7955    2.9844 H         1 <1>         0.1509
     35 H8         -2.7410    3.3844    0.7108 H         1 <1>         0.1453
     36 H9         -0.1909    0.4327   -1.1198 H         1 <1>         0.1616
     37 H10         4.5777    3.1757   -3.4435 H         1 <1>         0.1782
     38 H11         7.3918    2.2498   -2.5444 H         1 <1>         0.1000
     39 H12         7.1152    0.5607   -3.0361 H         1 <1>         0.0981
     40 H13         6.5217    1.8733   -4.0520 H         1 <1>         0.0978
@<TRIPOS>BOND
     1    1    2 ar
     2    1    3 ar
     3    2    6 ar
     4    3    7 ar
     5    4    5 ar
     6    4    8 ar
     7    5   12 ar
     8    6   14 ar
     9    7   14 ar
    10    8   15 ar
    11    9   12 ar
    12    9   15 ar
    13   10   13 ar
    14   10   17 ar
    15   11   13 ar
    16   11   16 1
    17   11   18 ar
    18   12   16 1
    19   13   20 1
    20   14   23 1
    21   15   27 1
    22   16   21 2
    23   17   19 1
    24   17   22 ar
    25   18   22 ar
    26   18   23 1
    27   20   24 1
    28   20   25 1
    29   20   26 1
    30   21   23 1
    31    1   28 1
    32    2   29 1
    33    3   30 1
    34    4   31 1
    35    5   32 1
    36    6   33 1
    37    7   34 1
    38    8   35 1
    39    9   36 1
    40   10   37 1
    41   19   38 1
    42   19   39 1
    43   19   40 1
@<TRIPOS>Similarity
1.4546
@<TRIPOS>ShapeSim
0.8523
@<TRIPOS>PharmSim
0.6023
# END
# Name:		AE-842/32998057
# Created and modified by SHAFTS on Tue Sep 23 19:00:28 2014

# 

@<TRIPOS>MOLECULE
AE-842/32998057
   41    44     0
SMALL
USER_CHARGE


@<TRIPOS>ATOM
      1 C1         -1.3138    2.9619    0.2174 C.ar      1 <1>        -0.0967
      2 C2         -0.2062    3.6741   -0.2425 C.ar      1 <1>        -0.0914
      3 C3         -1.1695    1.6363    0.6273 C.ar      1 <1>        -0.0919
      4 C4          1.0457    3.0609   -0.2925 C.ar      1 <1>        -0.0743
      5 C5          0.0823    1.0233    0.5772 C.ar      1 <1>        -0.0751
      6 C6          5.0612   -2.4418    0.5360 C.ar      1 <1>        -0.0550
      7 C7          4.9673   -1.1992    2.6058 C.ar      1 <1>        -0.0545
      8 C8          5.6260   -3.5239    1.2111 C.ar      1 <1>        -0.0515
      9 C9          5.5320   -2.2813    3.2810 C.ar      1 <1>        -0.0512
     10 C10         1.1900    1.7354    0.1174 C.ar      1 <1>        -0.0504
     11 C11         4.7320   -1.2795    1.2333 C.ar      1 <1>        -0.0388
     12 C12         5.8613   -3.4436    2.5836 C.ar      1 <1>        -0.0166
     13 C13         2.5102    1.0888    0.0645 C.2       1 <1>        -0.0257
     14 C14         4.6633    1.9641   -3.0983 C.3       1 <1>        -0.0548
     15 C15         5.7270    0.8936   -2.7894 C.3       1 <1>        -0.0544
     16 C16         3.3077    1.7164   -2.4108 C.3       1 <1>        -0.0382
     17 C17         5.8040    0.4990   -1.3017 C.3       1 <1>        -0.0378
     18 C18         3.5688    1.4496   -0.9439 C.3       1 <1>         0.0044
     19 C19         4.3982    0.1625   -0.8337 C.3       1 <1>         0.0041
     20 N1          2.9064    0.2094    0.9396 N.2       1 <1>        -0.3693
     21 N2          4.1698   -0.1979    0.5575 N.pl3     1 <1>        -0.3559
     22 Cl1         6.5579   -4.7788    3.4163 Cl        1 <1>        -0.1916
     23 H1         -2.2885    3.4394    0.2562 H         1 <1>         0.1178
     24 H2         -0.3187    4.7061   -0.5618 H         1 <1>         0.1199
     25 H3         -2.0320    1.0819    0.9856 H         1 <1>         0.1197
     26 H4          1.9021    3.6253   -0.6526 H         1 <1>         0.1378
     27 H5          0.1828   -0.0101    0.8990 H         1 <1>         0.1358
     28 H6          4.8829   -2.5141   -0.5338 H         1 <1>         0.1480
     29 H7          4.7159   -0.2974    3.1584 H         1 <1>         0.1493
     30 H8          5.8791   -4.4224    0.6543 H         1 <1>         0.1488
     31 H9          5.7113   -2.2033    4.3504 H         1 <1>         0.1486
     32 H10         5.0487    2.9370   -2.7668 H         1 <1>         0.0426
     33 H11         4.5189    2.0384   -4.1821 H         1 <1>         0.0453
     34 H12         5.4938   -0.0041   -3.3765 H         1 <1>         0.0474
     35 H13         6.7090    1.2425   -3.1287 H         1 <1>         0.0438
     36 H14         2.6612    2.5919   -2.5353 H         1 <1>         0.0584
     37 H15         2.7902    0.8716   -2.8807 H         1 <1>         0.0601
     38 H16         6.4688   -0.3638   -1.1823 H         1 <1>         0.0621
     39 H17         6.2358    1.3169   -0.7125 H         1 <1>         0.0631
     40 H18         4.1031    2.3062   -0.5046 H         1 <1>         0.1061
     41 H19         3.9736   -0.6297   -1.4700 H         1 <1>         0.1120
@<TRIPOS>BOND
     1    1    2 ar
     2    1    3 ar
     3    2    4 ar
     4    3    5 ar
     5    4   10 ar
     6    5   10 ar
     7    6    8 ar
     8    6   11 ar
     9    7    9 ar
    10    7   11 ar
    11    8   12 ar
    12    9   12 ar
    13   10   13 1
    14   11   21 1
    15   12   22 1
    16   13   18 1
    17   13   20 2
    18   14   15 1
    19   14   16 1
    20   15   17 1
    21   16   18 1
    22   17   19 1
    23   18   19 1
    24   19   21 1
    25   20   21 1
    26    1   23 1
    27    2   24 1
    28    3   25 1
    29    4   26 1
    30    5   27 1
    31    6   28 1
    32    7   29 1
    33    8   30 1
    34    9   31 1
    35   14   32 1
    36   14   33 1
    37   15   34 1
    38   15   35 1
    39   16   36 1
    40   16   37 1
    41   17   38 1
    42   17   39 1
    43   18   40 1
    44   19   41 1
@<TRIPOS>Similarity
1.4464
@<TRIPOS>ShapeSim
0.8508
@<TRIPOS>PharmSim
0.5957
# END
# Name:		AG-690/13704183
# Created and modified by SHAFTS on Tue Sep 23 19:00:28 2014

# 

@<TRIPOS>MOLECULE
AG-690/13704183
   48    51     0
SMALL
USER_CHARGE


@<TRIPOS>ATOM
      1 C1          5.8892   -3.4336    2.6564 C.ar      1 <1>        -0.0955
      2 C2          5.5199   -2.2277    3.2525 C.ar      1 <1>        -0.0915
      3 C3          5.7539   -3.6005    1.2783 C.ar      1 <1>        -0.0895
      4 C4          5.0153   -1.1887    2.4703 C.ar      1 <1>        -0.0744
      5 C5          5.2494   -2.5617    0.4960 C.ar      1 <1>        -0.0706
      6 C6          1.1258    2.8754    0.8000 C.ar      1 <1>        -0.0692
      7 C7          0.2078    1.2646   -0.7492 C.ar      1 <1>        -0.0690
      8 C8         -0.1478    3.4080    1.0008 C.ar      1 <1>        -0.0569
      9 C9         -1.0656    1.7971   -0.5484 C.ar      1 <1>        -0.0566
     10 C10         3.0872    0.2161    0.5196 C.ar      1 <1>        -0.0327
     11 C11         3.4608    1.7526   -1.3001 C.ar      1 <1>         0.0097
     12 C12         1.3036    1.8037   -0.0750 C.ar      1 <1>        -0.0592
     13 C13         4.8800   -1.3557    1.0920 C.ar      1 <1>        -0.0465
     14 C14         2.6221    1.2528   -0.2832 C.ar      1 <1>        -0.0281
     15 C15         3.2874    2.7880   -2.2737 C.2       1 <1>         0.0213
     16 C16        -1.2433    2.8687    0.3266 C.ar      1 <1>        -0.0146
     17 C17         4.3572   -0.2788    0.2817 C.ar      1 <1>        -0.0096
     18 C18         4.3897    2.9406   -3.0857 C.2       1 <1>         0.0968
     19 C19         4.7134    1.1609   -1.4268 C.ar      1 <1>         0.0533
     20 C20         4.6049    3.8544   -4.1632 C.2       1 <1>         0.1480
     21 C21         7.6807    4.8267   -5.8263 C.3       1 <1>        -0.0346
     22 C22         5.7251    3.9267   -7.1368 C.3       1 <1>        -0.0310
     23 C23         6.1818    4.5675   -5.8351 C.3       1 <1>         0.0237
     24 N1          5.2068    0.1557   -0.6737 N.ar      1 <1>        -0.3518
     25 N2          2.1724    3.5494   -2.4045 N.pl3     1 <1>        -0.3427
     26 O1          3.7823    4.7094   -4.5647 O.2       1 <1>        -0.4728
     27 O2          5.8462    3.7058   -4.7423 O.3       1 <1>        -0.3939
     28 S1          5.6389    1.8440   -2.6856 S.3       1 <1>        -0.0487
     29 Cl1        -2.8142    3.5273    0.5736 Cl        1 <1>        -0.1806
     30 H1          6.2836   -4.2416    3.2655 H         1 <1>         0.1201
     31 H2          5.6266   -2.0969    4.3253 H         1 <1>         0.1199
     32 H3          6.0425   -4.5386    0.8133 H         1 <1>         0.1214
     33 H4          4.7321   -0.2547    2.9498 H         1 <1>         0.1345
     34 H5          5.1502   -2.7062   -0.5772 H         1 <1>         0.1457
     35 H6          1.9699    3.3067    1.3327 H         1 <1>         0.1434
     36 H7          0.3305    0.4296   -1.4352 H         1 <1>         0.1440
     37 H8         -0.2719    4.2444    1.6841 H         1 <1>         0.1464
     38 H9         -1.9103    1.3677   -1.0813 H         1 <1>         0.1472
     39 H10         2.4670   -0.1933    1.3129 H         1 <1>         0.1680
     40 H11         8.2447    3.9006   -5.9745 H         1 <1>         0.0530
     41 H12         7.9501    5.5315   -6.6201 H         1 <1>         0.0572
     42 H13         7.9968    5.2821   -4.8812 H         1 <1>         0.0499
     43 H14         6.2425    2.9793   -7.3163 H         1 <1>         0.0572
     44 H15         5.9200    4.5973   -7.9807 H         1 <1>         0.0643
     45 H16         4.6457    3.7398   -7.1266 H         1 <1>         0.0591
     46 H17         5.6470    5.5110   -5.6849 H         1 <1>         0.1277
     47 H18         1.3393    3.3942   -1.8239 H         1 <1>         0.2499
     48 H19         2.0790    4.2491   -3.1508 H         1 <1>         0.2580
@<TRIPOS>BOND
     1    1    2 ar
     2    1    3 ar
     3    2    4 ar
     4    3    5 ar
     5    4   13 ar
     6    5   13 ar
     7    6    8 ar
     8    6   12 ar
     9    7    9 ar
    10    7   12 ar
    11    8   16 ar
    12    9   16 ar
    13   10   14 ar
    14   10   17 ar
    15   11   14 ar
    16   11   15 1
    17   11   19 ar
    18   12   14 1
    19   13   17 1
    20   15   18 2
    21   15   25 1
    22   16   29 1
    23   17   24 ar
    24   18   20 1
    25   18   28 1
    26   19   24 ar
    27   19   28 1
    28   20   26 2
    29   20   27 1
    30   21   23 1
    31   22   23 1
    32   23   27 1
    33    1   30 1
    34    2   31 1
    35    3   32 1
    36    4   33 1
    37    5   34 1
    38    6   35 1
    39    7   36 1
    40    8   37 1
    41    9   38 1
    42   10   39 1
    43   21   40 1
    44   21   41 1
    45   21   42 1
    46   22   43 1
    47   22   44 1
    48   22   45 1
    49   23   46 1
    50   25   47 1
    51   25   48 1
@<TRIPOS>Similarity
1.4429
@<TRIPOS>ShapeSim
0.8016
@<TRIPOS>PharmSim
0.6413
# END
# Name:		AM-807/12426015
# Created and modified by SHAFTS on Tue Sep 23 19:00:28 2014

# 

@<TRIPOS>MOLECULE
AM-807/12426015
   45    48     0
SMALL
USER_CHARGE


@<TRIPOS>ATOM
      1 C1          5.6232   -2.6521    2.8864 C.2       1 <1>        -0.0733
      2 C2          0.1458    0.9692   -0.1531 C.ar      1 <1>        -0.0598
      3 C3          1.1171    3.1387    0.2790 C.ar      1 <1>        -0.0600
      4 C4         -1.1282    1.4990    0.0510 C.ar      1 <1>        -0.0299
      5 C5         -0.1571    3.6685    0.4831 C.ar      1 <1>        -0.0299
      6 C6          5.0764   -1.4039    2.4704 C.2       1 <1>        -0.0582
      7 C7          3.0554    0.2036    0.5504 C.ar      1 <1>        -0.0262
      8 C8          5.8016   -3.5171    1.8292 C.2       1 <1>        -0.0418
      9 C9          3.4239    1.7432   -1.2678 C.ar      1 <1>         0.0119
     10 C10         1.2685    1.7891   -0.0391 C.ar      1 <1>        -0.0551
     11 C11         2.5875    1.2407   -0.2503 C.ar      1 <1>        -0.0251
     12 C12         3.2474    2.7796   -2.2398 C.2       1 <1>         0.0220
     13 C13        -1.2797    2.8485    0.3691 C.ar      1 <1>         0.0476
     14 C14         4.3258   -0.2889    0.3098 C.ar      1 <1>         0.0085
     15 C15         4.8580   -1.3622    1.1107 C.2       1 <1>        -0.0082
     16 C16         4.3482    2.9352   -3.0532 C.2       1 <1>         0.0988
     17 C17         4.6772    1.1537   -1.3972 C.ar      1 <1>         0.0579
     18 C18         4.5602    3.8509   -4.1299 C.2       1 <1>         0.1494
     19 C19         7.9208    4.7543   -5.1596 C.3       1 <1>        -0.0346
     20 C20         5.9714    4.9910   -6.7395 C.3       1 <1>        -0.0310
     21 C21         6.4092    4.8653   -5.2882 C.3       1 <1>         0.0237
     22 N1          5.1734    0.1482   -0.6461 N.ar      1 <1>        -0.3428
     23 N2          2.1309    3.5393   -2.3676 N.pl3     1 <1>        -0.3436
     24 O1          3.7353    4.7049   -4.5288 O.2       1 <1>        -0.4717
     25 O2          5.8007    3.7050   -4.7110 O.3       1 <1>        -0.3936
     26 F1         -2.5033    3.3572    0.5652 F         1 <1>        -0.3380
     27 S1          5.3111   -2.8238    0.3422 S.3       1 <1>        -0.1516
     28 S2          5.5998    1.8399   -2.6564 S.3       1 <1>        -0.0447
     29 H1          5.8736   -2.9031    3.9088 H         1 <1>         0.1212
     30 H2          0.2474   -0.0850   -0.4003 H         1 <1>         0.1489
     31 H3          1.9823    3.7909    0.3713 H         1 <1>         0.1482
     32 H4         -2.0026    0.8607   -0.0375 H         1 <1>         0.1559
     33 H5         -0.2757    4.7191    0.7305 H         1 <1>         0.1566
     34 H6          4.8586   -0.5819    3.1412 H         1 <1>         0.1437
     35 H7          2.4369   -0.2078    1.3441 H         1 <1>         0.1711
     36 H8          6.1971   -4.5225    1.8588 H         1 <1>         0.1814
     37 H9          8.3042    3.8924   -5.7142 H         1 <1>         0.0529
     38 H10         8.4032    5.6599   -5.5428 H         1 <1>         0.0571
     39 H11         8.2214    4.6580   -4.1105 H         1 <1>         0.0498
     40 H12         6.3084    4.1349   -7.3317 H         1 <1>         0.0571
     41 H13         6.3796    5.9057   -7.1828 H         1 <1>         0.0643
     42 H14         4.8811    5.0635   -6.8173 H         1 <1>         0.0590
     43 H15         6.0575    5.7352   -4.7237 H         1 <1>         0.1277
     44 H16         1.2990    3.3818   -1.7858 H         1 <1>         0.2483
     45 H17         2.0349    4.2399   -3.1128 H         1 <1>         0.2556
@<TRIPOS>BOND
     1    1    6 1
     2    1    8 2
     3    2    4 ar
     4    2   10 ar
     5    3    5 ar
     6    3   10 ar
     7    4   13 ar
     8    5   13 ar
     9    6   15 2
    10    7   11 ar
    11    7   14 ar
    12    8   27 1
    13    9   11 ar
    14    9   12 1
    15    9   17 ar
    16   10   11 1
    17   12   16 2
    18   12   23 1
    19   13   26 1
    20   14   15 1
    21   14   22 ar
    22   15   27 1
    23   16   18 1
    24   16   28 1
    25   17   22 ar
    26   17   28 1
    27   18   24 2
    28   18   25 1
    29   19   21 1
    30   20   21 1
    31   21   25 1
    32    1   29 1
    33    2   30 1
    34    3   31 1
    35    4   32 1
    36    5   33 1
    37    6   34 1
    38    7   35 1
    39    8   36 1
    40   19   37 1
    41   19   38 1
    42   19   39 1
    43   20   40 1
    44   20   41 1
    45   20   42 1
    46   21   43 1
    47   23   44 1
    48   23   45 1
@<TRIPOS>Similarity
1.4390
@<TRIPOS>ShapeSim
0.8160
@<TRIPOS>PharmSim
0.6231
# END
# Name:		AO-476/42008147
# Created and modified by SHAFTS on Tue Sep 23 19:00:28 2014

# 

@<TRIPOS>MOLECULE
AO-476/42008147
   44    47     0
SMALL
USER_CHARGE


@<TRIPOS>ATOM
      1 C1          3.0097    2.9164   -2.2914 C.1       1 <1>         0.0481
      2 C2          6.5563   -3.0744    1.3812 C.ar      1 <1>        -0.0892
      3 C3          5.9313   -3.3718    2.5884 C.ar      1 <1>        -0.0945
      4 C4          6.0730   -2.0406    0.5753 C.ar      1 <1>        -0.0703
      5 C5          1.1738    3.2674    0.0917 C.ar      1 <1>        -0.0644
      6 C6          0.2115    1.0834   -0.2842 C.ar      1 <1>        -0.0650
      7 C7          4.8191   -2.6381    2.9935 C.ar      1 <1>        -0.0916
      8 C8         -0.1017    3.7949    0.2924 C.ar      1 <1>        -0.0555
      9 C9         -1.0641    1.6109   -0.0834 C.ar      1 <1>        -0.0557
     10 C10         3.4538    1.8566   -1.4338 C.ar      1 <1>         0.1232
     11 C11         1.3305    1.9115   -0.1967 C.ar      1 <1>        -0.0431
     12 C12         4.9509   -1.2881    0.9606 C.ar      1 <1>        -0.0468
     13 C13         2.6616    1.3612   -0.4067 C.ar      1 <1>         0.0182
     14 C14         4.3184   -1.6088    2.1840 C.ar      1 <1>        -0.0812
     15 C15         3.1413    0.3324    0.4056 C.ar      1 <1>        -0.0298
     16 C16        -1.2207    2.9667    0.2049 C.ar      1 <1>        -0.0145
     17 C17         4.4135   -0.1897    0.1383 C.ar      1 <1>        -0.0043
     18 C18         4.7018    1.2895   -1.6183 C.ar      1 <1>         0.0986
     19 C19         6.8272   -0.3966   -3.8305 C.2       1 <1>        -0.1119
     20 C20         7.3910    0.2978   -2.8359 C.2       1 <1>        -0.0900
     21 C21         3.1456   -0.7814    2.6578 C.3       1 <1>        -0.0190
     22 C22         2.2932   -0.2665    1.4941 C.3       1 <1>        -0.0078
     23 C23         6.9236    1.6432   -2.3891 C.3       1 <1>         0.0408
     24 N1          2.6502    3.7741   -2.9855 N.1       1 <1>        -0.3780
     25 N2          5.1967    0.2829   -0.8630 N.ar      1 <1>        -0.3323
     26 O1          5.5237    1.7404   -2.6193 O.3       1 <1>        -0.4025
     27 Cl1        -2.7943    3.6186    0.4512 Cl        1 <1>        -0.1820
     28 H1          7.4243   -3.6459    1.0649 H         1 <1>         0.1202
     29 H2          6.3128   -4.1717    3.2159 H         1 <1>         0.1214
     30 H3          6.5878   -1.8372   -0.3609 H         1 <1>         0.1441
     31 H4          2.0363    3.9257    0.1630 H         1 <1>         0.1457
     32 H5          0.3171    0.0247   -0.5091 H         1 <1>         0.1430
     33 H6          4.3465   -2.8702    3.9444 H         1 <1>         0.1227
     34 H7         -0.2095    4.8536    0.5145 H         1 <1>         0.1474
     35 H8         -1.9272    0.9541   -0.1559 H         1 <1>         0.1471
     36 H9          7.1992   -1.3722   -4.1232 H         1 <1>         0.0861
     37 H10         5.9774    0.0073   -4.3696 H         1 <1>         0.0903
     38 H11         8.2469   -0.1308   -2.3212 H         1 <1>         0.1087
     39 H12         2.5087   -1.3678    3.3306 H         1 <1>         0.0828
     40 H13         3.5420    0.0652    3.2334 H         1 <1>         0.0802
     41 H14         1.5782    0.4550    1.9040 H         1 <1>         0.0849
     42 H15         1.7176   -1.0945    1.0605 H         1 <1>         0.0871
     43 H16         7.4231    2.4543   -2.9281 H         1 <1>         0.1430
     44 H17         7.1104    1.7633   -1.3174 H         1 <1>         0.1457
@<TRIPOS>BOND
     1    1   10 1
     2    1   24 3
     3    2    3 ar
     4    2    4 ar
     5    3    7 ar
     6    4   12 ar
     7    5    8 ar
     8    5   11 ar
     9    6    9 ar
    10    6   11 ar
    11    7   14 ar
    12    8   16 ar
    13    9   16 ar
    14   10   13 ar
    15   10   18 ar
    16   11   13 1
    17   12   14 ar
    18   12   17 1
    19   13   15 ar
    20   14   21 1
    21   15   17 ar
    22   15   22 1
    23   16   27 1
    24   17   25 ar
    25   18   25 ar
    26   18   26 1
    27   19   20 2
    28   20   23 1
    29   21   22 1
    30   23   26 1
    31    2   28 1
    32    3   29 1
    33    4   30 1
    34    5   31 1
    35    6   32 1
    36    7   33 1
    37    8   34 1
    38    9   35 1
    39   19   36 1
    40   19   37 1
    41   20   38 1
    42   21   39 1
    43   21   40 1
    44   22   41 1
    45   22   42 1
    46   23   43 1
    47   23   44 1
@<TRIPOS>Similarity
1.4342
@<TRIPOS>ShapeSim
0.8673
@<TRIPOS>PharmSim
0.5670
# END
# Name:		AF-399/15336046
# Created and modified by SHAFTS on Tue Sep 23 19:00:28 2014

# 

@<TRIPOS>MOLECULE
AF-399/15336046
   26    29     0
SMALL
USER_CHARGE


@<TRIPOS>ATOM
      1 C1         -1.3716    2.6148    0.6661 C.ar      1 <1>        -0.0994
      2 C2         -0.4607    3.6711    0.6590 C.ar      1 <1>        -0.0982
      3 C3         -1.0206    1.3874    0.1038 C.ar      1 <1>        -0.0949
      4 C4          0.8012    3.5001    0.0898 C.ar      1 <1>        -0.0889
      5 C5          0.2412    1.2164   -0.4655 C.ar      1 <1>        -0.0856
      6 C6          2.8551    2.8840   -2.1189 C.2       1 <1>         0.0049
      7 C7          4.4031   -1.4041    1.4275 C.2       1 <1>         0.0720
      8 C8          1.1521    2.2727   -0.4725 C.ar      1 <1>        -0.0675
      9 C9          2.4538    2.0960   -1.0601 C.2       1 <1>        -0.0138
     10 C10         3.4689    1.1810   -0.7100 C.2       1 <1>         0.0384
     11 C11         4.6162    1.2723   -1.4841 C.2       1 <1>         0.0580
     12 C12         3.5067    0.2103    0.2780 C.2       1 <1>         0.0783
     13 C13         5.7503   -0.3848   -0.4313 C.2       1 <1>         0.0640
     14 N1          3.1965   -1.1800    1.9096 N.2       1 <1>        -0.2857
     15 N2          2.6234   -0.1492    1.1763 N.2       1 <1>        -0.2819
     16 N3          5.7602    0.5176   -1.3763 N.2       1 <1>        -0.3212
     17 N4          4.6408   -0.5494    0.3972 N.pl3     1 <1>        -0.2605
     18 S1          4.4406    2.5030   -2.6604 S.3       1 <1>        -0.0915
     19 H1         -2.3538    2.7475    1.1103 H         1 <1>         0.1147
     20 H2         -0.7333    4.6264    1.0979 H         1 <1>         0.1143
     21 H3         -1.7295    0.5647    0.1106 H         1 <1>         0.1189
     22 H4          1.5002    4.3331    0.0921 H         1 <1>         0.1232
     23 H5          0.4995    0.2534   -0.8997 H         1 <1>         0.1282
     24 H6          2.3025    3.6733   -2.6110 H         1 <1>         0.2159
     25 H7          5.1121   -2.1416    1.7753 H         1 <1>         0.3148
     26 H8          6.6246   -1.0357   -0.2715 H         1 <1>         0.3438
@<TRIPOS>BOND
     1    1    2 ar
     2    1    3 ar
     3    2    4 ar
     4    3    5 ar
     5    4    8 ar
     6    5    8 ar
     7    6    9 2
     8    6   18 1
     9    7   14 2
    10    7   17 1
    11    8    9 1
    12    9   10 1
    13   10   11 2
    14   10   12 1
    15   11   16 1
    16   11   18 1
    17   12   15 2
    18   12   17 1
    19   13   16 2
    20   13   17 1
    21   14   15 1
    22    1   19 1
    23    2   20 1
    24    3   21 1
    25    4   22 1
    26    5   23 1
    27    6   24 1
    28    7   25 1
    29   13   26 1
@<TRIPOS>Similarity
1.4323
@<TRIPOS>ShapeSim
0.8276
@<TRIPOS>PharmSim
0.6048
# END
# Name:		AO-476/14976017
# Created and modified by SHAFTS on Tue Sep 23 19:00:28 2014

# 

@<TRIPOS>MOLECULE
AO-476/14976017
   28    30     0
SMALL
USER_CHARGE


@<TRIPOS>ATOM
      1 C1          5.5972   -3.3546    2.7476 C.ar      1 <1>        -0.0823
      2 C2          4.7400   -2.3195    3.1207 C.ar      1 <1>        -0.0744
      3 C3          6.1684   -3.3629    1.4750 C.ar      1 <1>        -0.0752
      4 C4          4.4540   -1.2924    2.2213 C.ar      1 <1>        -0.0492
      5 C5          5.8822   -2.3359    0.5755 C.ar      1 <1>        -0.0508
      6 C6          5.0400    1.0778   -1.5342 C.2       1 <1>         0.0688
      7 C7          1.5562    1.1840    0.4211 C.ar      1 <1>         0.0967
      8 C8          3.7433    1.3509   -1.0490 C.ar      1 <1>         0.0849
      9 C9          5.0251   -1.3007    0.9486 C.ar      1 <1>        -0.0017
     10 C10         3.5824    0.4452   -0.0122 C.ar      1 <1>         0.0995
     11 C11         2.7090    2.2298   -1.3495 C.ar      1 <1>         0.0722
     12 N1          5.6497    0.0912   -0.8691 N.2       1 <1>        -0.2964
     13 N2          2.5064    0.3001    0.7762 N.ar      1 <1>        -0.2800
     14 N3          4.7387   -0.2737    0.0502 N.pl3     1 <1>        -0.2632
     15 N4          1.6359    2.0867   -0.5639 N.ar      1 <1>        -0.3110
     16 N5          2.7670    3.1802   -2.3791 N.pl3     1 <1>        -0.2957
     17 N6          0.4659    2.9582   -0.7783 N.pl3     1 <1>        -0.2948
     18 H1          5.8217   -4.1536    3.4482 H         1 <1>         0.1351
     19 H2          4.2963   -2.3122    4.1119 H         1 <1>         0.1396
     20 H3          6.8369   -4.1687    1.1857 H         1 <1>         0.1390
     21 H4          3.7847   -0.4911    2.5250 H         1 <1>         0.1573
     22 H5          6.3348   -2.3542   -0.4130 H         1 <1>         0.1527
     23 H6          5.5680    1.5573   -2.3463 H         1 <1>         0.2955
     24 H7          0.6359    1.1592    0.9950 H         1 <1>         0.3932
     25 H8          3.6102    3.2804   -2.9144 H         1 <1>         0.3155
     26 H9          2.0011    3.8156   -2.5108 H         1 <1>         0.3032
     27 H10        -0.3600    2.4275   -0.5258 H         1 <1>         0.3058
     28 H11         0.4260    3.1766   -1.7674 H         1 <1>         0.3157
@<TRIPOS>BOND
     1    1    2 ar
     2    1    3 ar
     3    2    4 ar
     4    3    5 ar
     5    4    9 ar
     6    5    9 ar
     7    6    8 1
     8    6   12 2
     9    7   13 ar
    10    7   15 ar
    11    8   10 ar
    12    8   11 ar
    13    9   14 1
    14   10   13 ar
    15   10   14 1
    16   11   15 ar
    17   11   16 1
    18   12   14 1
    19   15   17 1
    20    1   18 1
    21    2   19 1
    22    3   20 1
    23    4   21 1
    24    5   22 1
    25    6   23 1
    26    7   24 1
    27   16   25 1
    28   16   26 1
    29   17   27 1
    30   17   28 1
@<TRIPOS>Similarity
1.4322
@<TRIPOS>ShapeSim
0.7860
@<TRIPOS>PharmSim
0.6461
# END
# Name:		AG-205/08567008
# Created and modified by SHAFTS on Tue Sep 23 19:00:28 2014

# 

@<TRIPOS>MOLECULE
AG-205/08567008
   43    45     0
SMALL
USER_CHARGE


@<TRIPOS>ATOM
      1 C1          3.1625    2.7423   -2.1465 C.1       1 <1>         0.0349
      2 C2          5.8744   -3.5137    2.7498 C.ar      1 <1>        -0.0963
      3 C3          5.5120   -2.2995    3.3327 C.ar      1 <1>        -0.0921
      4 C4          5.7535   -3.6893    1.3713 C.ar      1 <1>        -0.0909
      5 C5          5.0284   -1.2608    2.5371 C.ar      1 <1>        -0.0756
      6 C6          5.2699   -2.6507    0.5757 C.ar      1 <1>        -0.0731
      7 C7          0.2804    0.9406   -0.2039 C.ar      1 <1>        -0.0712
      8 C8          1.2591    3.1066    0.2292 C.ar      1 <1>        -0.0645
      9 C9         -0.9924    1.4763   -0.0068 C.ar      1 <1>        -0.0645
     10 C10        -0.0137    3.6423    0.4264 C.ar      1 <1>        -0.0568
     11 C11         3.1414    0.1644    0.5388 C.ar      1 <1>        -0.0247
     12 C12         3.5770    1.6727   -1.2831 C.ar      1 <1>         0.0950
     13 C13         1.4061    1.7558   -0.0857 C.ar      1 <1>        -0.0500
     14 C14         4.9074   -1.4364    1.1585 C.ar      1 <1>        -0.0500
     15 C15         2.7260    1.2005   -0.2902 C.ar      1 <1>         0.0066
     16 C16        -1.1394    2.8270    0.3082 C.ar      1 <1>        -0.0365
     17 C17         4.4072   -0.3611    0.3356 C.ar      1 <1>        -0.0142
     18 C18         4.8235    1.0798   -1.4047 C.ar      1 <1>         0.0479
     19 C19         7.9826   -0.1950   -2.0679 C.3       1 <1>        -0.0420
     20 C20        -2.4596    4.7379    0.8194 C.3       1 <1>         0.0113
     21 C21         7.5364    1.2235   -1.7685 C.3       1 <1>        -0.0002
     22 N1          2.8275    3.6068   -2.8443 N.1       1 <1>        -0.3800
     23 N2          5.2621    0.0714   -0.6182 N.ar      1 <1>        -0.3604
     24 O1         -2.3813    3.3497    0.4999 O.3       1 <1>        -0.4626
     25 S1          6.0060    1.6048   -2.6450 S.3       1 <1>        -0.1571
     26 H1          6.2526   -4.3217    3.3693 H         1 <1>         0.1189
     27 H2          5.6076   -2.1621    4.4057 H         1 <1>         0.1196
     28 H3          6.0369   -4.6340    0.9166 H         1 <1>         0.1196
     29 H4          4.7501   -0.3201    3.0065 H         1 <1>         0.1348
     30 H5          5.1817   -2.8020   -0.4975 H         1 <1>         0.1420
     31 H6          0.3787   -0.1141   -0.4490 H         1 <1>         0.1354
     32 H7          2.1267    3.7551    0.3248 H         1 <1>         0.1478
     33 H8         -1.8655    0.8363   -0.1003 H         1 <1>         0.1302
     34 H9         -0.1222    4.6953    0.6714 H         1 <1>         0.1473
     35 H10         2.4957   -0.2225    1.3224 H         1 <1>         0.1714
     36 H11         7.2256   -0.9269   -1.7662 H         1 <1>         0.0551
     37 H12         8.1959   -0.3335   -3.1332 H         1 <1>         0.0484
     38 H13         8.9002   -0.4217   -1.5146 H         1 <1>         0.0483
     39 H14        -3.5063    5.0250    0.9462 H         1 <1>         0.1096
     40 H15        -2.0047    5.3238    0.0168 H         1 <1>         0.1095
     41 H16        -1.9189    4.9193    1.7515 H         1 <1>         0.1335
     42 H17         8.3068    1.9366   -2.0774 H         1 <1>         0.0976
     43 H18         7.3681    1.3491   -0.6946 H         1 <1>         0.0976
@<TRIPOS>BOND
     1    1   12 1
     2    1   22 3
     3    2    3 ar
     4    2    4 ar
     5    3    5 ar
     6    4    6 ar
     7    5   14 ar
     8    6   14 ar
     9    7    9 ar
    10    7   13 ar
    11    8   10 ar
    12    8   13 ar
    13    9   16 ar
    14   10   16 ar
    15   11   15 ar
    16   11   17 ar
    17   12   15 ar
    18   12   18 ar
    19   13   15 1
    20   14   17 1
    21   16   24 1
    22   17   23 ar
    23   18   23 ar
    24   18   25 1
    25   19   21 1
    26   20   24 1
    27   21   25 1
    28    2   26 1
    29    3   27 1
    30    4   28 1
    31    5   29 1
    32    6   30 1
    33    7   31 1
    34    8   32 1
    35    9   33 1
    36   10   34 1
    37   11   35 1
    38   19   36 1
    39   19   37 1
    40   19   38 1
    41   20   39 1
    42   20   40 1
    43   20   41 1
    44   21   42 1
    45   21   43 1
@<TRIPOS>Similarity
1.4268
@<TRIPOS>ShapeSim
0.8566
@<TRIPOS>PharmSim
0.5702
# END
# Name:		AG-690/11481224
# Created and modified by SHAFTS on Tue Sep 23 19:00:28 2014

# 

@<TRIPOS>MOLECULE
AG-690/11481224
   42    44     0
SMALL
USER_CHARGE


@<TRIPOS>ATOM
      1 C1          3.1079    2.9160   -2.3039 C.1       1 <1>         0.0465
      2 C2          6.0803   -3.3317    2.4426 C.ar      1 <1>        -0.0957
      3 C3          5.7033   -2.1355    3.0532 C.ar      1 <1>        -0.0914
      4 C4          5.9272   -3.4904    1.0653 C.ar      1 <1>        -0.0902
      5 C5          5.1730   -1.0980    2.2863 C.ar      1 <1>        -0.0745
      6 C6          5.3969   -2.4528    0.2986 C.ar      1 <1>        -0.0718
      7 C7          0.2982    1.0233   -0.2982 C.ar      1 <1>        -0.0678
      8 C8          1.2355    3.2071    0.1369 C.ar      1 <1>        -0.0664
      9 C9         -0.9816    1.5257   -0.0626 C.ar      1 <1>        -0.0641
     10 C10        -0.0442    3.7095    0.3724 C.ar      1 <1>        -0.0635
     11 C11         3.1983    0.3073    0.3604 C.ar      1 <1>        -0.0200
     12 C12         3.5451    1.8497   -1.4522 C.ar      1 <1>         0.1215
     13 C13         1.4068    1.8641   -0.1984 C.ar      1 <1>        -0.0437
     14 C14         5.0197   -1.2567    0.9090 C.ar      1 <1>        -0.0473
     15 C15         2.7340    1.3429   -0.4430 C.ar      1 <1>         0.0198
     16 C16        -1.1528    2.8686    0.2727 C.ar      1 <1>        -0.0354
     17 C17         4.4711   -0.1827    0.1157 C.ar      1 <1>        -0.0045
     18 C18         4.8025    1.2909   -1.6157 C.ar      1 <1>         0.0945
     19 C19         7.4777    1.5048   -4.8122 C.3       1 <1>        -0.0564
     20 C20         7.7936    2.2442   -3.5244 C.3       1 <1>        -0.0315
     21 C21         7.0367    1.6650   -2.3392 C.3       1 <1>         0.0258
     22 N1          2.7539    3.7797   -2.9935 N.1       1 <1>        -0.3791
     23 N2          5.2880    0.2841   -0.8552 N.ar      1 <1>        -0.3352
     24 O1          5.6410    1.7548   -2.5965 O.3       1 <1>        -0.4104
     25 Br1        -2.8865    3.5502    0.5912 Br        1 <1>        -0.1381
     26 H1          6.4948   -4.1387    3.0397 H         1 <1>         0.1198
     27 H2          5.8240   -2.0113    4.1253 H         1 <1>         0.1203
     28 H3          6.2219   -4.4210    0.5891 H         1 <1>         0.1202
     29 H4          4.8839   -0.1716    2.7770 H         1 <1>         0.1359
     30 H5          5.2839   -2.5908   -0.7742 H         1 <1>         0.1435
     31 H6          0.4156   -0.0260   -0.5588 H         1 <1>         0.1409
     32 H7          2.0896    3.8753    0.2178 H         1 <1>         0.1461
     33 H8         -1.8350    0.8573   -0.1452 H         1 <1>         0.1449
     34 H9         -0.1604    4.7582    0.6328 H         1 <1>         0.1455
     35 H10         2.5838   -0.1061    1.1556 H         1 <1>         0.1697
     36 H11         7.7177    0.4406   -4.7221 H         1 <1>         0.0371
     37 H12         6.4130    1.5937   -5.0496 H         1 <1>         0.0371
     38 H13         8.0483    1.9163   -5.6509 H         1 <1>         0.0405
     39 H14         7.5465    3.3069   -3.6352 H         1 <1>         0.0618
     40 H15         8.8717    2.2049   -3.3274 H         1 <1>         0.0618
     41 H16         7.2958    0.6125   -2.1863 H         1 <1>         0.1273
     42 H17         7.2587    2.2227   -1.4236 H         1 <1>         0.1273
@<TRIPOS>BOND
     1    1   12 1
     2    1   22 3
     3    2    3 ar
     4    2    4 ar
     5    3    5 ar
     6    4    6 ar
     7    5   14 ar
     8    6   14 ar
     9    7    9 ar
    10    7   13 ar
    11    8   10 ar
    12    8   13 ar
    13    9   16 ar
    14   10   16 ar
    15   11   15 ar
    16   11   17 ar
    17   12   15 ar
    18   12   18 ar
    19   13   15 1
    20   14   17 1
    21   16   25 1
    22   17   23 ar
    23   18   23 ar
    24   18   24 1
    25   19   20 1
    26   20   21 1
    27   21   24 1
    28    2   26 1
    29    3   27 1
    30    4   28 1
    31    5   29 1
    32    6   30 1
    33    7   31 1
    34    8   32 1
    35    9   33 1
    36   10   34 1
    37   11   35 1
    38   19   36 1
    39   19   37 1
    40   19   38 1
    41   20   39 1
    42   20   40 1
    43   21   41 1
    44   21   42 1
@<TRIPOS>Similarity
1.4255
@<TRIPOS>ShapeSim
0.8574
@<TRIPOS>PharmSim
0.5682
# END
# Name:		AG-690/40639050
# Created and modified by SHAFTS on Tue Sep 23 19:00:28 2014

# 

@<TRIPOS>MOLECULE
AG-690/40639050
   36    38     0
SMALL
USER_CHARGE


@<TRIPOS>ATOM
      1 C1          3.1152    2.9289   -2.2915 C.1       1 <1>         0.0470
      2 C2          5.8165   -2.5673    2.6425 C.2       1 <1>        -0.0743
      3 C3          1.2246    2.9151    0.7002 C.ar      1 <1>        -0.0805
      4 C4          0.3090    1.3152   -0.8615 C.ar      1 <1>        -0.0818
      5 C5         -0.0550    3.4176    0.9358 C.ar      1 <1>        -0.0961
      6 C6         -0.9707    1.8176   -0.6259 C.ar      1 <1>        -0.0966
      7 C7          5.2518   -1.3202    2.2476 C.2       1 <1>        -0.0598
      8 C8          3.1948    0.3010    0.3543 C.ar      1 <1>        -0.0148
      9 C9          5.9935   -3.4171    1.5728 C.2       1 <1>        -0.0422
     10 C10         3.5488    1.8560   -1.4461 C.ar      1 <1>         0.1222
     11 C11         1.4067    1.8639   -0.1985 C.ar      1 <1>        -0.0520
     12 C12         2.7340    1.3429   -0.4430 C.ar      1 <1>         0.0192
     13 C13        -1.1528    2.8689    0.2728 C.ar      1 <1>        -0.1092
     14 C14         4.4677   -0.1886    0.1097 C.ar      1 <1>         0.0123
     15 C15         5.0190   -1.2642    0.8908 C.2       1 <1>        -0.0094
     16 C16         4.8058    1.2968   -1.6099 C.ar      1 <1>         0.0970
     17 C17        -2.5209    3.4062    0.5244 C.3       1 <1>        -0.0422
     18 C18         6.9198    1.1394   -2.6878 C.3       1 <1>         0.0347
     19 N1          2.7642    3.7979   -2.9761 N.1       1 <1>        -0.3791
     20 N2          5.2880    0.2841   -0.8552 N.ar      1 <1>        -0.3282
     21 O1          5.6478    1.7667   -2.5852 O.3       1 <1>        -0.4073
     22 S1          5.4801   -2.7111    0.0996 S.3       1 <1>        -0.1521
     23 H1          6.0802   -2.8281    3.6590 H         1 <1>         0.1196
     24 H2          2.0704    3.3540    1.2243 H         1 <1>         0.1337
     25 H3          0.4345    0.4951   -1.5645 H         1 <1>         0.1288
     26 H4         -0.1873    4.2374    1.6368 H         1 <1>         0.1216
     27 H5         -1.8205    1.3838   -1.1464 H         1 <1>         0.1210
     28 H6          5.0318   -0.5092    2.9307 H         1 <1>         0.1411
     29 H7          2.5778   -0.1173    1.1450 H         1 <1>         0.1717
     30 H8          6.4003   -4.4183    1.5859 H         1 <1>         0.1806
     31 H9         -2.7468    4.2194   -0.1762 H         1 <1>         0.0616
     32 H10        -3.2835    2.6252    0.4085 H         1 <1>         0.0593
     33 H11        -2.6152    3.7926    1.5477 H         1 <1>         0.0589
     34 H12         7.4908    1.6018   -3.4967 H         1 <1>         0.1254
     35 H13         6.7862    0.0728   -2.8853 H         1 <1>         0.1448
     36 H14         7.4571    1.2689   -1.7454 H         1 <1>         0.1254
@<TRIPOS>BOND
     1    1   10 1
     2    1   19 3
     3    2    7 1
     4    2    9 2
     5    3    5 ar
     6    3   11 ar
     7    4    6 ar
     8    4   11 ar
     9    5   13 ar
    10    6   13 ar
    11    7   15 2
    12    8   12 ar
    13    8   14 ar
    14    9   22 1
    15   10   12 ar
    16   10   16 ar
    17   11   12 1
    18   13   17 1
    19   14   15 1
    20   14   20 ar
    21   15   22 1
    22   16   20 ar
    23   16   21 1
    24   18   21 1
    25    2   23 1
    26    3   24 1
    27    4   25 1
    28    5   26 1
    29    6   27 1
    30    7   28 1
    31    8   29 1
    32    9   30 1
    33   17   31 1
    34   17   32 1
    35   17   33 1
    36   18   34 1
    37   18   35 1
    38   18   36 1
@<TRIPOS>Similarity
1.4241
@<TRIPOS>ShapeSim
0.8649
@<TRIPOS>PharmSim
0.5592
# END
# Name:		AO-476/40672138
# Created and modified by SHAFTS on Tue Sep 23 19:00:28 2014

# 

@<TRIPOS>MOLECULE
AO-476/40672138
   35    37     0
SMALL
USER_CHARGE


@<TRIPOS>ATOM
      1 C1          5.6203   -3.3574    2.7366 C.ar      1 <1>        -0.0820
      2 C2          4.7611   -2.3255    3.1142 C.ar      1 <1>        -0.0750
      3 C3          6.1876   -3.3615    1.4622 C.ar      1 <1>        -0.0739
      4 C4          4.4691   -1.2978    2.2176 C.ar      1 <1>        -0.0502
      5 C5          5.8956   -2.3337    0.5655 C.ar      1 <1>        -0.0484
      6 C6          5.0364    1.0809   -1.5356 C.2       1 <1>         0.0737
      7 C7          1.5585    1.1735    0.4309 C.ar      1 <1>         0.1155
      8 C8          3.7404    1.3493   -1.0458 C.ar      1 <1>         0.0967
      9 C9          5.0364   -1.3018    0.9432 C.ar      1 <1>        -0.0004
     10 C10         3.5855    0.4415   -0.0100 C.ar      1 <1>         0.1074
     11 C11         2.7025    2.2256   -1.3416 C.ar      1 <1>         0.0965
     12 C12        -0.5082    3.3301    0.1014 C.2       1 <1>        -0.0198
     13 C13        -2.0259    3.4397   -1.9355 C.3       1 <1>         0.0081
     14 N1          5.6511    0.0951   -0.8739 N.2       1 <1>        -0.2936
     15 N2          2.5125    0.2920    0.7817 N.ar      1 <1>        -0.2699
     16 N3          4.7441   -0.2740    0.0476 N.pl3     1 <1>        -0.2601
     17 N4          1.6324    2.0780   -0.5529 N.ar      1 <1>        -0.2793
     18 N5          2.7506    3.1816   -2.3655 N.pl3     1 <1>        -0.2844
     19 N6         -1.7276    3.5649   -0.5212 N.pl3     1 <1>        -0.3541
     20 N7          0.4629    2.9463   -0.7626 N.pl3     1 <1>        -0.2723
     21 S1         -0.4638    3.4982    1.7724 S.2       1 <1>        -0.2548
     22 H1          5.8494   -4.1568    3.4349 H         1 <1>         0.1354
     23 H2          4.3204   -2.3213    4.1068 H         1 <1>         0.1391
     24 H3          6.8576   -4.1646    1.1694 H         1 <1>         0.1401
     25 H4          3.7984   -0.4989    2.5248 H         1 <1>         0.1531
     26 H5          6.3451   -2.3488   -0.4243 H         1 <1>         0.1584
     27 H6          5.5603    1.5634   -2.3486 H         1 <1>         0.2991
     28 H7          0.6386    1.1474    1.0045 H         1 <1>         0.4062
     29 H8         -1.8249    4.3846   -2.4469 H         1 <1>         0.1178
     30 H9         -3.0784    3.1792   -2.0781 H         1 <1>         0.1184
     31 H10        -1.4075    2.6579   -2.3845 H         1 <1>         0.1219
     32 H11         3.5911    3.2906   -2.9041 H         1 <1>         0.3145
     33 H12         1.9801    3.8133   -2.4912 H         1 <1>         0.3265
     34 H13        -2.4888    3.8706    0.0773 H         1 <1>         0.3014
     35 H14         0.3940    3.2075   -1.7222 H         1 <1>         0.3886
@<TRIPOS>BOND
     1    1    2 ar
     2    1    3 ar
     3    2    4 ar
     4    3    5 ar
     5    4    9 ar
     6    5    9 ar
     7    6    8 1
     8    6   14 2
     9    7   15 ar
    10    7   17 ar
    11    8   10 ar
    12    8   11 ar
    13    9   16 1
    14   10   15 ar
    15   10   16 1
    16   11   17 ar
    17   11   18 1
    18   12   19 1
    19   12   20 1
    20   12   21 2
    21   13   19 1
    22   14   16 1
    23   17   20 1
    24    1   22 1
    25    2   23 1
    26    3   24 1
    27    4   25 1
    28    5   26 1
    29    6   27 1
    30    7   28 1
    31   13   29 1
    32   13   30 1
    33   13   31 1
    34   18   32 1
    35   18   33 1
    36   19   34 1
    37   20   35 1
@<TRIPOS>Similarity
1.4209
@<TRIPOS>ShapeSim
0.8266
@<TRIPOS>PharmSim
0.5943
# END
# Name:		AG-690/40749446
# Created and modified by SHAFTS on Tue Sep 23 19:00:28 2014

# 

@<TRIPOS>MOLECULE
AG-690/40749446
   42    44     0
SMALL
USER_CHARGE


@<TRIPOS>ATOM
      1 C1          3.1632    2.7422   -2.1468 C.1       1 <1>         0.0366
      2 C2          5.8743   -3.5138    2.7499 C.ar      1 <1>        -0.0961
      3 C3          5.5117   -2.2995    3.3327 C.ar      1 <1>        -0.0919
      4 C4          5.7535   -3.6894    1.3714 C.ar      1 <1>        -0.0907
      5 C5          5.0282   -1.2608    2.5370 C.ar      1 <1>        -0.0755
      6 C6          5.2700   -2.6507    0.5758 C.ar      1 <1>        -0.0727
      7 C7          0.2803    0.9407   -0.2044 C.ar      1 <1>        -0.0667
      8 C8          1.2587    3.1067    0.2295 C.ar      1 <1>        -0.0653
      9 C9         -0.9925    1.4762   -0.0069 C.ar      1 <1>        -0.0561
     10 C10        -0.0140    3.6421    0.4269 C.ar      1 <1>        -0.0556
     11 C11         3.1415    0.1645    0.5386 C.ar      1 <1>        -0.0228
     12 C12         3.5775    1.6728   -1.2834 C.ar      1 <1>         0.0974
     13 C13         1.4060    1.7560   -0.0861 C.ar      1 <1>        -0.0467
     14 C14         4.9074   -1.4364    1.1586 C.ar      1 <1>        -0.0494
     15 C15         2.7263    1.2005   -0.2905 C.ar      1 <1>         0.0095
     16 C16        -1.1396    2.8269    0.3088 C.ar      1 <1>        -0.0143
     17 C17         4.4073   -0.3612    0.3355 C.ar      1 <1>        -0.0124
     18 C18         4.8239    1.0797   -1.4048 C.ar      1 <1>         0.0501
     19 C19         6.8066    2.8552   -0.3580 C.3       1 <1>        -0.0445
     20 C20         8.1574    0.8773   -1.1354 C.3       1 <1>        -0.0428
     21 C21         7.3612    2.1045   -1.5628 C.3       1 <1>        -0.0050
     22 N1          2.8281    3.6067   -2.8447 N.1       1 <1>        -0.3783
     23 N2          5.2623    0.0714   -0.6183 N.ar      1 <1>        -0.3579
     24 S1          6.0065    1.6047   -2.6450 S.3       1 <1>        -0.1573
     25 Cl1        -2.7104    3.4864    0.5539 Cl        1 <1>        -0.1813
     26 H1          6.2522   -4.3217    3.3694 H         1 <1>         0.1193
     27 H2          5.6073   -2.1620    4.4058 H         1 <1>         0.1199
     28 H3          6.0369   -4.6341    0.9167 H         1 <1>         0.1199
     29 H4          4.7500   -0.3200    3.0064 H         1 <1>         0.1345
     30 H5          5.1819   -2.8020   -0.4974 H         1 <1>         0.1427
     31 H6          0.3788   -0.1140   -0.4497 H         1 <1>         0.1407
     32 H7          2.1267    3.7550    0.3260 H         1 <1>         0.1460
     33 H8         -1.8610    0.8291   -0.1002 H         1 <1>         0.1469
     34 H9         -0.1137    4.6963    0.6736 H         1 <1>         0.1475
     35 H10         2.4958   -0.2225    1.3221 H         1 <1>         0.1727
     36 H11         6.1516    2.2017    0.2291 H         1 <1>         0.0442
     37 H12         7.6102    3.1925    0.3061 H         1 <1>         0.0470
     38 H13         6.2170    3.7293   -0.6568 H         1 <1>         0.0537
     39 H14         7.5231    0.1935   -0.5602 H         1 <1>         0.0492
     40 H15         9.0028    1.1533   -0.4955 H         1 <1>         0.0558
     41 H16         8.5447    0.3209   -1.9965 H         1 <1>         0.0492
     42 H17         8.0120    2.7740   -2.1352 H         1 <1>         0.1002
@<TRIPOS>BOND
     1    1   12 1
     2    1   22 3
     3    2    3 ar
     4    2    4 ar
     5    3    5 ar
     6    4    6 ar
     7    5   14 ar
     8    6   14 ar
     9    7    9 ar
    10    7   13 ar
    11    8   10 ar
    12    8   13 ar
    13    9   16 ar
    14   10   16 ar
    15   11   15 ar
    16   11   17 ar
    17   12   15 ar
    18   12   18 ar
    19   13   15 1
    20   14   17 1
    21   16   25 1
    22   17   23 ar
    23   18   23 ar
    24   18   24 1
    25   19   21 1
    26   20   21 1
    27   21   24 1
    28    2   26 1
    29    3   27 1
    30    4   28 1
    31    5   29 1
    32    6   30 1
    33    7   31 1
    34    8   32 1
    35    9   33 1
    36   10   34 1
    37   11   35 1
    38   19   36 1
    39   19   37 1
    40   19   38 1
    41   20   39 1
    42   20   40 1
    43   20   41 1
    44   21   42 1
@<TRIPOS>Similarity
1.4205
@<TRIPOS>ShapeSim
0.8442
@<TRIPOS>PharmSim
0.5763
# END
# Name:		AM-807/12740324
# Created and modified by SHAFTS on Tue Sep 23 19:00:28 2014

# 

@<TRIPOS>MOLECULE
AM-807/12740324
   46    49     0
SMALL
USER_CHARGE


@<TRIPOS>ATOM
      1 C1          5.6236   -2.6522    2.8862 C.2       1 <1>        -0.0738
      2 C2          1.0904    2.8589    0.8380 C.ar      1 <1>        -0.0685
      3 C3          0.1726    1.2487   -0.7118 C.ar      1 <1>        -0.0687
      4 C4         -0.1836    3.3890    1.0417 C.ar      1 <1>        -0.0566
      5 C5         -1.1016    1.7788   -0.5080 C.ar      1 <1>        -0.0565
      6 C6          5.0768   -1.4040    2.4703 C.2       1 <1>        -0.0589
      7 C7          3.0555    0.2034    0.5504 C.ar      1 <1>        -0.0265
      8 C8          5.8021   -3.5171    1.8289 C.2       1 <1>        -0.0422
      9 C9          3.4238    1.7431   -1.2677 C.ar      1 <1>         0.0075
     10 C10         1.2684    1.7888   -0.0389 C.ar      1 <1>        -0.0581
     11 C11         2.5874    1.2404   -0.2502 C.ar      1 <1>        -0.0260
     12 C12         3.2472    2.7796   -2.2396 C.2       1 <1>         0.0114
     13 C13        -1.2796    2.8490    0.3688 C.ar      1 <1>        -0.0144
     14 C14         4.3259   -0.2890    0.3098 C.ar      1 <1>         0.0073
     15 C15         4.8582   -1.3623    1.1107 C.2       1 <1>        -0.0090
     16 C16         4.3480    2.9352   -3.0531 C.2       1 <1>         0.0672
     17 C17         4.6771    1.1537   -1.3972 C.ar      1 <1>         0.0496
     18 C18         4.5597    3.8509   -4.1298 C.2       1 <1>         0.0873
     19 C19         7.1044    3.9227   -6.8373 C.3       1 <1>        -0.0471
     20 C20         6.8223    5.9209   -5.3294 C.3       1 <1>        -0.0493
     21 C21         6.1684    4.6704   -5.8989 C.3       1 <1>        -0.0115
     22 N1          5.1734    0.1482   -0.6461 N.ar      1 <1>        -0.3458
     23 N2          2.1305    3.5392   -2.3674 N.pl3     1 <1>        -0.3455
     24 N3          5.7964    3.7988   -4.8078 N.am      1 <1>        -0.3367
     25 O1          3.6862    4.6935   -4.4564 O.2       1 <1>        -0.5144
     26 S1          5.3113   -2.8238    0.3420 S.3       1 <1>        -0.1523
     27 S2          5.5996    1.8401   -2.6564 S.3       1 <1>        -0.0644
     28 Cl1        -2.8511    3.5045    0.6196 Cl        1 <1>        -0.1807
     29 H1          5.8742   -2.9032    3.9085 H         1 <1>         0.1208
     30 H2          1.9348    3.2910    1.3696 H         1 <1>         0.1443
     31 H3          0.2953    0.4150   -1.3992 H         1 <1>         0.1438
     32 H4         -0.3079    4.2243    1.7265 H         1 <1>         0.1467
     33 H5         -1.9463    1.3488   -1.0401 H         1 <1>         0.1472
     34 H6          4.8588   -0.5822    3.1412 H         1 <1>         0.1427
     35 H7          2.4370   -0.2080    1.3442 H         1 <1>         0.1710
     36 H8          6.1976   -4.5225    1.8585 H         1 <1>         0.1808
     37 H9          8.0257    3.6341   -6.3208 H         1 <1>         0.0476
     38 H10         6.6346    3.0142   -7.2306 H         1 <1>         0.0542
     39 H11         7.3778    4.5488   -7.6937 H         1 <1>         0.0481
     40 H12         7.7394    5.6668   -4.7868 H         1 <1>         0.0485
     41 H13         6.1478    6.4318   -4.6346 H         1 <1>         0.0435
     42 H14         7.0942    6.6269   -6.1222 H         1 <1>         0.0456
     43 H15         5.2552    4.9487   -6.4361 H         1 <1>         0.1038
     44 H16         1.2987    3.3816   -1.7855 H         1 <1>         0.2565
     45 H17         2.0345    4.2398   -3.1125 H         1 <1>         0.2466
     46 H18         6.5012    3.1486   -4.4755 H         1 <1>         0.2846
@<TRIPOS>BOND
     1    1    6 1
     2    1    8 2
     3    2    4 ar
     4    2   10 ar
     5    3    5 ar
     6    3   10 ar
     7    4   13 ar
     8    5   13 ar
     9    6   15 2
    10    7   11 ar
    11    7   14 ar
    12    8   26 1
    13    9   11 ar
    14    9   12 1
    15    9   17 ar
    16   10   11 1
    17   12   16 2
    18   12   23 1
    19   13   28 1
    20   14   15 1
    21   14   22 ar
    22   15   26 1
    23   16   18 1
    24   16   27 1
    25   17   22 ar
    26   17   27 1
    27   18   24 am
    28   18   25 2
    29   19   21 1
    30   20   21 1
    31   21   24 1
    32    1   29 1
    33    2   30 1
    34    3   31 1
    35    4   32 1
    36    5   33 1
    37    6   34 1
    38    7   35 1
    39    8   36 1
    40   19   37 1
    41   19   38 1
    42   19   39 1
    43   20   40 1
    44   20   41 1
    45   20   42 1
    46   21   43 1
    47   23   44 1
    48   23   45 1
    49   24   46 1
@<TRIPOS>Similarity
1.4173
@<TRIPOS>ShapeSim
0.7993
@<TRIPOS>PharmSim
0.6180
# END
# Name:		AO-081/40738502
# Created and modified by SHAFTS on Tue Sep 23 19:00:28 2014

# 

@<TRIPOS>MOLECULE
AO-081/40738502
   52    55     0
SMALL
USER_CHARGE


@<TRIPOS>ATOM
      1 C1          5.9443   -3.0837    2.2602 C.ar      1 <1>        -0.0901
      2 C2          6.1329   -2.7968    0.9082 C.ar      1 <1>        -0.0808
      3 C3          5.0108   -2.3610    3.0030 C.ar      1 <1>        -0.0813
      4 C4         -0.3238    1.2807   -0.4508 C.ar      1 <1>        -0.0685
      5 C5          0.5942    2.8919    1.0979 C.ar      1 <1>        -0.0675
      6 C6         -1.5893    1.8441   -0.2869 C.ar      1 <1>        -0.0897
      7 C7         -0.6713    3.4554    1.2618 C.ar      1 <1>        -0.0903
      8 C8          5.3878   -1.7871    0.2991 C.ar      1 <1>        -0.0545
      9 C9          4.2658   -1.3513    2.3938 C.ar      1 <1>        -0.0550
     10 C10         4.4071    2.4843   -2.6228 C.ar      1 <1>        -0.0035
     11 C11         3.0526    1.5795   -0.8789 C.ar      1 <1>         0.0633
     12 C12         0.7679    1.8046    0.2416 C.ar      1 <1>        -0.0303
     13 C13        -1.7629    2.9314    0.5694 C.ar      1 <1>        -0.1080
     14 C14         3.2000    2.4999   -1.9239 C.ar      1 <1>         0.1055
     15 C15         4.4543   -1.0642    1.0419 C.ar      1 <1>        -0.0092
     16 C16         2.0753    1.2227    0.0714 C.2       1 <1>         0.0421
     17 C17         5.3874    1.5699   -2.2522 C.ar      1 <1>        -0.0257
     18 C18         4.1097    0.7228   -0.6140 C.ar      1 <1>         0.0558
     19 C19         6.6759    1.5648   -3.0113 C.3       1 <1>        -0.0028
     20 C20        -4.1338    2.4891    1.2972 C.3       1 <1>        -0.0604
     21 C21        -3.6778    4.0638   -0.6130 C.3       1 <1>        -0.0606
     22 C22        -3.1892    4.7487    1.7267 C.3       1 <1>        -0.0604
     23 C23        -3.1161    3.5339    0.7429 C.3       1 <1>        -0.0511
     24 C24         2.1452    3.4803   -2.3184 C.3       1 <1>         0.3535
     25 N1          2.4704    0.2276    0.8725 N.2       1 <1>        -0.3093
     26 N2          5.2921    0.6618   -1.2509 N.ar      1 <1>        -0.3587
     27 N3          3.7098   -0.0551    0.4322 N.pl3     1 <1>        -0.2796
     28 F1          2.5069    4.2801   -3.3641 F         1 <1>        -0.2094
     29 F2          0.9739    2.8949   -2.7046 F         1 <1>        -0.2071
     30 F3          1.8145    4.3300   -1.3035 F         1 <1>        -0.2068
     31 H1          6.5229   -3.8710    2.7344 H         1 <1>         0.1212
     32 H2          6.8587   -3.3603    0.3294 H         1 <1>         0.1305
     33 H3          4.8635   -2.5860    4.0555 H         1 <1>         0.1295
     34 H4         -0.2053    0.4330   -1.1215 H         1 <1>         0.1385
     35 H5          1.4353    3.3118    1.6447 H         1 <1>         0.1444
     36 H6         -2.4343    1.4305   -0.8307 H         1 <1>         0.1270
     37 H7         -0.7983    4.3025    1.9307 H         1 <1>         0.1245
     38 H8          5.5439   -1.5741   -0.7556 H         1 <1>         0.1504
     39 H9          3.5409   -0.7960    2.9844 H         1 <1>         0.1492
     40 H10         4.5782    3.1766   -3.4425 H         1 <1>         0.1766
     41 H11         7.3922    2.2495   -2.5443 H         1 <1>         0.0995
     42 H12         7.1148    0.5606   -3.0365 H         1 <1>         0.0972
     43 H13         6.5217    1.8738   -4.0518 H         1 <1>         0.0976
     44 H14        -5.1379    2.9071    1.4341 H         1 <1>         0.0389
     45 H15        -4.2337    1.6303    0.6243 H         1 <1>         0.0404
     46 H16        -3.7953    2.1086    2.2682 H         1 <1>         0.0392
     47 H17        -4.6719    4.5072   -0.4896 H         1 <1>         0.0391
     48 H18        -3.0388    4.8314   -1.0653 H         1 <1>         0.0393
     49 H19        -3.7713    3.2415   -1.3320 H         1 <1>         0.0391
     50 H20        -4.2031    5.1560    1.8204 H         1 <1>         0.0392
     51 H21        -2.8661    4.4559    2.7325 H         1 <1>         0.0405
     52 H22        -2.5442    5.5664    1.3849 H         1 <1>         0.0389
@<TRIPOS>BOND
     1    1    2 ar
     2    1    3 ar
     3    2    8 ar
     4    3    9 ar
     5    4    6 ar
     6    4   12 ar
     7    5    7 ar
     8    5   12 ar
     9    6   13 ar
    10    7   13 ar
    11    8   15 ar
    12    9   15 ar
    13   10   14 ar
    14   10   17 ar
    15   11   14 ar
    16   11   16 1
    17   11   18 ar
    18   12   16 1
    19   13   23 1
    20   14   24 1
    21   15   27 1
    22   16   25 2
    23   17   19 1
    24   17   26 ar
    25   18   26 ar
    26   18   27 1
    27   20   23 1
    28   21   23 1
    29   22   23 1
    30   24   28 1
    31   24   29 1
    32   24   30 1
    33   25   27 1
    34    1   31 1
    35    2   32 1
    36    3   33 1
    37    4   34 1
    38    5   35 1
    39    6   36 1
    40    7   37 1
    41    8   38 1
    42    9   39 1
    43   10   40 1
    44   19   41 1
    45   19   42 1
    46   19   43 1
    47   20   44 1
    48   20   45 1
    49   20   46 1
    50   21   47 1
    51   21   48 1
    52   21   49 1
    53   22   50 1
    54   22   51 1
    55   22   52 1
@<TRIPOS>Similarity
1.4171
@<TRIPOS>ShapeSim
0.8148
@<TRIPOS>PharmSim
0.6023
# END
# Name:		AG-690/40749461
# Created and modified by SHAFTS on Tue Sep 23 19:00:28 2014

# 

@<TRIPOS>MOLECULE
AG-690/40749461
   40    42     0
SMALL
USER_CHARGE


@<TRIPOS>ATOM
      1 C1          3.0868    2.7708   -2.1325 C.1       1 <1>         0.0355
      2 C2          5.0248   -1.2387    2.5167 C.ar      1 <1>        -0.0549
      3 C3          5.2605   -2.6168    0.5464 C.ar      1 <1>        -0.0628
      4 C4          1.1765    2.8280    0.8192 C.ar      1 <1>        -0.0654
      5 C5          0.2591    1.2190   -0.7321 C.ar      1 <1>        -0.0667
      6 C6          5.5234   -2.2773    3.3029 C.ar      1 <1>        -0.0534
      7 C7          5.7591   -3.6556    1.3326 C.ar      1 <1>        -0.0617
      8 C8         -0.0988    3.3527    1.0292 C.ar      1 <1>        -0.0557
      9 C9         -1.0161    1.7436   -0.5221 C.ar      1 <1>        -0.0561
     10 C10         3.1092    0.1808    0.5410 C.ar      1 <1>        -0.0239
     11 C11         3.5173    1.7009   -1.2776 C.ar      1 <1>         0.0960
     12 C12         1.3556    1.7611   -0.0615 C.ar      1 <1>        -0.0469
     13 C13         4.8933   -1.4085    1.1384 C.ar      1 <1>        -0.0427
     14 C14         2.6785    1.2173   -0.2797 C.ar      1 <1>         0.0086
     15 C15         5.8905   -3.4857    2.7109 C.ar      1 <1>        -0.0353
     16 C16        -1.1950    2.8105    0.3586 C.ar      1 <1>        -0.0145
     17 C17         4.3773   -0.3336    0.3246 C.ar      1 <1>        -0.0128
     18 C18         4.7673    1.1185   -1.4125 C.ar      1 <1>         0.0487
     19 C19         6.4862   -4.2572    4.8802 C.3       1 <1>         0.0114
     20 C20         7.2949    0.5303   -2.2950 C.3       1 <1>         0.0057
     21 N1          2.7388    3.6358   -2.8235 N.1       1 <1>        -0.3790
     22 N2          5.2206    0.1102   -0.6345 N.ar      1 <1>        -0.3602
     23 O1          6.3776   -4.4987    3.4781 O.3       1 <1>        -0.4624
     24 S1          5.9349    1.6587   -2.6603 S.3       1 <1>        -0.1540
     25 Cl1        -2.7679    3.4593    0.6171 Cl        1 <1>        -0.1816
     26 H1          4.7429   -0.3025    2.9927 H         1 <1>         0.1592
     27 H2          5.1640   -2.7646   -0.5266 H         1 <1>         0.1445
     28 H3          2.0213    3.2616    1.3492 H         1 <1>         0.1459
     29 H4          0.3826    0.3878   -1.4224 H         1 <1>         0.1409
     30 H5          5.6237   -2.1390    4.3759 H         1 <1>         0.1466
     31 H6          6.0437   -4.5946    0.8659 H         1 <1>         0.1300
     32 H7         -0.2236    4.1854    1.7169 H         1 <1>         0.1473
     33 H8         -1.8613    1.3119   -1.0524 H         1 <1>         0.1469
     34 H9          2.4733   -0.2149    1.3283 H         1 <1>         0.1714
     35 H10         6.8878   -5.1455    5.3737 H         1 <1>         0.1098
     36 H11         5.5009   -4.0155    5.2867 H         1 <1>         0.1332
     37 H12         7.1624   -3.4149    5.0444 H         1 <1>         0.1098
     38 H13         8.1266    0.7168   -2.9786 H         1 <1>         0.0974
     39 H14         6.9612   -0.5035   -2.4134 H         1 <1>         0.0974
     40 H15         7.6358    0.6805   -1.2678 H         1 <1>         0.1038
@<TRIPOS>BOND
     1    1   11 1
     2    1   21 3
     3    2    6 ar
     4    2   13 ar
     5    3    7 ar
     6    3   13 ar
     7    4    8 ar
     8    4   12 ar
     9    5    9 ar
    10    5   12 ar
    11    6   15 ar
    12    7   15 ar
    13    8   16 ar
    14    9   16 ar
    15   10   14 ar
    16   10   17 ar
    17   11   14 ar
    18   11   18 ar
    19   12   14 1
    20   13   17 1
    21   15   23 1
    22   16   25 1
    23   17   22 ar
    24   18   22 ar
    25   18   24 1
    26   19   23 1
    27   20   24 1
    28    2   26 1
    29    3   27 1
    30    4   28 1
    31    5   29 1
    32    6   30 1
    33    7   31 1
    34    8   32 1
    35    9   33 1
    36   10   34 1
    37   19   35 1
    38   19   36 1
    39   19   37 1
    40   20   38 1
    41   20   39 1
    42   20   40 1
@<TRIPOS>Similarity
1.4139
@<TRIPOS>ShapeSim
0.8674
@<TRIPOS>PharmSim
0.5465
# END
# Name:		AM-807/14956052
# Created and modified by SHAFTS on Tue Sep 23 19:00:28 2014

# 

@<TRIPOS>MOLECULE
AM-807/14956052
   34    37     0
SMALL
USER_CHARGE


@<TRIPOS>ATOM
      1 C1          4.4775    3.8076   -4.2294 C.1       1 <1>         0.0456
      2 C2          5.6531   -2.5465    2.9302 C.2       1 <1>        -0.0736
      3 C3          1.1148    2.9141    0.7655 C.ar      1 <1>        -0.0685
      4 C4          0.1879    1.2653   -0.7377 C.ar      1 <1>        -0.0684
      5 C5         -0.1579    3.4497    0.9630 C.ar      1 <1>        -0.0568
      6 C6         -1.0848    1.8010   -0.5403 C.ar      1 <1>        -0.0564
      7 C7          5.1057   -1.3087    2.4850 C.2       1 <1>        -0.0586
      8 C8          3.0770    0.2512    0.5349 C.ar      1 <1>        -0.0253
      9 C9          5.8255   -3.4382    1.8945 C.2       1 <1>        -0.0421
     10 C10         4.3524    2.8886   -3.1443 C.2       1 <1>         0.1241
     11 C11         3.4368    1.7435   -1.3241 C.ar      1 <1>         0.0166
     12 C12         1.2878    1.8219   -0.0849 C.ar      1 <1>        -0.0576
     13 C13         2.6056    1.2679   -0.2896 C.ar      1 <1>        -0.0237
     14 C14         3.2559    2.7548   -2.3213 C.2       1 <1>         0.0299
     15 C15        -1.2577    2.8930    0.3100 C.ar      1 <1>        -0.0146
     16 C16         4.3458   -0.2482    0.3003 C.ar      1 <1>         0.0091
     17 C17         4.8807   -1.3014    1.1258 C.2       1 <1>        -0.0084
     18 C18         4.6890    1.1499   -1.4450 C.ar      1 <1>         0.0649
     19 N1          4.5792    4.5546   -5.1116 N.1       1 <1>        -0.3792
     20 N2          5.1886    0.1636   -0.6710 N.ar      1 <1>        -0.3406
     21 N3          2.1337    3.5078   -2.4548 N.pl3     1 <1>        -0.3453
     22 S1          5.3284   -2.7827    0.3927 S.3       1 <1>        -0.1521
     23 S2          5.6053    1.8030   -2.7263 S.3       1 <1>        -0.0292
     24 Cl1        -2.8276    3.5553    0.5530 Cl        1 <1>        -0.1807
     25 H1          5.9082   -2.7716    3.9574 H         1 <1>         0.1210
     26 H2          1.9623    3.3590    1.2814 H         1 <1>         0.1447
     27 H3          0.3067    0.4145   -1.4045 H         1 <1>         0.1445
     28 H4         -0.2782    4.3021    1.6269 H         1 <1>         0.1461
     29 H5         -1.9328    1.3578   -1.0565 H         1 <1>         0.1473
     30 H6          4.8919   -0.4697    3.1357 H         1 <1>         0.1433
     31 H7          2.4629   -0.1395    1.3423 H         1 <1>         0.1723
     32 H8          6.2200   -4.4433    1.9478 H         1 <1>         0.1811
     33 H9          2.0646    4.2553   -3.1552 H         1 <1>         0.2451
     34 H10         1.3464    3.4245   -1.8012 H         1 <1>         0.2453
@<TRIPOS>BOND
     1    1   10 1
     2    1   19 3
     3    2    7 1
     4    2    9 2
     5    3    5 ar
     6    3   12 ar
     7    4    6 ar
     8    4   12 ar
     9    5   15 ar
    10    6   15 ar
    11    7   17 2
    12    8   13 ar
    13    8   16 ar
    14    9   22 1
    15   10   14 2
    16   10   23 1
    17   11   13 ar
    18   11   14 1
    19   11   18 ar
    20   12   13 1
    21   14   21 1
    22   15   24 1
    23   16   17 1
    24   16   20 ar
    25   17   22 1
    26   18   20 ar
    27   18   23 1
    28    2   25 1
    29    3   26 1
    30    4   27 1
    31    5   28 1
    32    6   29 1
    33    7   30 1
    34    8   31 1
    35    9   32 1
    36   21   33 1
    37   21   34 1
@<TRIPOS>Similarity
1.4127
@<TRIPOS>ShapeSim
0.8539
@<TRIPOS>PharmSim
0.5588
# END
# Name:		AF-399/14664025
# Created and modified by SHAFTS on Tue Sep 23 19:00:28 2014

# 

@<TRIPOS>MOLECULE
AF-399/14664025
   29    32     0
SMALL
USER_CHARGE


@<TRIPOS>ATOM
      1 C1          0.8013    3.5000    0.0888 C.ar      1 <1>        -0.0885
      2 C2          0.2409    1.2161   -0.4652 C.ar      1 <1>        -0.0852
      3 C3         -0.4602    3.6714    0.6587 C.ar      1 <1>        -0.1007
      4 C4         -1.0207    1.3875    0.1049 C.ar      1 <1>        -0.0974
      5 C5          2.8552    2.8839   -2.1191 C.2       1 <1>         0.0046
      6 C6          4.4027   -1.4041    1.4277 C.2       1 <1>         0.0719
      7 C7          1.1519    2.2724   -0.4733 C.ar      1 <1>        -0.0669
      8 C8          2.4536    2.0959   -1.0605 C.2       1 <1>        -0.0138
      9 C9          3.4688    1.1810   -0.7100 C.2       1 <1>         0.0383
     10 C10        -1.3711    2.6150    0.6668 C.ar      1 <1>        -0.1111
     11 C11         4.6163    1.2724   -1.4838 C.2       1 <1>         0.0578
     12 C12         3.5065    0.2102    0.2780 C.2       1 <1>         0.0782
     13 C13         5.7503   -0.3846   -0.4307 C.2       1 <1>         0.0638
     14 C14        -2.7192    2.7990    1.2777 C.3       1 <1>        -0.0439
     15 N1          3.1959   -1.1800    1.9094 N.2       1 <1>        -0.2857
     16 N2          2.6229   -0.1494    1.1759 N.2       1 <1>        -0.2819
     17 N3          5.7604    0.5180   -1.3757 N.2       1 <1>        -0.3213
     18 N4          4.6406   -0.5493    0.3974 N.pl3     1 <1>        -0.2606
     19 S1          4.4408    2.5032   -2.6602 S.3       1 <1>        -0.0919
     20 H1          1.4996    4.3336    0.0899 H         1 <1>         0.1245
     21 H2          0.4992    0.2529   -0.8992 H         1 <1>         0.1293
     22 H3         -0.7251    4.6308    1.0951 H         1 <1>         0.1147
     23 H4         -1.7246    0.5595    0.1072 H         1 <1>         0.1193
     24 H5          2.3027    3.6732   -2.6114 H         1 <1>         0.2154
     25 H6          5.1117   -2.1415    1.7756 H         1 <1>         0.3146
     26 H7          6.6247   -1.0352   -0.2707 H         1 <1>         0.3437
     27 H8         -3.4334    3.1573    0.5262 H         1 <1>         0.0591
     28 H9         -3.0984    1.8580    1.6971 H         1 <1>         0.0572
     29 H10        -2.6879    3.5239    2.1014 H         1 <1>         0.0567
@<TRIPOS>BOND
     1    1    3 ar
     2    1    7 ar
     3    2    4 ar
     4    2    7 ar
     5    3   10 ar
     6    4   10 ar
     7    5    8 2
     8    5   19 1
     9    6   15 2
    10    6   18 1
    11    7    8 1
    12    8    9 1
    13    9   11 2
    14    9   12 1
    15   10   14 1
    16   11   17 1
    17   11   19 1
    18   12   16 2
    19   12   18 1
    20   13   17 2
    21   13   18 1
    22   15   16 1
    23    1   20 1
    24    2   21 1
    25    3   22 1
    26    4   23 1
    27    5   24 1
    28    6   25 1
    29   13   26 1
    30   14   27 1
    31   14   28 1
    32   14   29 1
@<TRIPOS>Similarity
1.4031
@<TRIPOS>ShapeSim
0.8225
@<TRIPOS>PharmSim
0.5806
# END
# Name:		AG-690/40749470
# Created and modified by SHAFTS on Tue Sep 23 19:00:28 2014

# 

@<TRIPOS>MOLECULE
AG-690/40749470
   46    48     0
SMALL
USER_CHARGE


@<TRIPOS>ATOM
      1 C1          3.0872    2.7709   -2.1329 C.1       1 <1>         0.0356
      2 C2          5.0245   -1.2385    2.5166 C.ar      1 <1>        -0.0629
      3 C3          5.2604   -2.6167    0.5463 C.ar      1 <1>        -0.0549
      4 C4          0.2356    0.9376   -0.1745 C.ar      1 <1>        -0.0668
      5 C5          1.2003    3.1094    0.2610 C.ar      1 <1>        -0.0654
      6 C6          5.5230   -2.2771    3.3029 C.ar      1 <1>        -0.0618
      7 C7          5.7589   -3.6554    1.3327 C.ar      1 <1>        -0.0536
      8 C8         -1.0397    1.4618    0.0363 C.ar      1 <1>        -0.0562
      9 C9         -0.0749    3.6336    0.4718 C.ar      1 <1>        -0.0557
     10 C10         3.1092    0.1811    0.5406 C.ar      1 <1>        -0.0239
     11 C11         3.5176    1.7011   -1.2779 C.ar      1 <1>         0.0966
     12 C12         1.3557    1.7614   -0.0621 C.ar      1 <1>        -0.0470
     13 C13         4.8932   -1.4083    1.1384 C.ar      1 <1>        -0.0426
     14 C14         2.6787    1.2175   -0.2802 C.ar      1 <1>         0.0088
     15 C15         5.8901   -3.4855    2.7109 C.ar      1 <1>        -0.0354
     16 C16        -1.1950    2.8098    0.3594 C.ar      1 <1>        -0.0145
     17 C17         4.3774   -0.3335    0.3244 C.ar      1 <1>        -0.0123
     18 C18         4.7676    1.1186   -1.4126 C.ar      1 <1>         0.0494
     19 C19         8.2019    0.4059   -3.5134 C.3       1 <1>        -0.0445
     20 C20         8.0645    1.0297   -1.0777 C.3       1 <1>        -0.0429
     21 C21         6.7333   -5.7072    2.8086 C.3       1 <1>         0.0114
     22 C22         7.2952    0.5302   -2.2948 C.3       1 <1>        -0.0050
     23 N1          2.7395    3.6360   -2.8240 N.1       1 <1>        -0.3793
     24 N2          5.2207    0.1103   -0.6346 N.ar      1 <1>        -0.3588
     25 O1          6.3770   -4.4986    3.4783 O.3       1 <1>        -0.4625
     26 S1          5.9354    1.6587   -2.6604 S.3       1 <1>        -0.1576
     27 Cl1        -2.7688    3.4556    0.6208 Cl        1 <1>        -0.1816
     28 H1          4.7427   -0.3023    2.9925 H         1 <1>         0.1443
     29 H2          5.1641   -2.7645   -0.5266 H         1 <1>         0.1593
     30 H3          0.3406   -0.1153   -0.4255 H         1 <1>         0.1407
     31 H4          2.0638    3.7642    0.3531 H         1 <1>         0.1458
     32 H5          5.6232   -2.1389    4.3760 H         1 <1>         0.1299
     33 H6          6.0435   -4.5945    0.8661 H         1 <1>         0.1463
     34 H7         -1.9039    0.8081   -0.0528 H         1 <1>         0.1468
     35 H8         -0.1811    4.6858    0.7241 H         1 <1>         0.1472
     36 H9          2.4733   -0.2146    1.3279 H         1 <1>         0.1709
     37 H10         8.6475    1.3769   -3.7569 H         1 <1>         0.0441
     38 H11         9.0251   -0.2931   -3.3283 H         1 <1>         0.0472
     39 H12         7.6529    0.0649   -4.3985 H         1 <1>         0.0538
     40 H13         8.5081    2.0102   -1.2836 H         1 <1>         0.0492
     41 H14         8.8834    0.3499   -0.8169 H         1 <1>         0.0559
     42 H15         7.4160    1.1395   -0.2009 H         1 <1>         0.0491
     43 H16         7.1068   -6.4315    3.5366 H         1 <1>         0.1097
     44 H17         7.5017   -5.4973    2.0603 H         1 <1>         0.1097
     45 H18         5.8477   -6.1140    2.3146 H         1 <1>         0.1332
     46 H19         6.8605   -0.4492   -2.0685 H         1 <1>         0.1004
@<TRIPOS>BOND
     1    1   11 1
     2    1   23 3
     3    2    6 ar
     4    2   13 ar
     5    3    7 ar
     6    3   13 ar
     7    4    8 ar
     8    4   12 ar
     9    5    9 ar
    10    5   12 ar
    11    6   15 ar
    12    7   15 ar
    13    8   16 ar
    14    9   16 ar
    15   10   14 ar
    16   10   17 ar
    17   11   14 ar
    18   11   18 ar
    19   12   14 1
    20   13   17 1
    21   15   25 1
    22   16   27 1
    23   17   24 ar
    24   18   24 ar
    25   18   26 1
    26   19   22 1
    27   20   22 1
    28   21   25 1
    29   22   26 1
    30    2   28 1
    31    3   29 1
    32    4   30 1
    33    5   31 1
    34    6   32 1
    35    7   33 1
    36    8   34 1
    37    9   35 1
    38   10   36 1
    39   19   37 1
    40   19   38 1
    41   19   39 1
    42   20   40 1
    43   20   41 1
    44   20   42 1
    45   21   43 1
    46   21   44 1
    47   21   45 1
    48   22   46 1
@<TRIPOS>Similarity
1.4031
@<TRIPOS>ShapeSim
0.8510
@<TRIPOS>PharmSim
0.5521
# END
# Name:		AG-690/40749447
# Created and modified by SHAFTS on Tue Sep 23 19:00:28 2014

# 

@<TRIPOS>MOLECULE
AG-690/40749447
   37    39     0
SMALL
USER_CHARGE


@<TRIPOS>ATOM
      1 C1          3.1632    2.7422   -2.1468 C.1       1 <1>         0.0397
      2 C2          8.0183    2.3278   -0.9695 C.1       1 <1>        -0.0055
      3 C3          5.8743   -3.5138    2.7499 C.ar      1 <1>        -0.0956
      4 C4          5.5117   -2.2995    3.3327 C.ar      1 <1>        -0.0902
      5 C5          5.7535   -3.6894    1.3714 C.ar      1 <1>        -0.0915
      6 C6          5.0282   -1.2608    2.5370 C.ar      1 <1>        -0.0723
      7 C7          5.2700   -2.6507    0.5758 C.ar      1 <1>        -0.0750
      8 C8          0.2803    0.9407   -0.2044 C.ar      1 <1>        -0.0648
      9 C9          1.2587    3.1067    0.2295 C.ar      1 <1>        -0.0663
     10 C10        -0.9925    1.4762   -0.0069 C.ar      1 <1>        -0.0552
     11 C11        -0.0140    3.6421    0.4269 C.ar      1 <1>        -0.0558
     12 C12         3.1415    0.1645    0.5386 C.ar      1 <1>        -0.0207
     13 C13         3.5775    1.6728   -1.2834 C.ar      1 <1>         0.1042
     14 C14         1.4060    1.7560   -0.0861 C.ar      1 <1>        -0.0458
     15 C15         4.9074   -1.4364    1.1586 C.ar      1 <1>        -0.0488
     16 C16         2.7263    1.2005   -0.2905 C.ar      1 <1>         0.0120
     17 C17        -1.1396    2.8269    0.3088 C.ar      1 <1>        -0.0138
     18 C18         4.4073   -0.3612    0.3355 C.ar      1 <1>        -0.0107
     19 C19         4.8239    1.0797   -1.4048 C.ar      1 <1>         0.0740
     20 C20         6.8740    2.8748   -1.7013 C.3       1 <1>         0.1319
     21 N1          2.8281    3.6067   -2.8447 N.1       1 <1>        -0.3759
     22 N2          8.9262    1.8997   -0.3870 N.1       1 <1>        -0.4029
     23 N3          5.2623    0.0714   -0.6183 N.ar      1 <1>        -0.3528
     24 S1          6.0065    1.6047   -2.6450 S.3       1 <1>        -0.0768
     25 Cl1        -2.7104    3.4864    0.5539 Cl        1 <1>        -0.1806
     26 H1          6.2522   -4.3217    3.3694 H         1 <1>         0.1200
     27 H2          5.6073   -2.1620    4.4058 H         1 <1>         0.1207
     28 H3          6.0369   -4.6341    0.9167 H         1 <1>         0.1204
     29 H4          4.7500   -0.3200    3.0064 H         1 <1>         0.1431
     30 H5          5.1819   -2.8020   -0.4974 H         1 <1>         0.1351
     31 H6          0.3788   -0.1140   -0.4497 H         1 <1>         0.1466
     32 H7          2.1267    3.7550    0.3260 H         1 <1>         0.1411
     33 H8         -1.8610    0.8291   -0.1002 H         1 <1>         0.1479
     34 H9         -0.1137    4.6963    0.6736 H         1 <1>         0.1473
     35 H10         2.4958   -0.2225    1.3221 H         1 <1>         0.1765
     36 H11         7.2039    3.6543   -2.3945 H         1 <1>         0.2205
     37 H12         6.1632    3.3295   -1.0046 H         1 <1>         0.2205
@<TRIPOS>BOND
     1    1   13 1
     2    1   21 3
     3    2   20 1
     4    2   22 3
     5    3    4 ar
     6    3    5 ar
     7    4    6 ar
     8    5    7 ar
     9    6   15 ar
    10    7   15 ar
    11    8   10 ar
    12    8   14 ar
    13    9   11 ar
    14    9   14 ar
    15   10   17 ar
    16   11   17 ar
    17   12   16 ar
    18   12   18 ar
    19   13   16 ar
    20   13   19 ar
    21   14   16 1
    22   15   18 1
    23   17   25 1
    24   18   23 ar
    25   19   23 ar
    26   19   24 1
    27   20   24 1
    28    3   26 1
    29    4   27 1
    30    5   28 1
    31    6   29 1
    32    7   30 1
    33    8   31 1
    34    9   32 1
    35   10   33 1
    36   11   34 1
    37   12   35 1
    38   20   36 1
    39   20   37 1
@<TRIPOS>Similarity
1.4009
@<TRIPOS>ShapeSim
0.8468
@<TRIPOS>PharmSim
0.5541
# END
# Name:		AP-960/41299812
# Created and modified by SHAFTS on Tue Sep 23 19:00:28 2014

# 

@<TRIPOS>MOLECULE
AP-960/41299812
   40    43     0
SMALL
USER_CHARGE


@<TRIPOS>ATOM
      1 C1          5.2160   -2.4843    0.4045 C.ar      1 <1>        -0.0371
      2 C2          4.8175   -1.1007    2.3446 C.ar      1 <1>        -0.0373
      3 C3          1.0113    3.1721    0.2984 C.ar      1 <1>        -0.0367
      4 C4         -0.1152    1.1228   -0.3088 C.ar      1 <1>        -0.0364
      5 C5          5.7935   -3.4589    1.2182 C.ar      1 <1>        -0.0397
      6 C6          5.3950   -2.0753    3.1582 C.ar      1 <1>        -0.0398
      7 C7         -0.2203    3.7699    0.5656 C.ar      1 <1>        -0.0408
      8 C8         -1.3469    1.7207   -0.0416 C.ar      1 <1>        -0.0405
      9 C9          4.7281   -1.3050    0.9677 C.ar      1 <1>         0.0008
     10 C10         1.0638    1.8486   -0.1389 C.ar      1 <1>         0.0063
     11 C11         5.8829   -3.2545    2.5951 C.ar      1 <1>        -0.0019
     12 C12        -1.3993    3.0443    0.3957 C.ar      1 <1>        -0.0036
     13 C13         4.4297    1.2621   -1.6792 C.2       1 <1>         0.0524
     14 C14         4.8971    0.2826   -0.8919 C.2       1 <1>         0.0744
     15 C15         3.1013    1.8583   -1.4157 C.2       1 <1>         0.1275
     16 C16         2.7566    0.0705    0.3263 C.2       1 <1>         0.0431
     17 C17         5.2246    1.8469   -2.8145 C.3       1 <1>         0.0175
     18 C18         6.4699    1.0204   -3.1047 C.3       1 <1>        -0.0082
     19 C19         7.0956    0.5932   -1.7906 C.3       1 <1>         0.0374
     20 N1          4.1295   -0.2957    0.1248 N.pl3     1 <1>        -0.2787
     21 N2          2.3398    1.2290   -0.4153 N.am      1 <1>        -0.2637
     22 O1          2.7671    2.8638   -2.0444 O.2       1 <1>        -0.4800
     23 O2          6.1926   -0.2064   -1.0236 O.3       1 <1>        -0.4113
     24 S1          1.6691   -0.8822    1.2473 S.2       1 <1>        -0.1886
     25 Cl1         6.5953   -4.4575    3.5991 Cl        1 <1>        -0.1724
     26 Cl2        -2.9190    3.7822    0.7255 Cl        1 <1>        -0.1750
     27 H1          5.1517   -2.6537   -0.6672 H         1 <1>         0.1652
     28 H2          4.4405   -0.1855    2.7938 H         1 <1>         0.1647
     29 H3          1.9238    3.7468    0.4338 H         1 <1>         0.1633
     30 H4         -0.0858    0.0909   -0.6488 H         1 <1>         0.1640
     31 H5          6.1693   -4.3730    0.7659 H         1 <1>         0.1598
     32 H6          5.4581   -1.9027    4.2296 H         1 <1>         0.1597
     33 H7         -0.2464    4.8019    0.9058 H         1 <1>         0.1580
     34 H8         -2.2576    1.1436   -0.1783 H         1 <1>         0.1584
     35 H9          4.5916    1.8805   -3.7098 H         1 <1>         0.0898
     36 H10         5.5258    2.8758   -2.5861 H         1 <1>         0.0957
     37 H11         6.2175    0.1512   -3.7204 H         1 <1>         0.0814
     38 H12         7.1852    1.6332   -3.6676 H         1 <1>         0.0726
     39 H13         8.0240    0.0311   -1.9502 H         1 <1>         0.1376
     40 H14         7.3448    1.4747   -1.1908 H         1 <1>         0.1623
@<TRIPOS>BOND
     1    1    5 ar
     2    1    9 ar
     3    2    6 ar
     4    2    9 ar
     5    3    7 ar
     6    3   10 ar
     7    4    8 ar
     8    4   10 ar
     9    5   11 ar
    10    6   11 ar
    11    7   12 ar
    12    8   12 ar
    13    9   20 1
    14   10   21 1
    15   11   25 1
    16   12   26 1
    17   13   14 2
    18   13   15 1
    19   13   17 1
    20   14   20 1
    21   14   23 1
    22   15   21 am
    23   15   22 2
    24   16   20 1
    25   16   21 1
    26   16   24 2
    27   17   18 1
    28   18   19 1
    29   19   23 1
    30    1   27 1
    31    2   28 1
    32    3   29 1
    33    4   30 1
    34    5   31 1
    35    6   32 1
    36    7   33 1
    37    8   34 1
    38   17   35 1
    39   17   36 1
    40   18   37 1
    41   18   38 1
    42   19   39 1
    43   19   40 1
@<TRIPOS>Similarity
1.4001
@<TRIPOS>ShapeSim
0.8651
@<TRIPOS>PharmSim
0.5349
# END
# Name:		AO-435/41051597
# Created and modified by SHAFTS on Tue Sep 23 19:00:28 2014

# 

@<TRIPOS>MOLECULE
AO-435/41051597
   35    38     0
SMALL
USER_CHARGE


@<TRIPOS>ATOM
      1 C1         -1.5026    3.3538   -0.0252 C.ar      1 <1>        -0.0984
      2 C2          6.3033   -3.3109    2.2822 C.ar      1 <1>        -0.0984
      3 C3          4.5966    2.4144   -2.6634 C.ar      1 <1>        -0.0965
      4 C4          5.6610    1.5056   -2.3494 C.ar      1 <1>        -0.0965
      5 C5         -1.3479    2.2159   -0.8171 C.ar      1 <1>        -0.0954
      6 C6         -0.4301    3.8292    0.7293 C.ar      1 <1>        -0.0946
      7 C7          6.5024   -3.0301    0.9306 C.ar      1 <1>        -0.0947
      8 C8          5.3698   -2.5790    3.0164 C.ar      1 <1>        -0.0954
      9 C9          3.3637    2.4573   -1.9762 C.ar      1 <1>        -0.0864
     10 C10         5.6027    0.5455   -1.3154 C.ar      1 <1>        -0.0864
     11 C11        -0.1210    1.5536   -0.8544 C.ar      1 <1>        -0.0845
     12 C12         0.7969    3.1669    0.6920 C.ar      1 <1>        -0.0833
     13 C13         5.7683   -2.0175    0.3129 C.ar      1 <1>        -0.0833
     14 C14         4.6357   -1.5665    2.3988 C.ar      1 <1>        -0.0845
     15 C15         3.3148    1.5065   -0.9573 C.ar      1 <1>        -0.0584
     16 C16         4.3827    0.5947   -0.6422 C.ar      1 <1>        -0.0584
     17 C17         0.9515    2.0291   -0.0999 C.ar      1 <1>        -0.0622
     18 C18         4.8350   -1.2857    1.0471 C.ar      1 <1>        -0.0622
     19 C19         2.2243    1.3424   -0.1393 C.2       1 <1>        -0.0254
     20 C20         4.0729   -0.2360    0.4061 C.2       1 <1>        -0.0254
     21 S1          2.4923    0.0869    1.0084 S.3       1 <1>        -0.1371
     22 H1         -2.4577    3.8699    0.0033 H         1 <1>         0.1165
     23 H2          6.8745   -4.0997    2.7629 H         1 <1>         0.1165
     24 H3          4.7525    3.1150   -3.4838 H         1 <1>         0.1164
     25 H4          6.5702    1.5634   -2.9475 H         1 <1>         0.1164
     26 H5         -2.1833    1.8458   -1.4044 H         1 <1>         0.1189
     27 H6         -0.5500    4.7159    1.3452 H         1 <1>         0.1197
     28 H7          7.2295   -3.5999    0.3591 H         1 <1>         0.1196
     29 H8          5.2140   -2.7984    4.0686 H         1 <1>         0.1189
     30 H9          2.5794    3.1544   -2.2384 H         1 <1>         0.1251
     31 H10         6.4240   -0.1250   -1.1013 H         1 <1>         0.1251
     32 H11        -0.0158    0.6695   -1.4787 H         1 <1>         0.1270
     33 H12         1.6230    3.5494    1.2869 H         1 <1>         0.1303
     34 H13         5.9334   -1.8126   -0.7421 H         1 <1>         0.1304
     35 H14         3.9127   -1.0043    2.9850 H         1 <1>         0.1270
@<TRIPOS>BOND
     1    1    5 ar
     2    1    6 ar
     3    2    7 ar
     4    2    8 ar
     5    3    4 ar
     6    3    9 ar
     7    4   10 ar
     8    5   11 ar
     9    6   12 ar
    10    7   13 ar
    11    8   14 ar
    12    9   15 ar
    13   10   16 ar
    14   11   17 ar
    15   12   17 ar
    16   13   18 ar
    17   14   18 ar
    18   15   16 ar
    19   15   19 2
    20   16   20 2
    21   17   19 1
    22   18   20 1
    23   19   21 1
    24   20   21 1
    25    1   22 1
    26    2   23 1
    27    3   24 1
    28    4   25 1
    29    5   26 1
    30    6   27 1
    31    7   28 1
    32    8   29 1
    33    9   30 1
    34   10   31 1
    35   11   32 1
    36   12   33 1
    37   13   34 1
    38   14   35 1
@<TRIPOS>Similarity
1.3985
@<TRIPOS>ShapeSim
0.8865
@<TRIPOS>PharmSim
0.5120
# END
# Name:		AN-919/15183003
# Created and modified by SHAFTS on Tue Sep 23 19:00:28 2014

# 

@<TRIPOS>MOLECULE
AN-919/15183003
   35    37     0
SMALL
USER_CHARGE


@<TRIPOS>ATOM
      1 C1          3.1948    2.9752   -2.4104 C.1       1 <1>         0.0178
      2 C2          5.9788   -3.2829    2.4464 C.ar      1 <1>        -0.1021
      3 C3          5.0673   -2.3725    2.9809 C.ar      1 <1>        -0.0942
      4 C4          6.3985   -3.1542    1.1225 C.ar      1 <1>        -0.0972
      5 C5          4.5751   -1.3333    2.1912 C.ar      1 <1>        -0.0736
      6 C6          5.9063   -2.1150    0.3328 C.ar      1 <1>        -0.0787
      7 C7          1.2912    3.0399    0.5310 C.ar      1 <1>        -0.0635
      8 C8          0.3740    1.4298   -1.0192 C.ar      1 <1>        -0.0638
      9 C9          0.0164    3.5666    0.7383 C.ar      1 <1>        -0.0418
     10 C10        -0.9009    1.9564   -0.8120 C.ar      1 <1>        -0.0415
     11 C11         3.2177    0.3895    0.2616 C.ar      1 <1>        -0.0366
     12 C12         3.6356    1.9045   -1.5591 C.ar      1 <1>         0.0564
     13 C13         1.4701    1.9715   -0.3476 C.ar      1 <1>        -0.0477
     14 C14         4.9947   -1.2046    0.8671 C.ar      1 <1>        -0.0531
     15 C15         2.7924    1.4254   -0.5627 C.ar      1 <1>        -0.0035
     16 C16        -1.0797    3.0250    0.0667 C.ar      1 <1>         0.0490
     17 C17         4.4852   -0.1287    0.0503 C.ar      1 <1>        -0.0271
     18 C18         4.8845    1.3186   -1.6888 C.ar      1 <1>        -0.0691
     19 C19        -2.4427    3.5882    0.2880 C.3       1 <1>         0.3272
     20 N1          2.8387    3.8399   -3.0977 N.1       1 <1>        -0.3965
     21 N2          5.3327    0.3105   -0.9072 N.ar      1 <1>        -0.4002
     22 F1         -2.4681    4.6293    1.1721 F         1 <1>        -0.2246
     23 F2         -3.0254    4.0724   -0.8486 F         1 <1>        -0.2245
     24 F3         -3.3181    2.6658    0.7838 F         1 <1>        -0.2247
     25 S1          6.0789    1.8560   -2.9533 S.3       1 <1>        -0.4279
     26 H1          6.3632   -4.0910    3.0620 H         1 <1>         0.1087
     27 H2          4.7418   -2.4716    4.0122 H         1 <1>         0.1143
     28 H3          7.1093   -3.8619    0.7061 H         1 <1>         0.1112
     29 H4          3.8652   -0.6314    2.6224 H         1 <1>         0.1455
     30 H5          6.2430   -2.0270   -0.6974 H         1 <1>         0.1310
     31 H6          2.1357    3.4737    1.0614 H         1 <1>         0.1455
     32 H7          0.4972    0.5964   -1.7069 H         1 <1>         0.1432
     33 H8         -0.1135    4.3999    1.4237 H         1 <1>         0.1482
     34 H9         -1.7494    1.5279   -1.3389 H         1 <1>         0.1490
     35 H10         2.5781   -0.0026    1.0477 H         1 <1>         0.1449
@<TRIPOS>BOND
     1    1   12 1
     2    1   20 3
     3    2    3 ar
     4    2    4 ar
     5    3    5 ar
     6    4    6 ar
     7    5   14 ar
     8    6   14 ar
     9    7    9 ar
    10    7   13 ar
    11    8   10 ar
    12    8   13 ar
    13    9   16 ar
    14   10   16 ar
    15   11   15 ar
    16   11   17 ar
    17   12   15 ar
    18   12   18 ar
    19   13   15 1
    20   14   17 1
    21   16   19 1
    22   17   21 ar
    23   18   21 ar
    24   18   25 1
    25   19   22 1
    26   19   23 1
    27   19   24 1
    28    2   26 1
    29    3   27 1
    30    4   28 1
    31    5   29 1
    32    6   30 1
    33    7   31 1
    34    8   32 1
    35    9   33 1
    36   10   34 1
    37   11   35 1
@<TRIPOS>Similarity
1.3983
@<TRIPOS>ShapeSim
0.8694
@<TRIPOS>PharmSim
0.5288
# END
# Name:		AG-205/33125019
# Created and modified by SHAFTS on Tue Sep 23 19:00:28 2014

# 

@<TRIPOS>MOLECULE
AG-205/33125019
   40    42     0
SMALL
USER_CHARGE


@<TRIPOS>ATOM
      1 C1          3.1628    2.7423   -2.1466 C.1       1 <1>         0.0371
      2 C2          5.8744   -3.5138    2.7499 C.ar      1 <1>        -0.0959
      3 C3          5.5119   -2.2995    3.3327 C.ar      1 <1>        -0.0917
      4 C4          5.7534   -3.6894    1.3713 C.ar      1 <1>        -0.0905
      5 C5          5.0285   -1.2608    2.5371 C.ar      1 <1>        -0.0754
      6 C6          5.2699   -2.6506    0.5757 C.ar      1 <1>        -0.0727
      7 C7          0.2805    0.9406   -0.2039 C.ar      1 <1>        -0.0687
      8 C8          1.2588    3.1069    0.2294 C.ar      1 <1>        -0.0672
      9 C9         -0.9923    1.4760   -0.0068 C.ar      1 <1>        -0.0643
     10 C10        -0.0141    3.6423    0.4263 C.ar      1 <1>        -0.0637
     11 C11         3.1415    0.1645    0.5388 C.ar      1 <1>        -0.0223
     12 C12         3.5773    1.6727   -1.2831 C.ar      1 <1>         0.0983
     13 C13         1.4061    1.7561   -0.0857 C.ar      1 <1>        -0.0466
     14 C14         4.9074   -1.4365    1.1585 C.ar      1 <1>        -0.0494
     15 C15         2.7261    1.2005   -0.2902 C.ar      1 <1>         0.0102
     16 C16        -1.1396    2.8269    0.3083 C.ar      1 <1>        -0.0355
     17 C17         4.4073   -0.3612    0.3355 C.ar      1 <1>        -0.0125
     18 C18         4.8236    1.0797   -1.4048 C.ar      1 <1>         0.0531
     19 C19         8.9889   -0.2190   -4.0264 C.2       1 <1>        -0.1177
     20 C20         8.5052    0.7032   -3.1865 C.2       1 <1>        -0.1053
     21 C21         7.3537    0.4669   -2.2629 C.3       1 <1>         0.0138
     22 N1          2.8277    3.6068   -2.8444 N.1       1 <1>        -0.3777
     23 N2          5.2621    0.0713   -0.6184 N.ar      1 <1>        -0.3580
     24 S1          6.0062    1.6047   -2.6450 S.3       1 <1>        -0.1459
     25 Br1        -2.8640    3.5531    0.5745 Br        1 <1>        -0.1379
     26 H1          6.2524   -4.3218    3.3694 H         1 <1>         0.1197
     27 H2          5.6076   -2.1621    4.4057 H         1 <1>         0.1201
     28 H3          6.0368   -4.6341    0.9167 H         1 <1>         0.1203
     29 H4          4.7504   -0.3200    3.0064 H         1 <1>         0.1347
     30 H5          5.1817   -2.8020   -0.4975 H         1 <1>         0.1423
     31 H6          0.3791   -0.1142   -0.4489 H         1 <1>         0.1400
     32 H7          2.1263    3.7555    0.3241 H         1 <1>         0.1453
     33 H8         -1.8591    0.8273   -0.1032 H         1 <1>         0.1449
     34 H9         -0.1116    4.6966    0.6714 H         1 <1>         0.1455
     35 H10         2.4958   -0.2224    1.3225 H         1 <1>         0.1737
     36 H11         9.8271   -0.0070   -4.6808 H         1 <1>         0.0885
     37 H12         8.5462   -1.2082   -4.0701 H         1 <1>         0.0852
     38 H13         8.9592    1.6914   -3.1873 H         1 <1>         0.0973
     39 H14         7.6369    0.6022   -1.2141 H         1 <1>         0.1131
     40 H15         6.9933   -0.5595   -2.3820 H         1 <1>         0.1158
@<TRIPOS>BOND
     1    1   12 1
     2    1   22 3
     3    2    3 ar
     4    2    4 ar
     5    3    5 ar
     6    4    6 ar
     7    5   14 ar
     8    6   14 ar
     9    7    9 ar
    10    7   13 ar
    11    8   10 ar
    12    8   13 ar
    13    9   16 ar
    14   10   16 ar
    15   11   15 ar
    16   11   17 ar
    17   12   15 ar
    18   12   18 ar
    19   13   15 1
    20   14   17 1
    21   16   25 1
    22   17   23 ar
    23   18   23 ar
    24   18   24 1
    25   19   20 2
    26   20   21 1
    27   21   24 1
    28    2   26 1
    29    3   27 1
    30    4   28 1
    31    5   29 1
    32    6   30 1
    33    7   31 1
    34    8   32 1
    35    9   33 1
    36   10   34 1
    37   11   35 1
    38   19   36 1
    39   19   37 1
    40   20   38 1
    41   21   39 1
    42   21   40 1
@<TRIPOS>Similarity
1.3944
@<TRIPOS>ShapeSim
0.8403
@<TRIPOS>PharmSim
0.5541
# END
# Name:		ZINC00384358
# Created and modified by SHAFTS on Tue Sep 23 19:00:28 2014

# 

@<TRIPOS>MOLECULE
ZINC00384358
   33    35     0
SMALL
USER_CHARGE


@<TRIPOS>ATOM
      1 C1          6.6105   -3.1990    1.2896 C.ar      1 <1>        -0.0571
      2 C2          5.9731   -2.1708    0.6045 C.ar      1 <1>        -0.0450
      3 C3          1.2993    3.0155   -0.3742 C.ar      1 <1>        -0.0778
      4 C4          0.2771    0.9784    0.4271 C.ar      1 <1>        -0.0812
      5 C5          0.0648    3.6611   -0.3081 C.ar      1 <1>        -0.0952
      6 C6         -0.9577    1.6241    0.4933 C.ar      1 <1>        -0.0970
      7 C7          6.1370   -3.5307    2.5487 C.ar      1 <1>        -0.0377
      8 C8          4.4996   -1.9218    2.4547 C.ar      1 <1>        -0.0102
      9 C9          3.6471    1.3578   -0.9907 C.2       1 <1>        -0.0078
     10 C10         1.4056    1.6741   -0.0066 C.ar      1 <1>        -0.0590
     11 C11         4.8967   -1.5146    1.1911 C.ar      1 <1>        -0.0049
     12 C12        -1.0638    2.9655    0.1257 C.ar      1 <1>        -0.1106
     13 C13         2.6770    1.0101   -0.0741 C.2       1 <1>        -0.0223
     14 C14         4.2142   -0.4431    0.5052 C.2       1 <1>         0.0211
     15 C15        -2.2986    5.1160   -0.2439 C.3       1 <1>        -0.0606
     16 C16        -2.3830    3.6571    0.1971 C.3       1 <1>        -0.0454
     17 N1          5.0942   -2.9163    3.1512 N.ar      1 <1>        -0.3947
     18 N2          3.0003   -0.0228    0.7842 N.2       1 <1>        -0.3781
     19 S1          5.0248    0.3590   -0.7772 S.3       1 <1>        -0.1191
     20 H1          7.4515   -3.7245    0.8519 H         1 <1>         0.1446
     21 H2          6.3262   -1.8920   -0.3853 H         1 <1>         0.1582
     22 H3          2.1694    3.5718   -0.7151 H         1 <1>         0.1393
     23 H4          0.3435   -0.0676    0.7172 H         1 <1>         0.1292
     24 H5         -0.0090    4.7066   -0.5955 H         1 <1>         0.1195
     25 H6         -1.8321    1.0750    0.8324 H         1 <1>         0.1185
     26 H7          6.5996   -4.3255    3.1244 H         1 <1>         0.2082
     27 H8          3.6662   -1.4503    2.9677 H         1 <1>         0.2341
     28 H9          3.6228    2.1250   -1.7524 H         1 <1>         0.2020
     29 H10        -1.5680    5.6668    0.3582 H         1 <1>         0.0354
     30 H11        -3.2690    5.6106   -0.1355 H         1 <1>         0.0371
     31 H12        -1.9945    5.1921   -1.2934 H         1 <1>         0.0355
     32 H13        -3.1251    3.1346   -0.4279 H         1 <1>         0.0604
     33 H14        -2.7844    3.6139    1.2225 H         1 <1>         0.0606
@<TRIPOS>BOND
     1    1    2 ar
     2    1    7 ar
     3    2   11 ar
     4    3    5 ar
     5    3   10 ar
     6    4    6 ar
     7    4   10 ar
     8    5   12 ar
     9    6   12 ar
    10    7   17 ar
    11    8   11 ar
    12    8   17 ar
    13    9   13 2
    14    9   19 1
    15   10   13 1
    16   11   14 1
    17   12   16 1
    18   13   18 1
    19   14   18 2
    20   14   19 1
    21   15   16 1
    22    1   20 1
    23    2   21 1
    24    3   22 1
    25    4   23 1
    26    5   24 1
    27    6   25 1
    28    7   26 1
    29    8   27 1
    30    9   28 1
    31   15   29 1
    32   15   30 1
    33   15   31 1
    34   16   32 1
    35   16   33 1
@<TRIPOS>Similarity
1.3858
@<TRIPOS>ShapeSim
0.8128
@<TRIPOS>PharmSim
0.5730
# END
# Name:		AH-262/11508001
# Created and modified by SHAFTS on Tue Sep 23 19:00:28 2014

# 

@<TRIPOS>MOLECULE
AH-262/11508001
   35    38     0
SMALL
USER_CHARGE


@<TRIPOS>ATOM
      1 C1          6.2243   -3.4102    2.4335 C.ar      1 <1>        -0.0961
      2 C2         -0.9356    2.9997    0.0085 C.ar      1 <1>        -0.0854
      3 C3          6.5186   -3.1896    1.0879 C.ar      1 <1>        -0.0915
      4 C4          5.2932   -2.6016    3.0853 C.ar      1 <1>        -0.0894
      5 C5          0.2395    3.7306    0.1838 C.ar      1 <1>        -0.0764
      6 C6         -0.8737    1.6272   -0.2330 C.ar      1 <1>        -0.0775
      7 C7          5.8819   -2.1606    0.3943 C.ar      1 <1>        -0.0717
      8 C8          4.6566   -1.5725    2.3917 C.ar      1 <1>        -0.0689
      9 C9          1.4763    3.0892    0.1173 C.ar      1 <1>        -0.0496
     10 C10         0.3632    0.9858   -0.2994 C.ar      1 <1>        -0.0510
     11 C11         4.9509   -1.3519    1.0463 C.ar      1 <1>        -0.0318
     12 C12         4.7990    0.4600   -0.7473 C.2       1 <1>         0.0878
     13 C13         1.5382    1.7168   -0.1243 C.ar      1 <1>        -0.0055
     14 C14         4.2933   -0.2888    0.3303 C.2       1 <1>         0.0467
     15 C15         3.7889    1.3381   -1.0625 C.2       1 <1>         0.1004
     16 C16         6.1353    1.4452   -2.5626 C.2       1 <1>         0.0367
     17 C17         5.1481    2.3028   -2.8700 C.2       1 <1>         0.0414
     18 C18         6.0500    0.4348   -1.4614 C.2       1 <1>         0.1131
     19 C19         3.8584    2.3104   -2.1143 C.2       1 <1>         0.1264
     20 N1          3.0556    0.0836    0.6754 N.2       1 <1>        -0.3118
     21 N2          2.7751    1.0762   -0.1904 N.pl3     1 <1>        -0.2710
     22 O1          6.9749   -0.3285   -1.2150 O.2       1 <1>        -0.4818
     23 O2          2.9748    3.1053   -2.4176 O.2       1 <1>        -0.4715
     24 H1          6.7192   -4.2121    2.9733 H         1 <1>         0.1179
     25 H2         -1.8988    3.4982    0.0619 H         1 <1>         0.1291
     26 H3          7.2426   -3.8199    0.5798 H         1 <1>         0.1184
     27 H4          5.0634   -2.7744    4.1325 H         1 <1>         0.1213
     28 H5          0.1915    4.7990    0.3732 H         1 <1>         0.1352
     29 H6         -1.7891    1.0585   -0.3679 H         1 <1>         0.1334
     30 H7          6.1222   -2.0011   -0.6543 H         1 <1>         0.1358
     31 H8          3.9331   -0.9509    2.9143 H         1 <1>         0.1430
     32 H9          2.3846    3.6706    0.2565 H         1 <1>         0.1598
     33 H10         0.3970   -0.0845   -0.4876 H         1 <1>         0.1564
     34 H11         7.0622    1.4609   -3.1273 H         1 <1>         0.2132
     35 H12         5.2591    3.0170   -3.6783 H         1 <1>         0.2152
@<TRIPOS>BOND
     1    1    3 ar
     2    1    4 ar
     3    2    5 ar
     4    2    6 ar
     5    3    7 ar
     6    4    8 ar
     7    5    9 ar
     8    6   10 ar
     9    7   11 ar
    10    8   11 ar
    11    9   13 ar
    12   10   13 ar
    13   11   14 1
    14   12   14 1
    15   12   15 2
    16   12   18 1
    17   13   21 1
    18   14   20 2
    19   15   19 1
    20   15   21 1
    21   16   17 2
    22   16   18 1
    23   17   19 1
    24   18   22 2
    25   19   23 2
    26   20   21 1
    27    1   24 1
    28    2   25 1
    29    3   26 1
    30    4   27 1
    31    5   28 1
    32    6   29 1
    33    7   30 1
    34    8   31 1
    35    9   32 1
    36   10   33 1
    37   16   34 1
    38   17   35 1
@<TRIPOS>Similarity
1.3806
@<TRIPOS>ShapeSim
0.8953
@<TRIPOS>PharmSim
0.4854
# END
# Name:		AG-927/42926101
# Created and modified by SHAFTS on Tue Sep 23 19:00:28 2014

# 

@<TRIPOS>MOLECULE
AG-927/42926101
   29    31     0
SMALL
USER_CHARGE


@<TRIPOS>ATOM
      1 C1         -1.2735    3.0797    0.1243 C.ar      1 <1>        -0.0951
      2 C2          6.0007   -3.2292    2.3769 C.ar      1 <1>        -0.0880
      3 C3         -0.1063    3.8254    0.2890 C.ar      1 <1>        -0.0898
      4 C4         -1.1962    1.7100   -0.1280 C.ar      1 <1>        -0.0895
      5 C5          5.7605   -3.3443    1.0077 C.ar      1 <1>        -0.0790
      6 C6          5.5897   -2.0867    3.0635 C.ar      1 <1>        -0.0805
      7 C7          1.1383    3.2014    0.2012 C.ar      1 <1>        -0.0698
      8 C8          0.0482    1.0861   -0.2160 C.ar      1 <1>        -0.0695
      9 C9          5.1096   -2.3168    0.3251 C.ar      1 <1>        -0.0545
     10 C10         4.9387   -1.0592    2.3808 C.ar      1 <1>        -0.0572
     11 C11         1.2155    1.8317   -0.0513 C.ar      1 <1>        -0.0299
     12 C12         4.6986   -1.1742    1.0116 C.ar      1 <1>        -0.0112
     13 C13         3.5348    1.4705   -1.0501 C.2       1 <1>         0.0929
     14 C14         2.4966    1.1893   -0.1419 C.2       1 <1>         0.0494
     15 C15         4.5304    0.5844   -0.7183 C.2       1 <1>         0.1156
     16 N1          2.8039    0.2015    0.7030 N.2       1 <1>        -0.3125
     17 N2          4.0467   -0.1456    0.3272 N.pl3     1 <1>        -0.2718
     18 Cl1         3.5376    2.6450   -2.2723 Cl        1 <1>        -0.1226
     19 Cl2         6.0804    0.3185   -1.3624 Cl        1 <1>        -0.0685
     20 H1         -2.2425    3.5651    0.1938 H         1 <1>         0.1196
     21 H2          6.5059   -4.0298    2.9093 H         1 <1>         0.1256
     22 H3         -0.1662    4.8916    0.4867 H         1 <1>         0.1211
     23 H4         -2.1052    1.1294   -0.2551 H         1 <1>         0.1221
     24 H5          6.0793   -4.2344    0.4732 H         1 <1>         0.1334
     25 H6          5.7757   -1.9984    4.1300 H         1 <1>         0.1326
     26 H7          2.0391    3.7966    0.3320 H         1 <1>         0.1382
     27 H8          0.0915    0.0174   -0.4133 H         1 <1>         0.1390
     28 H9          4.9280   -2.4195   -0.7421 H         1 <1>         0.1536
     29 H10         4.6230   -0.1743    2.9283 H         1 <1>         0.1464
@<TRIPOS>BOND
     1    1    3 ar
     2    1    4 ar
     3    2    5 ar
     4    2    6 ar
     5    3    7 ar
     6    4    8 ar
     7    5    9 ar
     8    6   10 ar
     9    7   11 ar
    10    8   11 ar
    11    9   12 ar
    12   10   12 ar
    13   11   14 1
    14   12   17 1
    15   13   14 1
    16   13   15 2
    17   13   18 1
    18   14   16 2
    19   15   17 1
    20   15   19 1
    21   16   17 1
    22    1   20 1
    23    2   21 1
    24    3   22 1
    25    4   23 1
    26    5   24 1
    27    6   25 1
    28    7   26 1
    29    8   27 1
    30    9   28 1
    31   10   29 1
@<TRIPOS>Similarity
1.3650
@<TRIPOS>ShapeSim
0.8390
@<TRIPOS>PharmSim
0.5259
# END
# Name:		AE-842/31985041
# Created and modified by SHAFTS on Tue Sep 23 19:00:28 2014

# 

@<TRIPOS>MOLECULE
AE-842/31985041
   42    46     0
SMALL
USER_CHARGE


@<TRIPOS>ATOM
      1 C1         -1.2955    2.9599    0.1211 C.ar      1 <1>        -0.0954
      2 C2          5.8486   -3.4834    2.4422 C.ar      1 <1>        -0.1023
      3 C3         -0.2001    3.6248   -0.4298 C.ar      1 <1>        -0.0902
      4 C4         -1.1310    1.6967    0.6893 C.ar      1 <1>        -0.0906
      5 C5          5.7575   -3.3955    1.0532 C.ar      1 <1>        -0.0930
      6 C6          5.4144   -2.4235    3.2382 C.ar      1 <1>        -0.0922
      7 C7          1.0598    3.0265   -0.4126 C.ar      1 <1>        -0.0725
      8 C8          0.1288    1.0984    0.7065 C.ar      1 <1>        -0.0734
      9 C9          5.2321   -2.2476    0.4599 C.ar      1 <1>        -0.0759
     10 C10         4.8891   -1.2755    2.6450 C.ar      1 <1>        -0.0745
     11 C11         1.2243    1.7633    0.1555 C.ar      1 <1>        -0.0488
     12 C12         4.7980   -1.1876    1.2559 C.ar      1 <1>        -0.0517
     13 C13         2.5311    1.1427    0.1733 C.2       1 <1>        -0.0259
     14 C14         5.0858    2.4299   -2.4717 C.3       1 <1>        -0.0535
     15 C15         6.0748    1.3590   -1.9309 C.3       1 <1>        -0.0532
     16 C16         4.1999    0.3587   -3.0057 C.3       1 <1>        -0.0457
     17 C17         3.5611    1.4055   -0.8870 C.3       1 <1>         0.0040
     18 C18         3.7263    1.6860   -2.3809 C.3       1 <1>        -0.0342
     19 C19         5.2277    0.0668   -1.8780 C.3       1 <1>        -0.0350
     20 C20         4.1954    0.0127   -0.7672 C.3       1 <1>         0.0065
     21 N1          3.0290    0.4018    1.1370 N.2       1 <1>        -0.3708
     22 N2          4.2776   -0.0508    0.6691 N.pl3     1 <1>        -0.3592
     23 H1         -2.2764    3.4259    0.1076 H         1 <1>         0.1196
     24 H2          6.2580   -4.3775    2.9040 H         1 <1>         0.1017
     25 H3         -0.3283    4.6084   -0.8725 H         1 <1>         0.1208
     26 H4         -1.9838    1.1791    1.1185 H         1 <1>         0.1209
     27 H5          6.0957   -4.2207    0.4335 H         1 <1>         0.1200
     28 H6          5.4855   -2.4923    4.3199 H         1 <1>         0.1203
     29 H7          1.9066    3.5536   -0.8447 H         1 <1>         0.1400
     30 H8          0.2453    0.1137    1.1518 H         1 <1>         0.1373
     31 H9          5.1656   -2.1888   -0.6233 H         1 <1>         0.1275
     32 H10         4.5535   -0.4560    3.2754 H         1 <1>         0.1308
     33 H11         5.1197    3.3558   -1.8882 H         1 <1>         0.0478
     34 H12         5.3251    2.6828   -3.5117 H         1 <1>         0.0439
     35 H13         6.9152    1.2515   -2.6253 H         1 <1>         0.0458
     36 H14         6.4731    1.6231   -0.9461 H         1 <1>         0.0495
     37 H15         3.3981   -0.3830   -3.0932 H         1 <1>         0.0588
     38 H16         4.6681    0.4761   -3.9901 H         1 <1>         0.0538
     39 H17         4.1511    2.1774   -0.3581 H         1 <1>         0.0987
     40 H18         2.8975    2.1903   -2.8774 H         1 <1>         0.0824
     41 H19         5.8026   -0.8525   -2.0013 H         1 <1>         0.0784
     42 H20         3.4786   -0.7835   -1.0446 H         1 <1>         0.1293
@<TRIPOS>BOND
     1    1    3 ar
     2    1    4 ar
     3    2    5 ar
     4    2    6 ar
     5    3    7 ar
     6    4    8 ar
     7    5    9 ar
     8    6   10 ar
     9    7   11 ar
    10    8   11 ar
    11    9   12 ar
    12   10   12 ar
    13   11   13 1
    14   12   22 1
    15   13   17 1
    16   13   21 2
    17   14   15 1
    18   14   18 1
    19   15   19 1
    20   16   18 1
    21   16   19 1
    22   17   18 1
    23   17   20 1
    24   19   20 1
    25   20   22 1
    26   21   22 1
    27    1   23 1
    28    2   24 1
    29    3   25 1
    30    4   26 1
    31    5   27 1
    32    6   28 1
    33    7   29 1
    34    8   30 1
    35    9   31 1
    36   10   32 1
    37   14   33 1
    38   14   34 1
    39   15   35 1
    40   15   36 1
    41   16   37 1
    42   16   38 1
    43   17   39 1
    44   18   40 1
    45   19   41 1
    46   20   42 1
@<TRIPOS>Similarity
1.3601
@<TRIPOS>ShapeSim
0.8228
@<TRIPOS>PharmSim
0.5373
# END
# Name:		AG-205/12497019
# Created and modified by SHAFTS on Tue Sep 23 19:00:28 2014

# 

@<TRIPOS>MOLECULE
AG-205/12497019
   34    36     0
SMALL
USER_CHARGE


@<TRIPOS>ATOM
      1 C1          1.1687    3.1450   -0.4494 C.ar      1 <1>        -0.0578
      2 C2          0.1427    1.1218    0.3821 C.ar      1 <1>        -0.0576
      3 C3          5.7675   -3.4114    1.0719 C.ar      1 <1>        -0.0842
      4 C4          5.5957   -2.1454    3.1225 C.ar      1 <1>        -0.0872
      5 C5          5.1253   -2.3824    0.3829 C.ar      1 <1>        -0.0577
      6 C6          4.9535   -1.1165    2.4335 C.ar      1 <1>        -0.0625
      7 C7         -0.0650    3.7936   -0.3935 C.ar      1 <1>        -0.0545
      8 C8         -1.0910    1.7705    0.4379 C.ar      1 <1>        -0.0546
      9 C9          3.5925    1.4068   -1.0182 C.2       1 <1>        -0.0302
     10 C10         1.2725    1.8091   -0.0618 C.ar      1 <1>        -0.0370
     11 C11         6.0026   -3.2928    2.4417 C.ar      1 <1>        -0.1040
     12 C12         4.7184   -1.2351    1.0637 C.ar      1 <1>        -0.0244
     13 C13        -1.1948    3.1064    0.0502 C.ar      1 <1>        -0.0165
     14 C14         2.5425    1.1414   -0.1189 C.2       1 <1>        -0.0016
     15 C15         4.5763    0.5136   -0.6707 C.2       1 <1>        -0.0108
     16 C16         6.6892   -4.3928    3.1783 C.3       1 <1>        -0.0418
     17 N1          2.8321    0.1564    0.7355 N.2       1 <1>        -0.3472
     18 N2          4.0751   -0.2049    0.3746 N.pl3     1 <1>        -0.3182
     19 N3          5.8092    0.2940   -1.1757 N.pl3     1 <1>        -0.3439
     20 Cl1        -2.7175    3.9053    0.1183 Cl        1 <1>        -0.1869
     21 H1          2.0396    3.6955   -0.7978 H         1 <1>         0.1506
     22 H2          0.2074    0.0801    0.6876 H         1 <1>         0.1514
     23 H3          6.0815   -4.3019    0.5341 H         1 <1>         0.1313
     24 H4          5.7744   -2.0446    4.1897 H         1 <1>         0.1289
     25 H5          4.9475   -2.4878   -0.6847 H         1 <1>         0.1520
     26 H6          4.6415   -0.2280    2.9772 H         1 <1>         0.1395
     27 H7         -0.1312    4.8347   -0.6988 H         1 <1>         0.1450
     28 H8         -1.9630    1.2219    0.7845 H         1 <1>         0.1443
     29 H9          3.6338    2.1425   -1.8091 H         1 <1>         0.1485
     30 H10         7.7750   -4.2365    3.1731 H         1 <1>         0.0611
     31 H11         6.3506   -4.4460    4.2212 H         1 <1>         0.0584
     32 H12         6.4761   -5.3697    2.7251 H         1 <1>         0.0587
     33 H13         6.1644    0.8059   -1.9966 H         1 <1>         0.2497
     34 H14         6.4184   -0.4600   -0.8252 H         1 <1>         0.2595
@<TRIPOS>BOND
     1    1    7 ar
     2    1   10 ar
     3    2    8 ar
     4    2   10 ar
     5    3    5 ar
     6    3   11 ar
     7    4    6 ar
     8    4   11 ar
     9    5   12 ar
    10    6   12 ar
    11    7   13 ar
    12    8   13 ar
    13    9   14 1
    14    9   15 2
    15   10   14 1
    16   11   16 1
    17   12   18 1
    18   13   20 1
    19   14   17 2
    20   15   18 1
    21   15   19 1
    22   17   18 1
    23    1   21 1
    24    2   22 1
    25    3   23 1
    26    4   24 1
    27    5   25 1
    28    6   26 1
    29    7   27 1
    30    8   28 1
    31    9   29 1
    32   16   30 1
    33   16   31 1
    34   16   32 1
    35   19   33 1
    36   19   34 1
@<TRIPOS>Similarity
1.3581
@<TRIPOS>ShapeSim
0.8004
@<TRIPOS>PharmSim
0.5577
# END
# Name:		AK-087/42718235
# Created and modified by SHAFTS on Tue Sep 23 19:00:28 2014

# 

@<TRIPOS>MOLECULE
AK-087/42718235
   33    35     0
SMALL
USER_CHARGE


@<TRIPOS>ATOM
      1 C1          4.5787    1.9272   -3.2308 C.1       1 <1>        -0.0184
      2 C2         -0.8900    2.9878   -0.0072 C.ar      1 <1>        -0.0890
      3 C3          0.2917    3.7066    0.1738 C.ar      1 <1>        -0.0825
      4 C4         -0.8420    1.6122   -0.2330 C.ar      1 <1>        -0.0800
      5 C5          5.8819   -2.2216    0.4539 C.ar      1 <1>        -0.0581
      6 C6          4.6620   -1.6307    2.4538 C.ar      1 <1>        -0.0579
      7 C7          1.5212    3.0498    0.1288 C.ar      1 <1>        -0.0623
      8 C8          0.3877    0.9554   -0.2779 C.ar      1 <1>        -0.0580
      9 C9          6.5191   -3.2509    1.1467 C.ar      1 <1>        -0.0541
     10 C10         5.2992   -2.6600    3.1466 C.ar      1 <1>        -0.0541
     11 C11         4.8182    0.3855   -0.6858 C.2       1 <1>        -0.0227
     12 C12         4.9533   -1.4113    1.1075 C.ar      1 <1>        -0.0372
     13 C13         1.5694    1.6741   -0.0970 C.ar      1 <1>        -0.0256
     14 C14         6.2277   -3.4702    2.4931 C.ar      1 <1>        -0.0154
     15 C15         4.2970   -0.3518    0.3943 C.2       1 <1>        -0.0003
     16 C16         3.8190    1.2694   -1.0123 C.2       1 <1>         0.0087
     17 C17         3.7604    2.3057   -2.0620 C.3       1 <1>         0.1104
     18 N1          5.2255    1.6213   -4.1445 N.1       1 <1>        -0.4108
     19 N2          3.0625    0.0306    0.7314 N.2       1 <1>        -0.3455
     20 N3          2.7997    1.0178   -0.1417 N.pl3     1 <1>        -0.3137
     21 Cl1         7.0143   -4.7392    3.3490 Cl        1 <1>        -0.1852
     22 H1         -1.8478    3.4985    0.0293 H         1 <1>         0.1244
     23 H2          0.2544    4.7775    0.3508 H         1 <1>         0.1303
     24 H3         -1.7626    1.0530   -0.3724 H         1 <1>         0.1325
     25 H4          6.1204   -2.0643   -0.5956 H         1 <1>         0.1503
     26 H5          3.9405   -1.0077    2.9772 H         1 <1>         0.1511
     27 H6          2.4349    3.6217    0.2722 H         1 <1>         0.1395
     28 H7          0.4108   -0.1175   -0.4539 H         1 <1>         0.1519
     29 H8          7.2405   -3.8744    0.6247 H         1 <1>         0.1462
     30 H9          5.0631   -2.8183    4.1957 H         1 <1>         0.1454
     31 H10         5.7834    0.2922   -1.1638 H         1 <1>         0.1604
     32 H11         4.1106    3.2812   -1.6819 H         1 <1>         0.2053
     33 H12         2.7225    2.4817   -2.3944 H         1 <1>         0.2148
@<TRIPOS>BOND
     1    1   17 1
     2    1   18 3
     3    2    3 ar
     4    2    4 ar
     5    3    7 ar
     6    4    8 ar
     7    5    9 ar
     8    5   12 ar
     9    6   10 ar
    10    6   12 ar
    11    7   13 ar
    12    8   13 ar
    13    9   14 ar
    14   10   14 ar
    15   11   15 1
    16   11   16 2
    17   12   15 1
    18   13   20 1
    19   14   21 1
    20   15   19 2
    21   16   17 1
    22   16   20 1
    23   19   20 1
    24    2   22 1
    25    3   23 1
    26    4   24 1
    27    5   25 1
    28    6   26 1
    29    7   27 1
    30    8   28 1
    31    9   29 1
    32   10   30 1
    33   11   31 1
    34   17   32 1
    35   17   33 1
@<TRIPOS>Similarity
1.3437
@<TRIPOS>ShapeSim
0.8807
@<TRIPOS>PharmSim
0.4630
# END
# Name:		AK-087/11538930
# Created and modified by SHAFTS on Tue Sep 23 19:00:28 2014

# 

@<TRIPOS>MOLECULE
AK-087/11538930
   36    38     0
SMALL
USER_CHARGE


@<TRIPOS>ATOM
      1 C1          4.5783    1.9263   -3.2313 C.1       1 <1>        -0.0188
      2 C2         -0.8900    2.9880   -0.0073 C.ar      1 <1>        -0.0893
      3 C3          0.2916    3.7067    0.1734 C.ar      1 <1>        -0.0803
      4 C4         -0.8420    1.6123   -0.2327 C.ar      1 <1>        -0.0828
      5 C5          5.8817   -2.2211    0.4539 C.ar      1 <1>        -0.0746
      6 C6          4.6622   -1.6308    2.4543 C.ar      1 <1>        -0.0749
      7 C7          6.5191   -3.2508    1.1463 C.ar      1 <1>        -0.0950
      8 C8          5.2993   -2.6605    3.1465 C.ar      1 <1>        -0.0950
      9 C9          1.5214    3.0497    0.1285 C.ar      1 <1>        -0.0583
     10 C10         0.3877    0.9553   -0.2776 C.ar      1 <1>        -0.0626
     11 C11         4.8182    0.3853   -0.6859 C.2       1 <1>        -0.0244
     12 C12         4.9534   -1.4111    1.1079 C.ar      1 <1>        -0.0470
     13 C13         6.2278   -3.4705    2.4925 C.ar      1 <1>        -0.1097
     14 C14         1.5694    1.6741   -0.0970 C.ar      1 <1>        -0.0262
     15 C15         4.2970   -0.3516    0.3944 C.2       1 <1>        -0.0040
     16 C16         3.8188    1.2691   -1.0125 C.2       1 <1>         0.0076
     17 C17         6.9087   -4.5725    3.2315 C.3       1 <1>        -0.0434
     18 C18         3.7601    2.3051   -2.0625 C.3       1 <1>         0.1099
     19 N1          5.2249    1.6203   -4.1449 N.1       1 <1>        -0.4112
     20 N2          3.0625    0.0308    0.7318 N.2       1 <1>        -0.3475
     21 N3          2.7996    1.0178   -0.1416 N.pl3     1 <1>        -0.3148
     22 H1         -1.8477    3.4986    0.0294 H         1 <1>         0.1238
     23 H2          0.2545    4.7777    0.3502 H         1 <1>         0.1321
     24 H3         -1.7627    1.0530   -0.3718 H         1 <1>         0.1298
     25 H4          6.1204   -2.0625   -0.5952 H         1 <1>         0.1376
     26 H5          3.9408   -1.0080    2.9780 H         1 <1>         0.1366
     27 H6          7.2404   -3.8777    0.6289 H         1 <1>         0.1189
     28 H7          5.0669   -2.8253    4.1953 H         1 <1>         0.1197
     29 H8          2.4350    3.6219    0.2717 H         1 <1>         0.1516
     30 H9          0.4106   -0.1175   -0.4533 H         1 <1>         0.1391
     31 H10         5.7831    0.2917   -1.1639 H         1 <1>         0.1588
     32 H11         7.8368   -4.2090    3.6892 H         1 <1>         0.0600
     33 H12         6.2659   -4.9780    4.0237 H         1 <1>         0.0576
     34 H13         7.1544   -5.4081    2.5632 H         1 <1>         0.0574
     35 H14         4.1103    3.2807   -1.6826 H         1 <1>         0.2048
     36 H15         2.7222    2.4809   -2.3948 H         1 <1>         0.2142
@<TRIPOS>BOND
     1    1   18 1
     2    1   19 3
     3    2    3 ar
     4    2    4 ar
     5    3    9 ar
     6    4   10 ar
     7    5    7 ar
     8    5   12 ar
     9    6    8 ar
    10    6   12 ar
    11    7   13 ar
    12    8   13 ar
    13    9   14 ar
    14   10   14 ar
    15   11   15 1
    16   11   16 2
    17   12   15 1
    18   13   17 1
    19   14   21 1
    20   15   20 2
    21   16   18 1
    22   16   21 1
    23   20   21 1
    24    2   22 1
    25    3   23 1
    26    4   24 1
    27    5   25 1
    28    6   26 1
    29    7   27 1
    30    8   28 1
    31    9   29 1
    32   10   30 1
    33   11   31 1
    34   17   32 1
    35   17   33 1
    36   17   34 1
    37   18   35 1
    38   18   36 1
@<TRIPOS>Similarity
1.3415
@<TRIPOS>ShapeSim
0.8801
@<TRIPOS>PharmSim
0.4615
# END
# Name:		AK-087/42718333
# Created and modified by SHAFTS on Tue Sep 23 19:00:28 2014

# 

@<TRIPOS>MOLECULE
AK-087/42718333
   36    38     0
SMALL
USER_CHARGE


@<TRIPOS>ATOM
      1 C1          6.3926    1.6191   -1.8158 C.1       1 <1>        -0.0184
      2 C2          1.0879    3.1760   -0.4308 C.ar      1 <1>        -0.0743
      3 C3          0.0779    1.1422    0.3938 C.ar      1 <1>        -0.0746
      4 C4         -0.1487    3.8177   -0.3635 C.ar      1 <1>        -0.0948
      5 C5         -1.1588    1.7837    0.4612 C.ar      1 <1>        -0.0947
      6 C6          5.0944   -2.3244    0.3431 C.ar      1 <1>        -0.0412
      7 C7          4.9218   -1.0751    2.4039 C.ar      1 <1>        -0.0458
      8 C8          5.7547   -3.3497    1.0200 C.ar      1 <1>        -0.0421
      9 C9          5.5821   -2.1004    3.0808 C.ar      1 <1>        -0.0446
     10 C10         3.5190    1.4550   -1.0240 C.2       1 <1>        -0.0231
     11 C11         1.2014    1.8383   -0.0522 C.ar      1 <1>        -0.0464
     12 C12        -1.2721    3.1215    0.0826 C.ar      1 <1>        -0.1095
     13 C13         4.6780   -1.1869    1.0350 C.ar      1 <1>        -0.0161
     14 C14         5.9985   -3.2378    2.3889 C.ar      1 <1>        -0.0066
     15 C15         2.4750    1.1785   -0.1210 C.2       1 <1>        -0.0029
     16 C16         4.5096    0.5654   -0.6863 C.2       1 <1>         0.0089
     17 C17        -2.5937    3.8086    0.1554 C.3       1 <1>        -0.0433
     18 C18         5.8527    0.3610   -1.2638 C.3       1 <1>         0.1103
     19 N1          6.8080    2.6129   -2.2478 N.1       1 <1>        -0.4106
     20 N2          2.7742    0.1905    0.7266 N.2       1 <1>        -0.3461
     21 N3          4.0177   -0.1616    0.3575 N.pl3     1 <1>        -0.3116
     22 Cl1         6.8109   -4.5041    3.2243 Cl        1 <1>        -0.1780
     23 H1          1.9540    3.7326   -0.7814 H         1 <1>         0.1379
     24 H2          0.1501    0.0989    0.6926 H         1 <1>         0.1369
     25 H3         -0.2282    4.8603   -0.6596 H         1 <1>         0.1193
     26 H4         -2.0293    1.2343    0.8100 H         1 <1>         0.1200
     27 H5          4.9108   -2.4249   -0.7239 H         1 <1>         0.1667
     28 H6          4.6023   -0.1941    2.9552 H         1 <1>         0.1534
     29 H7          6.0742   -4.2302    0.4685 H         1 <1>         0.1586
     30 H8          5.7656   -1.9995    4.1475 H         1 <1>         0.1564
     31 H9          3.5525    2.1950   -1.8111 H         1 <1>         0.1608
     32 H10        -3.1360    3.6950   -0.7912 H         1 <1>         0.0602
     33 H11        -3.2131    3.3968    0.9628 H         1 <1>         0.0578
     34 H12        -2.4746    4.8804    0.3617 H         1 <1>         0.0576
     35 H13         5.8333   -0.4003   -2.0632 H         1 <1>         0.2047
     36 H14         6.5580   -0.0302   -0.5100 H         1 <1>         0.2148
@<TRIPOS>BOND
     1    1   18 1
     2    1   19 3
     3    2    4 ar
     4    2   11 ar
     5    3    5 ar
     6    3   11 ar
     7    4   12 ar
     8    5   12 ar
     9    6    8 ar
    10    6   13 ar
    11    7    9 ar
    12    7   13 ar
    13    8   14 ar
    14    9   14 ar
    15   10   15 1
    16   10   16 2
    17   11   15 1
    18   12   17 1
    19   13   21 1
    20   14   22 1
    21   15   20 2
    22   16   18 1
    23   16   21 1
    24   20   21 1
    25    2   23 1
    26    3   24 1
    27    4   25 1
    28    5   26 1
    29    6   27 1
    30    7   28 1
    31    8   29 1
    32    9   30 1
    33   10   31 1
    34   17   32 1
    35   17   33 1
    36   17   34 1
    37   18   35 1
    38   18   36 1
@<TRIPOS>Similarity
1.3404
@<TRIPOS>ShapeSim
0.8082
@<TRIPOS>PharmSim
0.5322
# END
# Name:		AE-641/00376063
# Created and modified by SHAFTS on Tue Sep 23 19:00:28 2014

# 

@<TRIPOS>MOLECULE
AE-641/00376063
   31    33     0
SMALL
USER_CHARGE


@<TRIPOS>ATOM
      1 C1         -1.1937    3.0934    0.0623 C.ar      1 <1>        -0.0985
      2 C2          6.0343   -3.2869    2.4153 C.ar      1 <1>        -0.0921
      3 C3         -0.0678    3.7853   -0.3838 C.ar      1 <1>        -0.0929
      4 C4         -1.0839    1.7572    0.4474 C.ar      1 <1>        -0.0929
      5 C5          5.7937   -3.4027    1.0461 C.ar      1 <1>        -0.0820
      6 C6          5.6265   -2.1426    3.1007 C.ar      1 <1>        -0.0848
      7 C7          1.1679    3.1412   -0.4449 C.ar      1 <1>        -0.0750
      8 C8          0.1519    1.1131    0.3864 C.ar      1 <1>        -0.0752
      9 C9          5.1454   -2.3742    0.3626 C.ar      1 <1>        -0.0587
     10 C10         4.9782   -1.1140    2.4172 C.ar      1 <1>        -0.0632
     11 C11         3.5957    1.4119   -1.0254 C.2       1 <1>        -0.0337
     12 C12         1.2778    1.8050   -0.0598 C.ar      1 <1>        -0.0480
     13 C13         4.7377   -1.2297    1.0480 C.ar      1 <1>        -0.0259
     14 C14         2.5498    1.1416   -0.1227 C.2       1 <1>        -0.0070
     15 C15         4.5836    0.5213   -0.6831 C.2       1 <1>        -0.0129
     16 N1          2.8457    0.1562    0.7291 N.2       1 <1>        -0.3508
     17 N2          4.0886   -0.2005    0.3630 N.pl3     1 <1>        -0.3206
     18 N3          5.8153    0.3065   -1.1927 N.pl3     1 <1>        -0.3419
     19 H1         -2.1557    3.5950    0.1109 H         1 <1>         0.1146
     20 H2          6.5374   -4.0883    2.9482 H         1 <1>         0.1191
     21 H3         -0.1528    4.8260   -0.6826 H         1 <1>         0.1173
     22 H4         -1.9604    1.2189    0.7959 H         1 <1>         0.1178
     23 H5          6.1099   -4.2942    0.5125 H         1 <1>         0.1304
     24 H6          5.8131   -2.0538    4.1672 H         1 <1>         0.1280
     25 H7          2.0365    3.6944   -0.7950 H         1 <1>         0.1363
     26 H8          0.2208    0.0711    0.6902 H         1 <1>         0.1354
     27 H9          4.9633   -2.4775   -0.7044 H         1 <1>         0.1496
     28 H10         4.6651   -0.2278    2.9639 H         1 <1>         0.1383
     29 H11         3.6317    2.1489   -1.8152 H         1 <1>         0.1437
     30 H12         6.1659    0.8209   -2.0141 H         1 <1>         0.2567
     31 H13         6.4282   -0.4459   -0.8457 H         1 <1>         0.2689
@<TRIPOS>BOND
     1    1    3 ar
     2    1    4 ar
     3    2    5 ar
     4    2    6 ar
     5    3    7 ar
     6    4    8 ar
     7    5    9 ar
     8    6   10 ar
     9    7   12 ar
    10    8   12 ar
    11    9   13 ar
    12   10   13 ar
    13   11   14 1
    14   11   15 2
    15   12   14 1
    16   13   17 1
    17   14   16 2
    18   15   17 1
    19   15   18 1
    20   16   17 1
    21    1   19 1
    22    2   20 1
    23    3   21 1
    24    4   22 1
    25    5   23 1
    26    6   24 1
    27    7   25 1
    28    8   26 1
    29    9   27 1
    30   10   28 1
    31   11   29 1
    32   18   30 1
    33   18   31 1
@<TRIPOS>Similarity
1.3398
@<TRIPOS>ShapeSim
0.7931
@<TRIPOS>PharmSim
0.5467
# END
# Name:		AH-357/03542020
# Created and modified by SHAFTS on Tue Sep 23 19:00:28 2014

# 

@<TRIPOS>MOLECULE
AH-357/03542020
   30    32     0
SMALL
USER_CHARGE


@<TRIPOS>ATOM
      1 C1         -1.5539    3.1174    0.2531 C.ar      1 <1>        -0.1006
      2 C2          6.0111   -3.1668    2.3055 C.ar      1 <1>        -0.1006
      3 C3         -0.4812    3.8705   -0.2241 C.ar      1 <1>        -0.0951
      4 C4         -1.3686    1.7776    0.5939 C.ar      1 <1>        -0.0983
      5 C5          6.2656   -2.9190    0.9566 C.ar      1 <1>        -0.0983
      6 C6          5.0775   -2.3912    2.9929 C.ar      1 <1>        -0.0951
      7 C7          0.7769    3.2837   -0.3605 C.ar      1 <1>        -0.0851
      8 C8         -0.1105    1.1907    0.4576 C.ar      1 <1>        -0.0904
      9 C9          5.5865   -1.8957    0.2953 C.ar      1 <1>        -0.0904
     10 C10         4.3984   -1.3679    2.3317 C.ar      1 <1>        -0.0851
     11 C11         3.2797    1.6133   -1.0479 C.2       1 <1>        -0.0824
     12 C12         4.3467    0.7277   -0.7579 C.2       1 <1>        -0.0824
     13 C13         0.9623    1.9438   -0.0197 C.ar      1 <1>        -0.0769
     14 C14         4.6529   -1.1201    0.9828 C.ar      1 <1>        -0.0769
     15 C15         2.2634    1.3376   -0.1599 C.2       1 <1>        -0.0647
     16 C16         3.9501   -0.0625    0.2985 C.2       1 <1>        -0.0647
     17 N1          2.6819    0.3170    0.6536 N.pl3     1 <1>        -0.3613
     18 H1         -2.5333    3.5744    0.3599 H         1 <1>         0.1131
     19 H2          6.5394   -3.9639    2.8202 H         1 <1>         0.1131
     20 H3         -0.6259    4.9136   -0.4897 H         1 <1>         0.1197
     21 H4         -2.2036    1.1915    0.9667 H         1 <1>         0.1155
     22 H5          6.9928   -3.5227    0.4216 H         1 <1>         0.1156
     23 H6          4.8784   -2.5850    4.0431 H         1 <1>         0.1197
     24 H7          1.6037    3.8848   -0.7314 H         1 <1>         0.1314
     25 H8          0.0175    0.1449    0.7266 H         1 <1>         0.1163
     26 H9          5.7942   -1.7166   -0.7570 H         1 <1>         0.1162
     27 H10         3.6744   -0.7716    2.8819 H         1 <1>         0.1314
     28 H11         3.2598    2.3689   -1.8216 H         1 <1>         0.1256
     29 H12         5.2991    0.6758   -1.2678 H         1 <1>         0.1256
     30 H13         2.1380   -0.0932    1.4010 H         1 <1>         0.3055
@<TRIPOS>BOND
     1    1    3 ar
     2    1    4 ar
     3    2    5 ar
     4    2    6 ar
     5    3    7 ar
     6    4    8 ar
     7    5    9 ar
     8    6   10 ar
     9    7   13 ar
    10    8   13 ar
    11    9   14 ar
    12   10   14 ar
    13   11   12 1
    14   11   15 2
    15   12   16 2
    16   13   15 1
    17   14   16 1
    18   15   17 1
    19   16   17 1
    20    1   18 1
    21    2   19 1
    22    3   20 1
    23    4   21 1
    24    5   22 1
    25    6   23 1
    26    7   24 1
    27    8   25 1
    28    9   26 1
    29   10   27 1
    30   11   28 1
    31   12   29 1
    32   17   30 1
@<TRIPOS>Similarity
1.3396
@<TRIPOS>ShapeSim
0.8121
@<TRIPOS>PharmSim
0.5275
# END
# Name:		AE-641/14883017
# Created and modified by SHAFTS on Tue Sep 23 19:00:28 2014

# 

@<TRIPOS>MOLECULE
AE-641/14883017
   38    40     0
SMALL
USER_CHARGE


@<TRIPOS>ATOM
      1 C1         -1.2799    3.0161    0.1945 C.ar      1 <1>        -0.0981
      2 C2          5.9831   -3.3361    2.4983 C.ar      1 <1>        -0.0866
      3 C3         -0.1070    3.7507    0.3674 C.ar      1 <1>        -0.0928
      4 C4         -1.2141    1.6441   -0.0491 C.ar      1 <1>        -0.0927
      5 C5          5.7388   -3.4492    1.1297 C.ar      1 <1>        -0.0785
      6 C6          5.5707   -2.1962    3.1886 C.ar      1 <1>        -0.0774
      7 C7          1.1318    3.1136    0.2965 C.ar      1 <1>        -0.0755
      8 C8          0.0247    1.0070   -0.1201 C.ar      1 <1>        -0.0753
      9 C9          5.0821   -2.4225    0.4513 C.ar      1 <1>        -0.0519
     10 C10         4.9140   -1.1695    2.5102 C.ar      1 <1>        -0.0509
     11 C11         1.1977    1.7417    0.0527 C.ar      1 <1>        -0.0439
     12 C12         3.5182    1.3581   -0.9233 C.2       1 <1>         0.0035
     13 C13         4.6698   -1.2825    1.1415 C.ar      1 <1>        -0.0059
     14 C14         2.4730    1.0856   -0.0205 C.2       1 <1>         0.0123
     15 C15         4.5070    0.4675   -0.5828 C.2       1 <1>         0.0923
     16 C16         5.7991    0.3002   -1.1745 C.2       1 <1>         0.1626
     17 C17         3.5517    2.3704   -1.9955 C.3       1 <1>        -0.0063
     18 C18         7.5832    1.4348   -2.3203 C.3       1 <1>         0.0412
     19 N1          2.7700    0.0991    0.8296 N.2       1 <1>        -0.3242
     20 N2          4.0130   -0.2562    0.4624 N.pl3     1 <1>        -0.2730
     21 O1          6.4361   -0.7757   -1.2292 O.2       1 <1>        -0.4527
     22 O2          6.2945    1.4735   -1.6981 O.3       1 <1>        -0.3828
     23 H1         -2.2446    3.5116    0.2508 H         1 <1>         0.1154
     24 H2          6.4927   -4.1358    3.0273 H         1 <1>         0.1265
     25 H3         -0.1580    4.8187    0.5584 H         1 <1>         0.1190
     26 H4         -2.1275    1.0721   -0.1824 H         1 <1>         0.1185
     27 H5          6.0586   -4.3371    0.5924 H         1 <1>         0.1314
     28 H6          5.7602   -2.1094    4.2547 H         1 <1>         0.1329
     29 H7          2.0373    3.7002    0.4332 H         1 <1>         0.1337
     30 H8          0.0591   -0.0631   -0.3108 H         1 <1>         0.1340
     31 H9          4.8971   -2.5236   -0.6154 H         1 <1>         0.1538
     32 H10         4.5975   -0.2868    3.0605 H         1 <1>         0.1547
     33 H11         3.9516    3.3292   -1.6257 H         1 <1>         0.0792
     34 H12         4.1786    2.0529   -2.8467 H         1 <1>         0.0791
     35 H13         2.5486    2.5655   -2.4133 H         1 <1>         0.0841
     36 H14         7.8423    2.4314   -2.6859 H         1 <1>         0.1247
     37 H15         7.5669    0.7234   -3.1500 H         1 <1>         0.1449
     38 H16         8.3242    1.1152   -1.5837 H         1 <1>         0.1245
@<TRIPOS>BOND
     1    1    3 ar
     2    1    4 ar
     3    2    5 ar
     4    2    6 ar
     5    3    7 ar
     6    4    8 ar
     7    5    9 ar
     8    6   10 ar
     9    7   11 ar
    10    8   11 ar
    11    9   13 ar
    12   10   13 ar
    13   11   14 1
    14   12   14 1
    15   12   15 2
    16   12   17 1
    17   13   20 1
    18   14   19 2
    19   15   16 1
    20   15   20 1
    21   16   21 2
    22   16   22 1
    23   18   22 1
    24   19   20 1
    25    1   23 1
    26    2   24 1
    27    3   25 1
    28    4   26 1
    29    5   27 1
    30    6   28 1
    31    7   29 1
    32    8   30 1
    33    9   31 1
    34   10   32 1
    35   17   33 1
    36   17   34 1
    37   17   35 1
    38   18   36 1
    39   18   37 1
    40   18   38 1
@<TRIPOS>Similarity
1.3376
@<TRIPOS>ShapeSim
0.8215
@<TRIPOS>PharmSim
0.5161
# END
# Name:		AG-927/42926100
# Created and modified by SHAFTS on Tue Sep 23 19:00:28 2014

# 

@<TRIPOS>MOLECULE
AG-927/42926100
   32    34     0
SMALL
USER_CHARGE


@<TRIPOS>ATOM
      1 C1         -1.2710    3.1064    0.0961 C.ar      1 <1>        -0.0980
      2 C2          6.0317   -3.2307    2.3615 C.ar      1 <1>        -0.0913
      3 C3         -0.1521    3.8082   -0.3524 C.ar      1 <1>        -0.0927
      4 C4         -1.1508    1.7685    0.4716 C.ar      1 <1>        -0.0928
      5 C5          5.7826   -3.3405    0.9935 C.ar      1 <1>        -0.0824
      6 C6          5.6143   -2.0962    3.0576 C.ar      1 <1>        -0.0838
      7 C7          1.0870    3.1721   -0.4254 C.ar      1 <1>        -0.0761
      8 C8          0.0884    1.1322    0.3987 C.ar      1 <1>        -0.0758
      9 C9          5.1161   -2.3158    0.3215 C.ar      1 <1>        -0.0607
     10 C10         4.9480   -1.0715    2.3855 C.ar      1 <1>        -0.0629
     11 C11         3.5223    1.4604   -1.0317 C.2       1 <1>        -0.0447
     12 C12         1.2074    1.8340   -0.0498 C.ar      1 <1>        -0.0502
     13 C13         4.6988   -1.1814    1.0175 C.ar      1 <1>        -0.0315
     14 C14         2.4829    1.1788   -0.1250 C.2       1 <1>        -0.0129
     15 C15         4.5173    0.5736   -0.6997 C.2       1 <1>        -0.0449
     16 C16         5.8587    0.3748   -1.2832 C.3       1 <1>        -0.0122
     17 N1          2.7892    0.1903    0.7194 N.2       1 <1>        -0.3564
     18 N2          4.0321   -0.1571    0.3448 N.pl3     1 <1>        -0.3328
     19 H1         -2.2358    3.6020    0.1540 H         1 <1>         0.1157
     20 H2          6.5489   -4.0291    2.8855 H         1 <1>         0.1205
     21 H3         -0.2453    4.8503   -0.6436 H         1 <1>         0.1188
     22 H4         -2.0219    1.2225    0.8218 H         1 <1>         0.1181
     23 H5          6.1062   -4.2244    0.4516 H         1 <1>         0.1296
     24 H6          5.8076   -2.0122    4.1232 H         1 <1>         0.1288
     25 H7          1.9501    3.7326   -0.7771 H         1 <1>         0.1348
     26 H8          0.1656    0.0887    0.6950 H         1 <1>         0.1356
     27 H9          4.9275   -2.4145   -0.7448 H         1 <1>         0.1485
     28 H10         4.6274   -0.1931    2.9405 H         1 <1>         0.1431
     29 H11         3.5502    2.2020   -1.8176 H         1 <1>         0.1450
     30 H12         6.6087    1.0056   -0.7786 H         1 <1>         0.0883
     31 H13         6.1935   -0.6734   -1.2028 H         1 <1>         0.0911
     32 H14         5.8825    0.6207   -2.3586 H         1 <1>         0.0843
@<TRIPOS>BOND
     1    1    3 ar
     2    1    4 ar
     3    2    5 ar
     4    2    6 ar
     5    3    7 ar
     6    4    8 ar
     7    5    9 ar
     8    6   10 ar
     9    7   12 ar
    10    8   12 ar
    11    9   13 ar
    12   10   13 ar
    13   11   14 1
    14   11   15 2
    15   12   14 1
    16   13   18 1
    17   14   17 2
    18   15   16 1
    19   15   18 1
    20   17   18 1
    21    1   19 1
    22    2   20 1
    23    3   21 1
    24    4   22 1
    25    5   23 1
    26    6   24 1
    27    7   25 1
    28    8   26 1
    29    9   27 1
    30   10   28 1
    31   11   29 1
    32   16   30 1
    33   16   31 1
    34   16   32 1
@<TRIPOS>Similarity
1.3370
@<TRIPOS>ShapeSim
0.7950
@<TRIPOS>PharmSim
0.5420
# END
# Name:		AE-842/31985041
# Created and modified by SHAFTS on Tue Sep 23 19:00:28 2014

# 

@<TRIPOS>MOLECULE
AE-842/31985041
   42    46     0
SMALL
USER_CHARGE


@<TRIPOS>ATOM
      1 C1         -1.2963    2.9584    0.1216 C.ar      1 <1>        -0.0960
      2 C2          5.8446   -3.4833    2.4432 C.ar      1 <1>        -0.0987
      3 C3         -0.2023    3.6229   -0.4323 C.ar      1 <1>        -0.0907
      4 C4         -1.1299    1.6966    0.6927 C.ar      1 <1>        -0.0910
      5 C5          5.7523   -3.3974    1.0541 C.ar      1 <1>        -0.0901
      6 C6          5.4145   -2.4204    3.2377 C.ar      1 <1>        -0.0901
      7 C7          1.0584    3.0259   -0.4152 C.ar      1 <1>        -0.0729
      8 C8          0.1305    1.0996    0.7099 C.ar      1 <1>        -0.0738
      9 C9          5.2302   -2.2488    0.4595 C.ar      1 <1>        -0.0732
     10 C10         4.8924   -1.2718    2.6432 C.ar      1 <1>        -0.0732
     11 C11         1.2247    1.7642    0.1561 C.ar      1 <1>        -0.0489
     12 C12         4.8001   -1.1859    1.2540 C.ar      1 <1>        -0.0510
     13 C13         2.5317    1.1452    0.1739 C.2       1 <1>        -0.0261
     14 C14         3.4356    0.5716   -3.3221 C.3       1 <1>        -0.0530
     15 C15         4.5817   -0.4580   -3.1145 C.3       1 <1>        -0.0533
     16 C16         5.3360    1.5718   -2.2938 C.3       1 <1>        -0.0467
     17 C17         3.5617    1.4042   -0.8860 C.3       1 <1>         0.0031
     18 C18         3.7916    1.7190   -2.3502 C.3       1 <1>        -0.0357
     19 C19         5.2880    0.0966   -1.8478 C.3       1 <1>        -0.0353
     20 C20         4.1995    0.0127   -0.7732 C.3       1 <1>         0.0042
     21 N1          3.0380    0.4117    1.1394 N.2       1 <1>        -0.3715
     22 N2          4.2830   -0.0485    0.6656 N.pl3     1 <1>        -0.3605
     23 H1         -2.2777    3.4232    0.1080 H         1 <1>         0.1187
     24 H2          6.2514   -4.3777    2.9062 H         1 <1>         0.1083
     25 H3         -0.3320    4.6052   -0.8772 H         1 <1>         0.1202
     26 H4         -1.9817    1.1792    1.1242 H         1 <1>         0.1204
     27 H5          6.0873   -4.2247    0.4358 H         1 <1>         0.1215
     28 H6          5.4864   -2.4875    4.3196 H         1 <1>         0.1210
     29 H7          1.9041    3.5528   -0.8495 H         1 <1>         0.1393
     30 H8          0.2484    0.1161    1.1576 H         1 <1>         0.1367
     31 H9          5.1628   -2.1917   -0.6239 H         1 <1>         0.1321
     32 H10         4.5601   -0.4500    3.2724 H         1 <1>         0.1317
     33 H11         3.4379    0.9189   -4.3610 H         1 <1>         0.0501
     34 H12         2.4517    0.1443   -3.1031 H         1 <1>         0.0458
     35 H13         4.2021   -1.4779   -2.9946 H         1 <1>         0.0484
     36 H14         5.2606   -0.4541   -3.9759 H         1 <1>         0.0456
     37 H15         5.8153    1.7228   -3.2682 H         1 <1>         0.0528
     38 H16         5.8300    2.2224   -1.5639 H         1 <1>         0.0560
     39 H17         4.1519    2.1758   -0.3510 H         1 <1>         0.0985
     40 H18         3.4272    2.6996   -2.6609 H         1 <1>         0.0748
     41 H19         6.2409   -0.3812   -1.6196 H         1 <1>         0.0815
     42 H20         3.4892   -0.7853   -1.0521 H         1 <1>         0.1212
@<TRIPOS>BOND
     1    1    3 ar
     2    1    4 ar
     3    2    5 ar
     4    2    6 ar
     5    3    7 ar
     6    4    8 ar
     7    5    9 ar
     8    6   10 ar
     9    7   11 ar
    10    8   11 ar
    11    9   12 ar
    12   10   12 ar
    13   11   13 1
    14   12   22 1
    15   13   17 1
    16   13   21 2
    17   14   15 1
    18   14   18 1
    19   15   19 1
    20   16   18 1
    21   16   19 1
    22   17   18 1
    23   17   20 1
    24   19   20 1
    25   20   22 1
    26   21   22 1
    27    1   23 1
    28    2   24 1
    29    3   25 1
    30    4   26 1
    31    5   27 1
    32    6   28 1
    33    7   29 1
    34    8   30 1
    35    9   31 1
    36   10   32 1
    37   14   33 1
    38   14   34 1
    39   15   35 1
    40   15   36 1
    41   16   37 1
    42   16   38 1
    43   17   39 1
    44   18   40 1
    45   19   41 1
    46   20   42 1
@<TRIPOS>Similarity
1.3221
@<TRIPOS>ShapeSim
0.7949
@<TRIPOS>PharmSim
0.5272
# END
# Name:		AH-487/40652398
# Created and modified by SHAFTS on Tue Sep 23 19:00:28 2014

# 

@<TRIPOS>MOLECULE
AH-487/40652398
   59    63     0
SMALL
USER_CHARGE


@<TRIPOS>ATOM
      1 C1          5.1543   -3.3245    2.9777 C.ar      1 <1>        -0.0948
      2 C2         -1.2665    2.0953    1.1442 C.ar      1 <1>        -0.0901
      3 C3          5.8114   -3.4246    1.7515 C.ar      1 <1>        -0.0903
      4 C4          4.3468   -2.2196    3.2481 C.ar      1 <1>        -0.0891
      5 C5         -0.8549    0.9540    0.4561 C.ar      1 <1>        -0.0808
      6 C6         -0.4839    3.2496    1.1116 C.ar      1 <1>        -0.0811
      7 C7          5.6610   -2.4199    0.7956 C.ar      1 <1>        -0.0727
      8 C8          4.1966   -1.2150    2.2923 C.ar      1 <1>        -0.0698
      9 C9          4.0689    3.0402   -4.8820 C.ar      1 <1>        -0.0674
     10 C10         4.9870    4.6509   -3.3330 C.ar      1 <1>        -0.0683
     11 C11         4.5986    3.7649   -5.9496 C.ar      1 <1>        -0.0902
     12 C12         5.5168    5.3757   -4.4006 C.ar      1 <1>        -0.0896
     13 C13         0.3396    0.9668   -0.2644 C.ar      1 <1>        -0.0545
     14 C14         0.7103    3.2624    0.3912 C.ar      1 <1>        -0.0547
     15 C15         5.7305   -0.0042   -0.8172 C.ar      1 <1>         0.0115
     16 C16         4.3367    1.6911   -1.7545 C.ar      1 <1>         0.0673
     17 C17         4.8536   -1.3152    1.0660 C.ar      1 <1>        -0.0427
     18 C18         4.2631    3.4833   -3.5737 C.ar      1 <1>        -0.0298
     19 C19         5.3225    4.9327   -5.7090 C.ar      1 <1>        -0.1080
     20 C20         5.5577    1.0053   -1.7643 C.ar      1 <1>         0.1118
     21 C21         1.1221    2.1211   -0.2969 C.ar      1 <1>        -0.0084
     22 C22         4.6979   -0.2740    0.0747 C.ar      1 <1>         0.0052
     23 C23         3.7163    2.7336   -2.4710 C.2       1 <1>         0.0436
     24 C24         3.3917    1.3212   -0.8103 C.ar      1 <1>         0.0629
     25 C25         4.7665    6.1874   -7.8213 C.3       1 <1>        -0.0604
     26 C26         6.8884    4.8407   -7.6802 C.3       1 <1>        -0.0605
     27 C27         6.6830    6.9970   -6.4597 C.3       1 <1>        -0.0604
     28 C28         5.8895    5.7061   -6.8509 C.3       1 <1>        -0.0511
     29 C29         6.6644    1.2992   -2.7227 C.3       1 <1>         0.3556
     30 N1          3.5014    0.3603    0.1237 N.ar      1 <1>        -0.3405
     31 N2          2.4852    3.0070   -2.0262 N.2       1 <1>        -0.3081
     32 N3          2.3158    2.1330   -1.0175 N.pl3     1 <1>        -0.2774
     33 F1          7.7626    0.5075   -2.5478 F         1 <1>        -0.2085
     34 F2          6.3102    1.1353   -4.0309 F         1 <1>        -0.2060
     35 F3          7.1166    2.5824   -2.6222 F         1 <1>        -0.2057
     36 H1          5.2702   -4.1076    3.7212 H         1 <1>         0.1210
     37 H2         -2.1971    2.0865    1.7036 H         1 <1>         0.1213
     38 H3          6.4386   -4.2855    1.5400 H         1 <1>         0.1217
     39 H4          3.8339   -2.1417    4.2023 H         1 <1>         0.1215
     40 H5         -1.4647    0.0557    0.4801 H         1 <1>         0.1304
     41 H6         -0.8061    4.1384    1.6465 H         1 <1>         0.1297
     42 H7          6.1796   -2.5128   -0.1559 H         1 <1>         0.1365
     43 H8          3.5634   -0.3599    2.5170 H         1 <1>         0.1448
     44 H9          3.5063    2.1323   -5.0867 H         1 <1>         0.1445
     45 H10         5.1471    5.0094   -2.3188 H         1 <1>         0.1387
     46 H11         4.4434    3.4125   -6.9658 H         1 <1>         0.1245
     47 H12         6.0797    6.2844   -4.2045 H         1 <1>         0.1271
     48 H13         0.6485    0.0707   -0.7970 H         1 <1>         0.1501
     49 H14         1.3103    4.1690    0.3736 H         1 <1>         0.1495
     50 H15         6.6602   -0.5664   -0.7811 H         1 <1>         0.1869
     51 H16         5.1572    6.7595   -8.6710 H         1 <1>         0.0389
     52 H17         4.2049    5.3428   -8.2354 H         1 <1>         0.0404
     53 H18         4.0532    6.8271   -7.2881 H         1 <1>         0.0392
     54 H19         7.3072    5.4056   -8.5203 H         1 <1>         0.0392
     55 H20         7.7345    4.4809   -7.0830 H         1 <1>         0.0393
     56 H21         6.3768    3.9644   -8.0955 H         1 <1>         0.0391
     57 H22         7.0794    7.5301   -7.3323 H         1 <1>         0.0392
     58 H23         6.0401    7.7005   -5.9178 H         1 <1>         0.0404
     59 H24         7.5369    6.7503   -5.8180 H         1 <1>         0.0390
@<TRIPOS>BOND
     1    1    3 ar
     2    1    4 ar
     3    2    5 ar
     4    2    6 ar
     5    3    7 ar
     6    4    8 ar
     7    5   13 ar
     8    6   14 ar
     9    7   17 ar
    10    8   17 ar
    11    9   11 ar
    12    9   18 ar
    13   10   12 ar
    14   10   18 ar
    15   11   19 ar
    16   12   19 ar
    17   13   21 ar
    18   14   21 ar
    19   15   20 ar
    20   15   22 ar
    21   16   20 ar
    22   16   23 1
    23   16   24 ar
    24   17   22 1
    25   18   23 1
    26   19   28 1
    27   20   29 1
    28   21   32 1
    29   22   30 ar
    30   23   31 2
    31   24   30 ar
    32   24   32 1
    33   25   28 1
    34   26   28 1
    35   27   28 1
    36   29   33 1
    37   29   34 1
    38   29   35 1
    39   31   32 1
    40    1   36 1
    41    2   37 1
    42    3   38 1
    43    4   39 1
    44    5   40 1
    45    6   41 1
    46    7   42 1
    47    8   43 1
    48    9   44 1
    49   10   45 1
    50   11   46 1
    51   12   47 1
    52   13   48 1
    53   14   49 1
    54   15   50 1
    55   25   51 1
    56   25   52 1
    57   25   53 1
    58   26   54 1
    59   26   55 1
    60   26   56 1
    61   27   57 1
    62   27   58 1
    63   27   59 1
@<TRIPOS>Similarity
1.3166
@<TRIPOS>ShapeSim
0.7546
@<TRIPOS>PharmSim
0.5619
# END
# Name:		AB-321/43115455
# Created and modified by SHAFTS on Tue Sep 23 19:00:28 2014

# 

@<TRIPOS>MOLECULE
AB-321/43115455
   42    45     0
SMALL
USER_CHARGE


@<TRIPOS>ATOM
      1 C1         -1.2176    3.2529   -0.0885 C.ar      1 <1>        -0.0999
      2 C2          6.1986   -3.2385    2.2694 C.ar      1 <1>        -0.0907
      3 C3          5.0822    2.3046   -2.8321 C.ar      1 <1>        -0.0881
      4 C4         -0.0358    3.9699    0.0982 C.ar      1 <1>        -0.0965
      5 C5         -1.1702    1.8780   -0.3191 C.ar      1 <1>        -0.0951
      6 C6          6.0569    1.3842   -2.4522 C.ar      1 <1>        -0.0837
      7 C7          5.9263   -3.3396    0.9050 C.ar      1 <1>        -0.0850
      8 C8          5.7770   -2.1169    2.9834 C.ar      1 <1>        -0.0835
      9 C9          3.8530    2.3626   -2.1652 C.ar      1 <1>        -0.0715
     10 C10         1.1934    3.3121    0.0542 C.ar      1 <1>        -0.0831
     11 C11         0.0591    1.2202   -0.3631 C.ar      1 <1>        -0.0816
     12 C12         5.8360    0.4946   -1.3969 C.ar      1 <1>        -0.0664
     13 C13         5.2326   -2.3189    0.2549 C.ar      1 <1>        -0.0669
     14 C14         5.0833   -1.0963    2.3333 C.ar      1 <1>        -0.0651
     15 C15         3.6076    1.4757   -1.0981 C.ar      1 <1>        -0.0336
     16 C16         1.2409    1.9372   -0.1765 C.ar      1 <1>        -0.0553
     17 C17         2.5073    1.2592   -0.2220 C.2       1 <1>         0.0013
     18 C18         4.6027    0.5640   -0.7393 C.ar      1 <1>        -0.0278
     19 C19         4.8112   -1.1973    0.9690 C.ar      1 <1>        -0.0360
     20 C20         2.8493    0.2390    0.6354 C.2       1 <1>         0.0794
     21 C21         2.0591   -0.3272    1.6920 C.2       1 <1>         0.1630
     22 C22         0.9298    0.1591    3.7542 C.3       1 <1>         0.0405
     23 N1          4.1149   -0.1737    0.3159 N.pl3     1 <1>        -0.3208
     24 O1          1.7070   -1.5230    1.7646 O.2       1 <1>        -0.4485
     25 O2          1.7188    0.6036    2.6454 O.3       1 <1>        -0.3818
     26 H1         -2.1749    3.7647   -0.0531 H         1 <1>         0.1130
     27 H2          6.7370   -4.0336    2.7765 H         1 <1>         0.1224
     28 H3          5.2768    2.9858   -3.6562 H         1 <1>         0.1191
     29 H4         -0.0725    5.0401    0.2791 H         1 <1>         0.1150
     30 H5         -2.0906    1.3198   -0.4631 H         1 <1>         0.1167
     31 H6          7.0045    1.3565   -2.9845 H         1 <1>         0.1303
     32 H7          6.2532   -4.2133    0.3492 H         1 <1>         0.1267
     33 H8          5.9882   -2.0395    4.0461 H         1 <1>         0.1282
     34 H9          3.1044    3.0870   -2.4731 H         1 <1>         0.1393
     35 H10         2.1059    3.8851    0.2015 H         1 <1>         0.1268
     36 H11         0.0791    0.1479   -0.5438 H         1 <1>         0.1285
     37 H12         6.6011   -0.2183   -1.1075 H         1 <1>         0.1370
     38 H13         5.0262   -2.4106   -0.8088 H         1 <1>         0.1415
     39 H14         4.7599   -0.2279    2.9021 H         1 <1>         0.1446
     40 H15         0.7377    0.9994    4.4258 H         1 <1>         0.1435
     41 H16         1.4622   -0.6328    4.2872 H         1 <1>         0.1219
     42 H17        -0.0202   -0.2306    3.3810 H         1 <1>         0.1222
@<TRIPOS>BOND
     1    1    4 ar
     2    1    5 ar
     3    2    7 ar
     4    2    8 ar
     5    3    6 ar
     6    3    9 ar
     7    4   10 ar
     8    5   11 ar
     9    6   12 ar
    10    7   13 ar
    11    8   14 ar
    12    9   15 ar
    13   10   16 ar
    14   11   16 ar
    15   12   18 ar
    16   13   19 ar
    17   14   19 ar
    18   15   17 1
    19   15   18 ar
    20   16   17 1
    21   17   20 2
    22   18   23 1
    23   19   23 1
    24   20   21 1
    25   20   23 1
    26   21   24 2
    27   21   25 1
    28   22   25 1
    29    1   26 1
    30    2   27 1
    31    3   28 1
    32    4   29 1
    33    5   30 1
    34    6   31 1
    35    7   32 1
    36    8   33 1
    37    9   34 1
    38   10   35 1
    39   11   36 1
    40   12   37 1
    41   13   38 1
    42   14   39 1
    43   22   40 1
    44   22   41 1
    45   22   42 1
@<TRIPOS>Similarity
1.3031
@<TRIPOS>ShapeSim
0.8130
@<TRIPOS>PharmSim
0.4901
# END
# Name:		AK-087/42718336
# Created and modified by SHAFTS on Tue Sep 23 19:00:28 2014

# 

@<TRIPOS>MOLECULE
AK-087/42718336
   37    39     0
SMALL
USER_CHARGE


@<TRIPOS>ATOM
      1 C1          5.8715    0.7183   -2.7191 C.1       1 <1>        -0.0185
      2 C2          1.1409    3.2051    0.1973 C.ar      1 <1>        -0.0603
      3 C3          0.0346    1.0989   -0.2236 C.ar      1 <1>        -0.0601
      4 C4          5.1165   -2.3164    0.3214 C.ar      1 <1>        -0.0446
      5 C5          4.9476   -1.0714    2.3851 C.ar      1 <1>        -0.0455
      6 C6          5.7829   -3.3406    0.9940 C.ar      1 <1>        -0.0456
      7 C7          5.6139   -2.0957    3.0576 C.ar      1 <1>        -0.0504
      8 C8         -0.0981    3.8415    0.2698 C.ar      1 <1>        -0.0625
      9 C9         -1.2044    1.7354   -0.1511 C.ar      1 <1>        -0.0626
     10 C10         3.5222    1.4605   -1.0317 C.2       1 <1>        -0.0228
     11 C11         1.2074    1.8338   -0.0496 C.ar      1 <1>        -0.0374
     12 C12         4.6989   -1.1817    1.0170 C.ar      1 <1>        -0.0187
     13 C13         6.0316   -3.2304    2.3621 C.ar      1 <1>        -0.0289
     14 C14        -1.2709    3.1065    0.0958 C.ar      1 <1>        -0.0369
     15 C15         2.4829    1.1786   -0.1249 C.2       1 <1>        -0.0001
     16 C16         4.5172    0.5736   -0.6999 C.2       1 <1>         0.0084
     17 C17         6.9021   -4.0513    4.4174 C.3       1 <1>         0.0120
     18 C18         5.8586    0.3750   -1.2834 C.3       1 <1>         0.1102
     19 N1          5.8712    0.9894   -3.8475 N.1       1 <1>        -0.4108
     20 N2          2.7892    0.1899    0.7193 N.2       1 <1>        -0.3455
     21 N3          4.0321   -0.1572    0.3444 N.pl3     1 <1>        -0.3128
     22 O1          6.6811   -4.2299    3.0192 O.3       1 <1>        -0.4606
     23 Br1        -2.9495    3.9690    0.1927 Br        1 <1>        -0.1428
     24 H1          2.0458    3.7921    0.3352 H         1 <1>         0.1494
     25 H2          0.0697    0.0293   -0.4182 H         1 <1>         0.1501
     26 H3          4.9295   -2.4154   -0.7452 H         1 <1>         0.1559
     27 H4          4.6280   -0.1921    2.9391 H         1 <1>         0.1618
     28 H5          6.1059   -4.2225    0.4472 H         1 <1>         0.1568
     29 H6          5.8039   -2.0035    4.1235 H         1 <1>         0.1419
     30 H7         -0.1320    4.9106    0.4616 H         1 <1>         0.1438
     31 H8         -2.1089    1.1486   -0.2908 H         1 <1>         0.1430
     32 H9          3.5501    2.2021   -1.8174 H         1 <1>         0.1599
     33 H10         7.4290   -4.9208    4.8178 H         1 <1>         0.1101
     34 H11         5.9427   -3.9272    4.9259 H         1 <1>         0.1102
     35 H12         7.5111   -3.1571    4.5696 H         1 <1>         0.1341
     36 H13         6.1974   -0.6689   -1.1630 H         1 <1>         0.2052
     37 H14         6.6168    0.9860   -0.7634 H         1 <1>         0.2147
@<TRIPOS>BOND
     1    1   18 1
     2    1   19 3
     3    2    8 ar
     4    2   11 ar
     5    3    9 ar
     6    3   11 ar
     7    4    6 ar
     8    4   12 ar
     9    5    7 ar
    10    5   12 ar
    11    6   13 ar
    12    7   13 ar
    13    8   14 ar
    14    9   14 ar
    15   10   15 1
    16   10   16 2
    17   11   15 1
    18   12   21 1
    19   13   22 1
    20   14   23 1
    21   15   20 2
    22   16   18 1
    23   16   21 1
    24   17   22 1
    25   20   21 1
    26    2   24 1
    27    3   25 1
    28    4   26 1
    29    5   27 1
    30    6   28 1
    31    7   29 1
    32    8   30 1
    33    9   31 1
    34   10   32 1
    35   17   33 1
    36   17   34 1
    37   17   35 1
    38   18   36 1
    39   18   37 1
@<TRIPOS>Similarity
1.2910
@<TRIPOS>ShapeSim
0.8143
@<TRIPOS>PharmSim
0.4767
# END
