@<TRIPOS>MOLECULE
AJ-916/40989362
   36    39     0
SMALL
USER_CHARGE


@<TRIPOS>ATOM
      1 C1         -1.0460    1.3541    0.1528 C.ar      1 <1>        -0.0756
      2 C2          0.2042    1.2236   -0.4517 C.ar      1 <1>        -0.0617
      3 C3          4.1000   -1.7979    2.0142 C.ar      1 <1>        -0.0433
      4 C4          6.2165   -1.8861    0.8524 C.ar      1 <1>        -0.0393
      5 C5         -1.4122    2.5635    0.7434 C.ar      1 <1>        -0.0649
      6 C6          4.5147   -2.8359    2.8485 C.ar      1 <1>        -0.0501
      7 C7          6.6312   -2.9241    1.6868 C.ar      1 <1>        -0.0481
      8 C8          0.7221    3.5120    0.1251 C.ar      1 <1>        -0.0388
      9 C9          3.3255    0.3413    0.2486 C.2       1 <1>         0.0217
     10 C10         3.3731    1.2724   -0.7480 C.ar      1 <1>         0.0365
     11 C11         1.0883    2.3024   -0.4656 C.ar      1 <1>        -0.0202
     12 C12         4.6610    1.1511   -1.3855 C.ar      1 <1>         0.0493
     13 C13         4.9509   -1.3230    1.0161 C.ar      1 <1>        -0.0086
     14 C14         5.7804   -3.3990    2.6848 C.ar      1 <1>        -0.0255
     15 C15        -0.5282    3.6424    0.7296 C.ar      1 <1>        -0.0270
     16 C16         2.3700    2.1684   -1.0854 C.ar      1 <1>         0.0393
     17 C17         4.9964    1.9907   -2.4576 C.ar      1 <1>         0.0281
     18 C18         6.2738    1.9880   -3.2135 C.3       1 <1>         0.0143
     19 N1          5.3586    0.1736   -0.7822 N.2       1 <1>        -0.3203
     20 N2          2.7244    2.9675   -2.1269 N.ar      1 <1>        -0.3022
     21 N3          4.0195    2.8773   -2.8010 N.ar      1 <1>        -0.3038
     22 N4          4.5363   -0.2855    0.1829 N.pl3     1 <1>        -0.2982
     23 Br1         6.3426   -4.8048    3.8162 Br        1 <1>        -0.1313
     24 Br2        -1.0243    5.2806    1.5317 Br        1 <1>        -0.1346
     25 H1         -1.7344    0.5142    0.1637 H         1 <1>         0.1352
     26 H2          0.4744    0.2749   -0.9092 H         1 <1>         0.1424
     27 H3          3.1107   -1.3685    2.1526 H         1 <1>         0.1593
     28 H4          6.8895   -1.5254    0.0784 H         1 <1>         0.1711
     29 H5         -2.3904    2.6487    1.2103 H         1 <1>         0.1448
     30 H6          3.8400   -3.1946    3.6216 H         1 <1>         0.1583
     31 H7          7.6207   -3.3520    1.5460 H         1 <1>         0.1593
     32 H8          1.4127    4.3532    0.1138 H         1 <1>         0.1680
     33 H9          2.5708    0.0713    0.9765 H         1 <1>         0.2546
     34 H10         6.2173    1.3021   -4.0707 H         1 <1>         0.1049
     35 H11         6.5224    2.9904   -3.5933 H         1 <1>         0.1014
     36 H12         7.1186    1.6763   -2.5810 H         1 <1>         0.1051
@<TRIPOS>BOND
     1    1    2 ar
     2    1    5 ar
     3    2   11 ar
     4    3    6 ar
     5    3   13 ar
     6    4    7 ar
     7    4   13 ar
     8    5   15 ar
     9    6   14 ar
    10    7   14 ar
    11    8   11 ar
    12    8   15 ar
    13    9   10 2
    14    9   22 1
    15   10   12 ar
    16   10   16 ar
    17   11   16 1
    18   12   17 ar
    19   12   19 2
    20   13   22 1
    21   14   23 1
    22   15   24 1
    23   16   20 ar
    24   17   18 1
    25   17   21 ar
    26   19   22 1
    27   20   21 ar
    28    1   25 1
    29    2   26 1
    30    3   27 1
    31    4   28 1
    32    5   29 1
    33    6   30 1
    34    7   31 1
    35    8   32 1
    36    9   33 1
    37   18   34 1
    38   18   35 1
    39   18   36 1
