@<TRIPOS>MOLECULE
ZINC00384358
   33    35     0
SMALL
USER_CHARGE


@<TRIPOS>ATOM
      1 C1          6.6105   -3.1990    1.2896 C.ar      1 <1>        -0.0571
      2 C2          5.9731   -2.1708    0.6045 C.ar      1 <1>        -0.0450
      3 C3          1.2993    3.0155   -0.3742 C.ar      1 <1>        -0.0778
      4 C4          0.2771    0.9784    0.4271 C.ar      1 <1>        -0.0812
      5 C5          0.0648    3.6611   -0.3081 C.ar      1 <1>        -0.0952
      6 C6         -0.9577    1.6241    0.4933 C.ar      1 <1>        -0.0970
      7 C7          6.1370   -3.5307    2.5487 C.ar      1 <1>        -0.0377
      8 C8          4.4996   -1.9218    2.4547 C.ar      1 <1>        -0.0102
      9 C9          3.6471    1.3578   -0.9907 C.2       1 <1>        -0.0078
     10 C10         1.4056    1.6741   -0.0066 C.ar      1 <1>        -0.0590
     11 C11         4.8967   -1.5146    1.1911 C.ar      1 <1>        -0.0049
     12 C12        -1.0638    2.9655    0.1257 C.ar      1 <1>        -0.1106
     13 C13         2.6770    1.0101   -0.0741 C.2       1 <1>        -0.0223
     14 C14         4.2142   -0.4431    0.5052 C.2       1 <1>         0.0211
     15 C15        -2.2986    5.1160   -0.2439 C.3       1 <1>        -0.0606
     16 C16        -2.3830    3.6571    0.1971 C.3       1 <1>        -0.0454
     17 N1          5.0942   -2.9163    3.1512 N.ar      1 <1>        -0.3947
     18 N2          3.0003   -0.0228    0.7842 N.2       1 <1>        -0.3781
     19 S1          5.0248    0.3590   -0.7772 S.3       1 <1>        -0.1191
     20 H1          7.4515   -3.7245    0.8519 H         1 <1>         0.1446
     21 H2          6.3262   -1.8920   -0.3853 H         1 <1>         0.1582
     22 H3          2.1694    3.5718   -0.7151 H         1 <1>         0.1393
     23 H4          0.3435   -0.0676    0.7172 H         1 <1>         0.1292
     24 H5         -0.0090    4.7066   -0.5955 H         1 <1>         0.1195
     25 H6         -1.8321    1.0750    0.8324 H         1 <1>         0.1185
     26 H7          6.5996   -4.3255    3.1244 H         1 <1>         0.2082
     27 H8          3.6662   -1.4503    2.9677 H         1 <1>         0.2341
     28 H9          3.6228    2.1250   -1.7524 H         1 <1>         0.2020
     29 H10        -1.5680    5.6668    0.3582 H         1 <1>         0.0354
     30 H11        -3.2690    5.6106   -0.1355 H         1 <1>         0.0371
     31 H12        -1.9945    5.1921   -1.2934 H         1 <1>         0.0355
     32 H13        -3.1251    3.1346   -0.4279 H         1 <1>         0.0604
     33 H14        -2.7844    3.6139    1.2225 H         1 <1>         0.0606
@<TRIPOS>BOND
     1    1    2 ar
     2    1    7 ar
     3    2   11 ar
     4    3    5 ar
     5    3   10 ar
     6    4    6 ar
     7    4   10 ar
     8    5   12 ar
     9    6   12 ar
    10    7   17 ar
    11    8   11 ar
    12    8   17 ar
    13    9   13 2
    14    9   19 1
    15   10   13 1
    16   11   14 1
    17   12   16 1
    18   13   18 1
    19   14   18 2
    20   14   19 1
    21   15   16 1
    22    1   20 1
    23    2   21 1
    24    3   22 1
    25    4   23 1
    26    5   24 1
    27    6   25 1
    28    7   26 1
    29    8   27 1
    30    9   28 1
    31   15   29 1
    32   15   30 1
    33   15   31 1
    34   16   32 1
    35   16   33 1
