@<TRIPOS>MOLECULE
*****
 10 9 0 0 0
SMALL
GASTEIGER

@<TRIPOS>ATOM
      1 N           0.9776   -0.0636   -0.0738 N.3     1  GLU1       -0.1208
      2 CA          2.4476   -0.0636   -0.0738 C.3     1  GLU1        0.1949
      3 C           2.9416   -0.5243    1.2453 C.2     1  GLU1        0.3819
      4 CB          2.9543   -0.9991   -1.1595 C.3     1  GLU1        0.0424
      5 O           3.6474   -1.5258    1.3208 O.co2   1  GLU1       -0.2441
      6 OXT         2.6157    0.1571    2.3630 O.co2   1  GLU1       -0.2441
      7 CG          4.4743   -0.9991   -1.1595 C.3     1  GLU1        0.1161
      8 CD          4.9683   -1.9112   -2.2179 C.2     1  GLU1        0.3649
      9 OE1         4.0916   -2.5805   -2.9947 O.co2   1  GLU1       -0.2457
     10 OE2         6.1752   -2.0576   -2.3879 O.co2   1  GLU1       -0.2457
@<TRIPOS>BOND
     1     1     2    1
     2     2     3    1
     3     2     4    1
     4     3     5   ar
     5     3     6   ar
     6     4     7    1
     7     7     8    1
     8     8     9   ar
     9     8    10   ar
