@<TRIPOS>MOLECULE
AG-777/36178014
 27 28 0 0 0
SMALL
USER_CHARGES

@<TRIPOS>ATOM
      1 C           6.2456   -3.8986    1.5817 C.ar    1  LIG1       -0.1045
      2 C           7.4966   -3.2953    1.4698 C.ar    1  LIG1       -0.1015
      3 C           5.0739   -3.1362    1.5125 C.ar    1  LIG1       -0.0948
      4 C           7.6173   -1.9149    1.2855 C.ar    1  LIG1       -0.0797
      5 C           4.9161    0.4852    1.0421 C.ar    1  LIG1       -0.0777
      6 C           5.1705   -1.7428    1.3272 C.ar    1  LIG1       -0.0780
      7 C           4.2205   -0.6894    1.2140 C.ar    1  LIG1       -0.0964
      8 C           6.4374   -1.1654    1.2183 C.ar    1  LIG1       -0.0718
      9 C           2.3302    0.8360   -0.6190 C.2     1  LIG1        0.0373
     10 C           2.0019   -0.2007   -1.6403 C.3     1  LIG1        0.0204
     11 C           2.7504   -0.8208    1.2711 C.3     1  LIG1       -0.0294
     12 C           2.0209    0.4545    0.8127 C.3     1  LIG1        0.0244
     13 N           6.2525    0.1879    1.0458 N.ar    1  LIG1       -0.3767
     14 O           2.8179    1.9040   -0.9660 O.2     1  LIG1       -0.4818
     15 H           6.1774   -4.9737    1.7239 H       1  LIG1        0.1100
     16 H           8.3937   -3.9064    1.5265 H       1  LIG1        0.1203
     17 H           4.1060   -3.6217    1.6005 H       1  LIG1        0.1245
     18 H           8.5917   -1.4459    1.1996 H       1  LIG1        0.1184
     19 H           4.5810    1.5055    0.9160 H       1  LIG1        0.1881
     20 H           0.9754   -0.1026   -2.0268 H       1  LIG1        0.0681
     21 H           2.6569   -0.1443   -2.5239 H       1  LIG1        0.0673
     22 H           2.0830   -1.2377   -1.2792 H       1  LIG1        0.0754
     23 H           2.4050   -1.6733    0.6532 H       1  LIG1        0.0719
     24 H           2.4152   -1.0774    2.2957 H       1  LIG1        0.0712
     25 H           2.3060    1.2945    1.4573 H       1  LIG1        0.0813
     26 H           0.9371    0.3115    0.8987 H       1  LIG1        0.0888
     27 H           6.9963    0.8636    0.9376 H       1  LIG1        0.3249
@<TRIPOS>BOND
     1     1     2   ar
     2     1     3   ar
     3     2     4   ar
     4     3     6   ar
     5     4     8   ar
     6     5     7   ar
     7     5    13   ar
     8     6     7   ar
     9     6     8   ar
    10     7    11    1
    11     8    13   ar
    12     9    10    1
    13     9    12    1
    14     9    14    2
    15    11    12    1
    16     1    15    1
    17     2    16    1
    18     3    17    1
    19     4    18    1
    20     5    19    1
    21    10    20    1
    22    10    21    1
    23    10    22    1
    24    11    23    1
    25    11    24    1
    26    12    25    1
    27    12    26    1
    28    13    27    1
