@<TRIPOS>MOLECULE
AE-473/30080045
 29 30 0 0 0
SMALL
USER_CHARGES

@<TRIPOS>ATOM
      1 C           6.1232   -3.8964    1.4604 C.ar    1  LIG1       -0.1043
      2 C           7.3974   -3.3606    1.2848 C.ar    1  LIG1       -0.1017
      3 C           4.9974   -3.0661    1.5088 C.ar    1  LIG1       -0.0941
      4 C           7.5878   -1.9821    1.1523 C.ar    1  LIG1       -0.0799
      5 C           5.0255    0.5767    1.2081 C.ar    1  LIG1       -0.0772
      6 C           5.1646   -1.6731    1.3775 C.ar    1  LIG1       -0.0771
      7 C           4.2741   -0.5632    1.3787 C.ar    1  LIG1       -0.0949
      8 C           6.4533   -1.1643    1.2026 C.ar    1  LIG1       -0.0718
      9 C           2.3355    1.4630    0.1662 C.2     1  LIG1       -0.0403
     10 C           2.0849    2.3926    1.3301 C.3     1  LIG1       -0.0033
     11 C           2.8062   -0.6132    1.5358 C.3     1  LIG1       -0.0337
     12 C           2.0244   -0.0113    0.3537 C.3     1  LIG1       -0.0062
     13 N           2.8328    1.8413   -0.9718 N.2     1  LIG1       -0.3472
     14 N           6.3386    0.2040    1.1026 N.ar    1  LIG1       -0.3768
     15 O           2.9491    0.7641   -1.8525 O.2     1  LIG1       -0.3978
     16 H           6.0004   -4.9714    1.5605 H       1  LIG1        0.1096
     17 H           8.2579   -4.0238    1.2503 H       1  LIG1        0.1202
     18 H           4.0106   -3.4992    1.6452 H       1  LIG1        0.1250
     19 H           8.5803   -1.5659    1.0168 H       1  LIG1        0.1181
     20 H           4.7444    1.6193    1.1506 H       1  LIG1        0.1885
     21 H           2.9872    2.4552    1.9445 H       1  LIG1        0.0805
     22 H           1.8198    3.3880    0.9639 H       1  LIG1        0.0808
     23 H           1.2624    2.0221    1.9474 H       1  LIG1        0.0760
     24 H           2.4725   -1.6612    1.6554 H       1  LIG1        0.0693
     25 H           2.4880   -0.1104    2.4683 H       1  LIG1        0.0728
     26 H           2.2575   -0.5493   -0.5730 H       1  LIG1        0.0758
     27 H           0.9452   -0.1067    0.5206 H       1  LIG1        0.0780
     28 H           7.1124    0.8405    0.9705 H       1  LIG1        0.3248
     29 H           3.3258    1.1945   -2.6385 H       1  LIG1        0.3869
@<TRIPOS>BOND
     1     1     2   ar
     2     1     3   ar
     3     2     4   ar
     4     3     6   ar
     5     4     8   ar
     6     5     7   ar
     7     5    14   ar
     8     6     7   ar
     9     6     8   ar
    10     7    11    1
    11     8    14   ar
    12     9    10    1
    13     9    12    1
    14     9    13    2
    15    11    12    1
    16    13    15    1
    17     1    16    1
    18     2    17    1
    19     3    18    1
    20     4    19    1
    21     5    20    1
    22    10    21    1
    23    10    22    1
    24    10    23    1
    25    11    24    1
    26    11    25    1
    27    12    26    1
    28    12    27    1
    29    14    28    1
    30    15    29    1
