@<TRIPOS>MOLECULE
AK-918/11907028
 37 39 0 0 0
SMALL
USER_CHARGES

@<TRIPOS>ATOM
      1 C           4.6515   -0.3480    1.5761 C.2     1  LIG1        0.5741
      2 C           3.4883   -2.1700    0.6540 C.2     1  LIG1        0.5589
      3 C           2.9483    1.4898    0.0641 C.2     1  LIG1        0.4647
      4 C           7.5696   -2.8416    0.9564 C.3     1  LIG1       -0.1276
      5 C           6.5480   -3.9554    0.5982 C.3     1  LIG1       -0.1272
      6 C           6.3306   -3.2765    2.8723 C.3     1  LIG1       -0.1201
      7 C           5.5759   -1.5089    1.3674 C.3     1  LIG1       -0.1928
      8 C           4.5715   -2.6394    1.5737 C.3     1  LIG1       -0.1170
      9 C           6.8222   -2.0566    2.0645 C.3     1  LIG1       -0.0541
     10 C           5.4786   -3.8470    1.7077 C.3     1  LIG1       -0.0790
     11 C           1.8063    0.8001    2.9143 C.3     1  LIG1       -0.1529
     12 C           0.0587    0.8623    1.1181 C.3     1  LIG1       -0.1401
     13 C           2.4162    0.1129    0.5209 C.3     1  LIG1        0.0942
     14 C           1.3231    0.1501    1.6129 C.3     1  LIG1       -0.0910
     15 N           3.4885   -0.7805    0.9020 N.am    1  LIG1       -0.5813
     16 O           3.5313    2.1811    0.9456 O.co2   1  LIG1       -0.5000
     17 O           4.9074    0.7191    2.1003 O.2     1  LIG1       -0.4795
     18 O           2.7526   -2.8524   -0.0328 O.2     1  LIG1       -0.4640
     19 O           2.7640    1.7574   -1.1587 O.co2   1  LIG1       -0.5000
     20 H           8.4945   -3.2837    1.3465 H       1  LIG1        0.0740
     21 H           7.8328   -2.2300    0.0873 H       1  LIG1        0.0679
     22 H           6.1157   -3.8125   -0.3974 H       1  LIG1        0.0758
     23 H           7.0440   -4.9319    0.6225 H       1  LIG1        0.0648
     24 H           7.1365   -3.9516    3.1827 H       1  LIG1        0.0755
     25 H           5.7516   -2.9951    3.7587 H       1  LIG1        0.0816
     26 H           5.8344   -1.3764    0.3007 H       1  LIG1        0.0951
     27 H           4.0609   -2.5557    2.5535 H       1  LIG1        0.1359
     28 H           7.4334   -1.3325    2.6035 H       1  LIG1        0.1167
     29 H           4.9562   -4.7808    1.9225 H       1  LIG1        0.1095
     30 H           2.1109    1.8367    2.7334 H       1  LIG1        0.0435
     31 H           2.6681    0.2715    3.3351 H       1  LIG1        0.0364
     32 H           1.0164    0.8170    3.6713 H       1  LIG1        0.1074
     33 H           0.2788    1.9047    0.8631 H       1  LIG1        0.0381
     34 H          -0.7143    0.8666    1.8937 H       1  LIG1        0.0535
     35 H          -0.3555    0.3819    0.2256 H       1  LIG1        0.0510
     36 H           1.9792   -0.3260   -0.3864 H       1  LIG1        0.0967
     37 H           1.0313   -0.8817    1.8484 H       1  LIG1        0.0800
@<TRIPOS>BOND
     1     1     7    1
     2     1    15   am
     3     1    17    2
     4     2     8    1
     5     2    15   am
     6     2    18    2
     7     3    13    1
     8     3    16   ar
     9     3    19   ar
    10     4     5    1
    11     4     9    1
    12     5    10    1
    13     6     9    1
    14     6    10    1
    15     7     8    1
    16     7     9    1
    17     8    10    1
    18    11    14    1
    19    12    14    1
    20    13    14    1
    21    13    15    1
    22     4    20    1
    23     4    21    1
    24     5    22    1
    25     5    23    1
    26     6    24    1
    27     6    25    1
    28     7    26    1
    29     8    27    1
    30     9    28    1
    31    10    29    1
    32    11    30    1
    33    11    31    1
    34    11    32    1
    35    12    33    1
    36    12    34    1
    37    12    35    1
    38    13    36    1
    39    14    37    1
