@<TRIPOS>MOLECULE
AG-205/14785177
 28 29 0 0 0
SMALL
USER_CHARGES

@<TRIPOS>ATOM
      1 C           7.5546   -2.3188    1.3891 C.ar    1  LIG1       -0.0616
      2 C           7.1050   -3.6415    1.3401 C.ar    1  LIG1       -0.0713
      3 C           4.7883   -2.9140    1.3118 C.ar    1  LIG1       -0.0707
      4 C           5.2177   -1.5729    1.3609 C.ar    1  LIG1       -0.0695
      5 C           4.5478   -0.3176    1.3838 C.ar    1  LIG1       -0.0965
      6 C           6.5881   -1.3067    1.3984 C.ar    1  LIG1       -0.0581
      7 C           5.7438   -3.9368    1.3020 C.ar    1  LIG1       -0.0354
      8 C           5.5066    0.6679    1.4342 C.ar    1  LIG1       -0.0883
      9 C           5.3849    2.1376    1.4767 C.3     1  LIG1       -0.0144
     10 C           3.0849   -0.1082    1.3589 C.3     1  LIG1       -0.0559
     11 C           2.4316   -0.3175   -0.0142 C.3     1  LIG1       -0.1124
     12 N           6.7340    0.0615    1.4423 N.ar    1  LIG1       -0.3664
     13 N           0.9627   -0.1347    0.0869 N.4     1  LIG1        0.4452
     14 BR          5.1771   -5.7408    1.2304 Br      1  LIG1       -0.1093
     15 H           8.6145   -2.0896    1.4183 H       1  LIG1        0.1379
     16 H           7.8441   -4.4400    1.3322 H       1  LIG1        0.1436
     17 H           3.7263   -3.1426    1.2812 H       1  LIG1        0.1392
     18 H           5.3306    2.5025    2.5158 H       1  LIG1        0.0776
     19 H           6.2397    2.6385    0.9906 H       1  LIG1        0.0745
     20 H           4.4834    2.4942    0.9493 H       1  LIG1        0.0796
     21 H           2.5968   -0.8057    2.0647 H       1  LIG1        0.0799
     22 H           2.8137    0.8974    1.7312 H       1  LIG1        0.0803
     23 H           2.5900   -1.3349   -0.3841 H       1  LIG1        0.0896
     24 H           2.7912    0.3989   -0.7590 H       1  LIG1        0.0904
     25 H           7.6209    0.5454    1.4753 H       1  LIG1        0.3364
     26 H           0.6989    0.8350   -0.1177 H       1  LIG1        0.1464
     27 H           0.6297   -0.3605    1.0303 H       1  LIG1        0.1434
     28 H           0.4709   -0.7431   -0.5763 H       1  LIG1        0.1461
@<TRIPOS>BOND
     1     1     2   ar
     2     1     6   ar
     3     2     7   ar
     4     3     4   ar
     5     3     7   ar
     6     4     5   ar
     7     4     6   ar
     8     5     8   ar
     9     5    10    1
    10     6    12   ar
    11     7    14    1
    12     8     9    1
    13     8    12   ar
    14    10    11    1
    15    11    13    1
    16     1    15    1
    17     2    16    1
    18     3    17    1
    19     9    18    1
    20     9    19    1
    21     9    20    1
    22    10    21    1
    23    10    22    1
    24    11    23    1
    25    11    24    1
    26    12    25    1
    27    13    26    1
    28    13    27    1
    29    13    28    1
