@<TRIPOS>MOLECULE
AG-690/36467004
 26 27 0 0 0
SMALL
USER_CHARGES

@<TRIPOS>ATOM
      1 C           5.7903   -3.8285    1.5111 C.ar    1  LIG1       -0.0997
      2 C           7.1111   -3.5036    1.8140 C.ar    1  LIG1       -0.0985
      3 C           4.8641   -2.8311    1.1850 C.ar    1  LIG1       -0.0840
      4 C           7.5480   -2.1759    1.8008 C.ar    1  LIG1       -0.0764
      5 C           5.5630    0.7533    1.0289 C.ar    1  LIG1       -0.0318
      6 C           5.2814   -1.4854    1.1653 C.ar    1  LIG1       -0.0479
      7 C           4.6323   -0.2501    0.8870 C.ar    1  LIG1        0.0218
      8 C           6.6111   -1.1895    1.4731 C.ar    1  LIG1       -0.0600
      9 C           3.2616   -0.0324    0.5203 C.2     1  LIG1        0.1564
     10 C           2.9113    0.6321   -0.8137 C.2     1  LIG1        0.2392
     11 C           2.3843    0.1194   -3.0380 C.3     1  LIG1        0.0419
     12 N           2.2441   -0.3899    1.2915 N.2     1  LIG1       -0.2604
     13 N           6.7535    0.1768    1.3823 N.ar    1  LIG1       -0.3580
     14 O           2.7908    1.8372   -0.9137 O.2     1  LIG1       -0.4386
     15 O           0.9938   -0.0915    0.7436 O.2     1  LIG1       -0.3597
     16 O           2.7530   -0.3385   -1.7343 O.3     1  LIG1       -0.3372
     17 H           5.4747   -4.8685    1.5273 H       1  LIG1        0.1148
     18 H           7.8139   -4.2942    2.0649 H       1  LIG1        0.1231
     19 H           3.8383   -3.1006    0.9509 H       1  LIG1        0.1351
     20 H           8.5764   -1.9246    2.0371 H       1  LIG1        0.1228
     21 H           5.4882    1.8256    0.9108 H       1  LIG1        0.2315
     22 H           2.2805   -0.7363   -3.7097 H       1  LIG1        0.0961
     23 H           3.1502    0.8017   -3.4156 H       1  LIG1        0.1278
     24 H           1.4296    0.6465   -2.9729 H       1  LIG1        0.0961
     25 H           7.6127    0.6810    1.5524 H       1  LIG1        0.3371
     26 H           1.2440    0.3195   -0.1012 H       1  LIG1        0.4088
@<TRIPOS>BOND
     1     1     2   ar
     2     1     3   ar
     3     2     4   ar
     4     3     6   ar
     5     4     8   ar
     6     5     7   ar
     7     5    13   ar
     8     6     7   ar
     9     6     8   ar
    10     7     9    1
    11     8    13   ar
    12     9    10    1
    13     9    12    2
    14    10    14    2
    15    10    16    1
    16    11    16    1
    17    12    15    1
    18     1    17    1
    19     2    18    1
    20     3    19    1
    21     4    20    1
    22     5    21    1
    23    11    22    1
    24    11    23    1
    25    11    24    1
    26    13    25    1
    27    15    26    1
