@<TRIPOS>MOLECULE
AO-080/40818400
 28 29 0 0 0
SMALL
USER_CHARGES

@<TRIPOS>ATOM
      1 C           7.4449   -3.9980    1.6656 C.ar    1  LIG1       -0.0977
      2 C           6.1875   -4.3479    1.1824 C.ar    1  LIG1       -0.0969
      3 C           7.7480   -2.6600    1.9196 C.ar    1  LIG1       -0.0898
      4 C           5.2285   -3.3615    0.9513 C.ar    1  LIG1       -0.0866
      5 C           7.0828   -0.3021    1.9428 C.ar    1  LIG1       -0.0846
      6 C           6.1238    0.6845    1.7116 C.ar    1  LIG1       -0.0693
      7 C           4.5632   -1.0035    0.9743 C.ar    1  LIG1       -0.0503
      8 C           6.7949   -1.6538    1.6927 C.ar    1  LIG1       -0.0761
      9 C           5.5164   -2.0097    1.2012 C.ar    1  LIG1       -0.0730
     10 C           4.8665    0.3344    1.2283 C.ar    1  LIG1       -0.0186
     11 C           2.0224    0.4283   -0.1708 C.3     1  LIG1       -0.0840
     12 C           2.5636    0.9238    1.1557 C.3     1  LIG1        0.0079
     13 N           0.5886    0.0762   -0.0144 N.4     1  LIG1        0.4490
     14 O           3.9320    1.2981    1.0035 O.3     1  LIG1       -0.4263
     15 H           8.1910   -4.7664    1.8447 H       1  LIG1        0.1226
     16 H           5.9517   -5.3898    0.9851 H       1  LIG1        0.1265
     17 H           8.7371   -2.4085    2.2967 H       1  LIG1        0.1292
     18 H           4.2525   -3.6581    0.5727 H       1  LIG1        0.1266
     19 H           8.0594   -0.0055    2.3201 H       1  LIG1        0.1411
     20 H           6.3655    1.7250    1.9106 H       1  LIG1        0.1122
     21 H           3.5751   -1.2604    0.5968 H       1  LIG1        0.1356
     22 H           2.5279   -0.4808   -0.5085 H       1  LIG1        0.1115
     23 H           2.0733    1.2010   -0.9424 H       1  LIG1        0.1074
     24 H           2.0054    1.8084    1.4777 H       1  LIG1        0.1099
     25 H           2.4887    0.1579    1.9346 H       1  LIG1        0.1258
     26 H           0.0125    0.9194    0.0752 H       1  LIG1        0.1496
     27 H           0.4427   -0.4979    0.8226 H       1  LIG1        0.1510
     28 H           0.2515   -0.4535   -0.8250 H       1  LIG1        0.1473
@<TRIPOS>BOND
     1     1     2   ar
     2     1     3   ar
     3     2     4   ar
     4     3     8   ar
     5     4     9   ar
     6     5     6   ar
     7     5     8   ar
     8     6    10   ar
     9     7     9   ar
    10     7    10   ar
    11     8     9   ar
    12    10    14    1
    13    11    12    1
    14    11    13    1
    15    12    14    1
    16     1    15    1
    17     2    16    1
    18     3    17    1
    19     4    18    1
    20     5    19    1
    21     6    20    1
    22     7    21    1
    23    11    22    1
    24    11    23    1
    25    12    24    1
    26    12    25    1
    27    13    26    1
    28    13    27    1
    29    13    28    1
