@<TRIPOS>MOLECULE
AI-942/13331877
 29 30 0 0 0
SMALL
USER_CHARGES

@<TRIPOS>ATOM
      1 C           7.2905   -3.9733    1.1035 C.ar    1  LIG1       -0.1041
      2 C           6.0240   -4.3423    1.5472 C.ar    1  LIG1       -0.1025
      3 C           7.6069   -2.6247    0.9375 C.ar    1  LIG1       -0.0945
      4 C           5.0692   -3.3643    1.8266 C.ar    1  LIG1       -0.0892
      5 C           6.9594   -0.2645    1.0525 C.ar    1  LIG1       -0.0876
      6 C           6.0045    0.7136    1.3318 C.ar    1  LIG1       -0.0651
      7 C           4.4216   -1.0041    1.9414 C.ar    1  LIG1       -0.0497
      8 C           6.6581   -1.6267    1.2139 C.ar    1  LIG1       -0.0799
      9 C           5.3703   -2.0021    1.6650 C.ar    1  LIG1       -0.0762
     10 C           4.7381    0.3445    1.7754 C.ar    1  LIG1       -0.0067
     11 C           2.3951    3.1547    1.4844 C.3     1  LIG1       -0.0304
     12 C           2.8711    1.3049   -0.1532 C.3     1  LIG1        0.0005
     13 C           3.4293    2.1620    0.9756 C.3     1  LIG1        0.0342
     14 O           2.5095    2.1504   -1.2401 O.3     1  LIG1       -0.4860
     15 O           3.8078    1.2999    2.0477 O.3     1  LIG1       -0.4059
     16 H           8.0329   -4.7353    0.8856 H       1  LIG1        0.1134
     17 H           5.7781   -5.3925    1.6767 H       1  LIG1        0.1187
     18 H           8.6027   -2.3583    0.5892 H       1  LIG1        0.1247
     19 H           4.0855   -3.6760    2.1716 H       1  LIG1        0.1240
     20 H           7.9428    0.0469    0.7061 H       1  LIG1        0.1343
     21 H           6.2562    1.7624    1.2001 H       1  LIG1        0.1164
     22 H           3.4266   -1.2759    2.2895 H       1  LIG1        0.1300
     23 H           1.4928    2.6312    1.8184 H       1  LIG1        0.0407
     24 H           2.7855    3.7416    2.3215 H       1  LIG1        0.0472
     25 H           2.0842    3.8401    0.6883 H       1  LIG1        0.0526
     26 H           3.6185    0.5919   -0.5165 H       1  LIG1        0.1007
     27 H           1.9758    0.7638    0.1685 H       1  LIG1        0.0928
     28 H           4.3319    2.6855    0.6416 H       1  LIG1        0.1225
     29 H           2.1599    1.5728   -1.9369 H       1  LIG1        0.3255
@<TRIPOS>BOND
     1     1     2   ar
     2     1     3   ar
     3     2     4   ar
     4     3     8   ar
     5     4     9   ar
     6     5     6   ar
     7     5     8   ar
     8     6    10   ar
     9     7     9   ar
    10     7    10   ar
    11     8     9   ar
    12    10    15    1
    13    11    13    1
    14    12    13    1
    15    12    14    1
    16    13    15    1
    17     1    16    1
    18     2    17    1
    19     3    18    1
    20     4    19    1
    21     5    20    1
    22     6    21    1
    23     7    22    1
    24    11    23    1
    25    11    24    1
    26    11    25    1
    27    12    26    1
    28    12    27    1
    29    13    28    1
    30    14    29    1
