@<TRIPOS>MOLECULE
AE-848/00990055
 27 27 0 0 0
SMALL
USER_CHARGES

@<TRIPOS>ATOM
      1 C           2.8625    1.6269   -0.0094 C.2     1  LIG1        0.4672
      2 C           7.2302   -4.0661    0.8954 C.3     1  LIG1       -0.1199
      3 C           5.7099   -4.1673    0.8158 C.3     1  LIG1       -0.1142
      4 C           7.7047   -2.6161    0.8837 C.3     1  LIG1       -0.1171
      5 C           5.0311   -3.3468    1.9135 C.3     1  LIG1       -0.0967
      6 C           7.0293   -1.7916    1.9809 C.3     1  LIG1       -0.1162
      7 C           5.4988   -1.8870    1.9634 C.3     1  LIG1       -0.0479
      8 C           2.3134    0.2368    0.3346 C.3     1  LIG1       -0.1430
      9 C           3.1603   -0.6329    1.2539 C.3     1  LIG1       -0.0446
     10 O           3.4924    2.2225    0.9074 O.co2   1  LIG1       -0.5000
     11 O           2.6238    2.0017   -1.1935 O.co2   1  LIG1       -0.5000
     12 S           4.8044   -0.9271    0.5666 S.3     1  LIG1       -0.2982
     13 H           7.5857   -4.5632    1.8061 H       1  LIG1        0.0601
     14 H           7.6756   -4.6015    0.0468 H       1  LIG1        0.0623
     15 H           5.3682   -3.8214   -0.1662 H       1  LIG1        0.0622
     16 H           5.4085   -5.2181    0.9075 H       1  LIG1        0.0643
     17 H           8.7921   -2.5866    1.0238 H       1  LIG1        0.0614
     18 H           7.4964   -2.1676   -0.0941 H       1  LIG1        0.0637
     19 H           3.9349   -3.3922    1.7572 H       1  LIG1        0.0693
     20 H           5.2152   -3.8394    2.8877 H       1  LIG1        0.0696
     21 H           7.4211   -2.1218    2.9625 H       1  LIG1        0.0727
     22 H           7.3475   -0.7356    1.8709 H       1  LIG1        0.0669
     23 H           5.1101   -1.4259    2.8940 H       1  LIG1        0.0822
     24 H           1.2999    0.3408    0.7434 H       1  LIG1        0.0732
     25 H           2.2053   -0.2865   -0.6244 H       1  LIG1        0.0730
     26 H           2.6823   -1.6003    1.4367 H       1  LIG1        0.0798
     27 H           3.2846   -0.1356    2.2212 H       1  LIG1        0.0782
@<TRIPOS>BOND
     1     1     8    1
     2     1    10   ar
     3     1    11   ar
     4     2     3    1
     5     2     4    1
     6     3     5    1
     7     4     6    1
     8     5     7    1
     9     6     7    1
    10     7    12    1
    11     8     9    1
    12     9    12    1
    13     2    13    1
    14     2    14    1
    15     3    15    1
    16     3    16    1
    17     4    17    1
    18     4    18    1
    19     5    19    1
    20     5    20    1
    21     6    21    1
    22     6    22    1
    23     7    23    1
    24     8    24    1
    25     8    25    1
    26     9    26    1
    27     9    27    1
