@<TRIPOS>MOLECULE
ZINC00574168
 30 31 0 0 0
SMALL
USER_CHARGES

@<TRIPOS>ATOM
      1 C           7.5014   -2.2720    1.3607 C.ar    1  LIG1       -0.0978
      2 C           7.0923   -3.6048    1.2595 C.ar    1  LIG1       -0.1936
      3 C           4.7588   -2.9411    1.1538 C.ar    1  LIG1       -0.0974
      4 C           5.1472   -1.5904    1.2548 C.ar    1  LIG1       -0.0626
      5 C           4.4412   -0.3551    1.2818 C.ar    1  LIG1       -0.1344
      6 C           6.5067   -1.2877    1.3558 C.ar    1  LIG1        0.0549
      7 C           5.7428   -3.9365    1.1575 C.ar    1  LIG1        0.0712
      8 CA          5.3685    0.6547    1.3970 C.ar    1  LIG1        0.0424
      9 C           5.0843    2.1545    1.4654 C.2     1  LIG1        0.5406
     10 C           2.9956    0.6023   -1.2776 C.2     1  LIG1        0.4972
     11 C           6.4192   -6.2148    1.0722 C.3     1  LIG1        0.0346
     12 C           2.9744   -0.1890    1.2018 C.3     1  LIG1       -0.0204
     13 C           2.4259   -0.3526   -0.2234 C.3     1  LIG1       -0.1612
     14 N           6.6115    0.0825    1.4406 N.ar    1  LIG1       -0.5705
     15 O           6.0867    2.9138    1.5711 O.co2   1  LIG1       -0.5000
     16 O           2.7505    1.8231   -1.0528 O.co2   1  LIG1       -0.5000
     17 OXT         3.8725    2.5017    1.4106 O.co2   1  LIG1       -0.5000
     18 O           3.6333    0.0782   -2.2314 O.co2   1  LIG1       -0.5000
     19 O           5.3738   -5.2452    1.0615 O.3     1  LIG1       -0.3233
     20 H           8.5525   -2.0150    1.4386 H       1  LIG1        0.1124
     21 H           7.8454   -4.3895    1.2608 H       1  LIG1        0.1183
     22 H           3.7089   -3.2097    1.0748 H       1  LIG1        0.1276
     23 H           5.9893   -7.2161    0.9898 H       1  LIG1        0.0879
     24 H           6.9895   -6.1269    2.0003 H       1  LIG1        0.0461
     25 H           7.0807   -6.0336    0.2217 H       1  LIG1        0.0466
     26 H           2.4632   -0.9123    1.8635 H       1  LIG1        0.0924
     27 H           2.6724    0.8026    1.5862 H       1  LIG1        0.0476
     28 H           1.3365   -0.2174   -0.2101 H       1  LIG1        0.0406
     29 H           2.6142   -1.3773   -0.5693 H       1  LIG1        0.0582
     30 H           7.4812    0.5907    1.5224 H       1  LIG1        0.4135
@<TRIPOS>BOND
     1     1     2   ar
     2     1     6   ar
     3     2     7   ar
     4     3     4   ar
     5     3     7   ar
     6     4     5   ar
     7     4     6   ar
     8     5     8   ar
     9     5    12    1
    10     6    14   ar
    11     7    19    1
    12     8     9    1
    13     8    14   ar
    14     9    15   ar
    15     9    17   ar
    16    10    13    1
    17    10    16   ar
    18    10    18   ar
    19    11    19    1
    20    12    13    1
    21     1    20    1
    22     2    21    1
    23     3    22    1
    24    11    23    1
    25    11    24    1
    26    11    25    1
    27    12    26    1
    28    12    27    1
    29    13    28    1
    30    13    29    1
    31    14    30    1
