@<TRIPOS>MOLECULE
AE-641/00851021
 27 28 0 0 0
SMALL
USER_CHARGES

@<TRIPOS>ATOM
      1 C           5.7772   -3.9015    1.0751 C.ar    1  LIG1       -0.1549
      2 C           7.1275   -3.5685    1.1617 C.ar    1  LIG1       -0.1039
      3 C           4.7915   -2.9082    1.1005 C.ar    1  LIG1       -0.0628
      4 C           7.5356   -2.2365    1.2760 C.ar    1  LIG1       -0.1370
      5 C           5.1788   -1.5583    1.2151 C.ar    1  LIG1       -0.0994
      6 C           4.4710   -0.3250    1.2705 C.ar    1  LIG1       -0.1457
      7 C           6.5392   -1.2542    1.3001 C.ar    1  LIG1        0.0956
      8 C           5.3981    0.6850    1.3863 C.ar    1  LIG1        0.0634
      9 C           2.9861    0.6695   -1.2526 C.2     1  LIG1        0.4587
     10 C           5.2304    2.1480    1.4842 C.3     1  LIG1       -0.0909
     11 C           3.0038   -0.1569    1.2158 C.3     1  LIG1       -0.0279
     12 C           2.4325   -0.2998   -0.2029 C.3     1  LIG1       -0.1474
     13 N           6.6427    0.1148    1.4030 N.ar    1  LIG1       -0.5965
     14 O           2.7456    1.8871   -1.0067 O.co2   1  LIG1       -0.5000
     15 O           3.6078    0.1584   -2.2237 O.co2   1  LIG1       -0.5000
     16 H           5.4848   -4.9442    0.9860 H       1  LIG1        0.1189
     17 H           7.8763   -4.3561    1.1403 H       1  LIG1        0.1199
     18 H           3.7432   -3.1842    1.0317 H       1  LIG1        0.1233
     19 H           8.5871   -1.9777    1.3426 H       1  LIG1        0.1142
     20 H           5.1380    2.4680    2.5351 H       1  LIG1        0.0760
     21 H           6.0818    2.6930    1.0418 H       1  LIG1        0.0617
     22 H           4.3324    2.4987    0.9471 H       1  LIG1        0.0880
     23 H           2.5019   -0.8891    1.8751 H       1  LIG1        0.0682
     24 H           2.7081    0.8294    1.6190 H       1  LIG1        0.0679
     25 H           1.3436   -0.1642   -0.1702 H       1  LIG1        0.0619
     26 H           2.6143   -1.3196   -0.5660 H       1  LIG1        0.0604
     27 H           7.5137    0.6219    1.4794 H       1  LIG1        0.4093
@<TRIPOS>BOND
     1     1     2   ar
     2     1     3   ar
     3     2     4   ar
     4     3     5   ar
     5     4     7   ar
     6     5     6   ar
     7     5     7   ar
     8     6     8   ar
     9     6    11    1
    10     7    13   ar
    11     8    10    1
    12     8    13   ar
    13     9    12    1
    14     9    14   ar
    15     9    15   ar
    16    11    12    1
    17     1    16    1
    18     2    17    1
    19     3    18    1
    20     4    19    1
    21    10    20    1
    22    10    21    1
    23    10    22    1
    24    11    23    1
    25    11    24    1
    26    12    25    1
    27    12    26    1
    28    13    27    1
