@<TRIPOS>MOLECULE
ZINC04294565
 27 28 0 0 0
SMALL
USER_CHARGES

@<TRIPOS>ATOM
      1 C           5.9560   -4.0266    1.6628 C.ar    1  LIG1       -0.1558
      2 C           7.2789   -3.6829    1.9336 C.ar    1  LIG1       -0.1036
      3 C           5.0159   -3.0463    1.3251 C.ar    1  LIG1       -0.0627
      4 C           7.7043   -2.3526    1.8758 C.ar    1  LIG1       -0.1373
      5 C           5.6817    0.5378    1.0568 C.ar    1  LIG1        0.0384
      6 C           5.4214   -1.6984    1.2606 C.ar    1  LIG1       -0.1026
      7 C           4.7572   -0.4765    0.9591 C.ar    1  LIG1       -0.1397
      8 C           6.7536   -1.3833    1.5369 C.ar    1  LIG1        0.0941
      9 C           3.0326    2.2270    0.1057 C.2     1  LIG1        0.4606
     10 C           3.0825   -0.4868   -0.9132 C.3     1  LIG1       -0.1392
     11 C           2.7173    1.0481    1.0358 C.3     1  LIG1       -0.1471
     12 C           3.3323   -0.3138    0.6055 C.3     1  LIG1       -0.0029
     13 N           6.8829   -0.0189    1.4055 N.ar    1  LIG1       -0.5993
     14 O           2.5855    2.0984   -1.0702 O.co2   1  LIG1       -0.5000
     15 O           3.7062    3.1683    0.6080 O.co2   1  LIG1       -0.5000
     16 H           5.6492   -5.0678    1.7137 H       1  LIG1        0.1187
     17 H           7.9924   -4.4604    2.1941 H       1  LIG1        0.1197
     18 H           3.9885   -3.3305    1.1158 H       1  LIG1        0.1230
     19 H           8.7341   -2.0858    2.0879 H       1  LIG1        0.1143
     20 H           5.5939    1.6053    0.9082 H       1  LIG1        0.1675
     21 H           3.6427    0.2424   -1.5086 H       1  LIG1        0.0387
     22 H           2.0207   -0.3710   -1.1572 H       1  LIG1        0.0844
     23 H           3.3913   -1.4880   -1.2343 H       1  LIG1        0.0373
     24 H           1.6219    0.9801    1.0768 H       1  LIG1        0.0617
     25 H           3.0479    1.3012    2.0511 H       1  LIG1        0.0606
     26 H           2.7156   -1.1020    1.0919 H       1  LIG1        0.0756
     27 H           7.7408    0.4964    1.5464 H       1  LIG1        0.4112
@<TRIPOS>BOND
     1     1     2   ar
     2     1     3   ar
     3     2     4   ar
     4     3     6   ar
     5     4     8   ar
     6     5     7   ar
     7     5    13   ar
     8     6     7   ar
     9     6     8   ar
    10     7    12    1
    11     8    13   ar
    12     9    11    1
    13     9    14   ar
    14     9    15   ar
    15    10    12    1
    16    11    12    1
    17     1    16    1
    18     2    17    1
    19     3    18    1
    20     4    19    1
    21     5    20    1
    22    10    21    1
    23    10    22    1
    24    10    23    1
    25    11    24    1
    26    11    25    1
    27    12    26    1
    28    13    27    1
