@<TRIPOS>MOLECULE
AE-842/33001023
 25 26 0 0 0
SMALL
USER_CHARGES

@<TRIPOS>ATOM
      1 C           7.2745   -3.7773    1.4413 C.ar    1  LIG1       -0.0989
      2 C           5.9632   -4.2001    1.2450 C.ar    1  LIG1       -0.0988
      3 C           7.5631   -2.4152    1.5315 C.ar    1  LIG1       -0.0878
      4 C           4.9355   -3.2627    1.1382 C.ar    1  LIG1       -0.0870
      5 C           6.8135   -0.0828    1.5147 C.ar    1  LIG1       -0.0723
      6 C           5.7857    0.8547    1.4078 C.ar    1  LIG1       -0.0524
      7 C           4.1857   -0.9302    1.1212 C.ar    1  LIG1       -0.0432
      8 C           6.5411   -1.4577    1.4262 C.ar    1  LIG1       -0.0726
      9 C           5.2077   -1.8877    1.2266 C.ar    1  LIG1       -0.0666
     10 C           4.4744    0.4318    1.2115 C.ar    1  LIG1       -0.0108
     11 C           3.5477    2.6538    1.8081 C.3     1  LIG1        0.0224
     12 N           3.4362    1.3806    1.1043 N.pl3   1  LIG1       -0.2520
     13 N           2.5413    1.2660    0.0397 N.pl3   1  LIG1       -0.0020
     14 O           1.5338    0.5751    0.2384 O.2     1  LIG1       -0.1373
     15 O           2.7892    1.8670   -1.0140 O.2     1  LIG1       -0.2206
     16 H           8.0742   -4.5075    1.5240 H       1  LIG1        0.1212
     17 H           5.7394   -5.2607    1.1752 H       1  LIG1        0.1216
     18 H           8.5953   -2.1068    1.6836 H       1  LIG1        0.1289
     19 H           3.9182   -3.6165    0.9839 H       1  LIG1        0.1274
     20 H           7.8312    0.2699    1.6679 H       1  LIG1        0.1414
     21 H           6.0209    1.9136    1.4798 H       1  LIG1        0.1347
     22 H           3.1561   -1.2496    0.9678 H       1  LIG1        0.1453
     23 H           4.0379    3.3940    1.1702 H       1  LIG1        0.1082
     24 H           4.1367    2.5308    2.7210 H       1  LIG1        0.1248
     25 H           2.5553    3.0243    2.0785 H       1  LIG1        0.1266
@<TRIPOS>BOND
     1     1     2   ar
     2     1     3   ar
     3     2     4   ar
     4     3     8   ar
     5     4     9   ar
     6     5     6   ar
     7     5     8   ar
     8     6    10   ar
     9     7     9   ar
    10     7    10   ar
    11     8     9   ar
    12    10    12    1
    13    11    12    1
    14    12    13    1
    15    13    14    1
    16    13    15    2
    17     1    16    1
    18     2    17    1
    19     3    18    1
    20     4    19    1
    21     5    20    1
    22     6    21    1
    23     7    22    1
    24    11    23    1
    25    11    24    1
    26    11    25    1
