@<TRIPOS>MOLECULE
AG-205/03663045
 23 24 0 0 0
SMALL
USER_CHARGES

@<TRIPOS>ATOM
      1 C           5.9065   -3.9976    1.4098 C.ar    1  LIG1       -0.1160
      2 C           7.2304   -3.6382    1.1652 C.ar    1  LIG1       -0.0876
      3 C           4.9206   -3.0206    1.5899 C.ar    1  LIG1       -0.0873
      4 C           7.6111   -2.2951    1.0928 C.ar    1  LIG1       -0.1119
      5 C           5.4612    0.5929    1.4847 C.ar    1  LIG1        0.1947
      6 C           5.2806   -1.6601    1.5213 C.ar    1  LIG1       -0.0874
      7 C           6.6149   -1.3294    1.2749 C.ar    1  LIG1        0.0845
      8 C           4.5645   -0.4372    1.6512 C.ar    1  LIG1       -0.3272
      9 C           2.2871   -0.2396    0.3134 C.2     1  LIG1        0.4534
     10 N           6.6952    0.0449    1.2579 N.ar    1  LIG1       -0.5829
     11 N           3.1699   -0.3457   -0.6702 N.pl3   1  LIG1       -0.8111
     12 N           0.9867   -0.1072    0.0858 N.2     1  LIG1       -0.7798
     13 S           2.8570   -0.2632    1.9651 S.3     1  LIG1        0.2243
     14 H           5.6349   -5.0487    1.4613 H       1  LIG1        0.1338
     15 H           7.9802   -4.4134    1.0292 H       1  LIG1        0.1379
     16 H           3.8939   -3.3208    1.7789 H       1  LIG1        0.1252
     17 H           8.6424   -2.0164    0.9037 H       1  LIG1        0.1331
     18 H           5.3368    1.6671    1.5049 H       1  LIG1        0.1947
     19 H           7.5425    0.5726    1.1001 H       1  LIG1        0.4655
     20 H           2.8607   -0.3287   -1.6351 H       1  LIG1        0.4516
     21 H           4.1590   -0.4475   -0.4723 H       1  LIG1        0.4711
     22 H           0.6255   -0.0840   -0.8612 H       1  LIG1        0.4517
     23 H           0.3373   -0.0293    0.8598 H       1  LIG1        0.4696
@<TRIPOS>BOND
     1     1     2   ar
     2     1     3   ar
     3     2     4   ar
     4     3     6   ar
     5     4     7   ar
     6     5     8   ar
     7     5    10   ar
     8     6     7   ar
     9     6     8   ar
    10     7    10   ar
    11     8    13    1
    12     9    11    1
    13     9    12    2
    14     9    13    1
    15     1    14    1
    16     2    15    1
    17     3    16    1
    18     4    17    1
    19     5    18    1
    20    10    19    1
    21    11    20    1
    22    11    21    1
    23    12    22    1
    24    12    23    1
