@<TRIPOS>MOLECULE
AG-205/34696016
 29 31 0 0 0
SMALL
USER_CHARGES

@<TRIPOS>ATOM
      1 C           6.1489   -4.0359    1.3969 C.ar    1  LIG1       -0.1064
      2 C           7.4503   -3.5409    1.3952 C.ar    1  LIG1       -0.1035
      3 C           5.0526   -3.1658    1.3978 C.ar    1  LIG1       -0.0963
      4 C           7.6957   -2.1655    1.3946 C.ar    1  LIG1       -0.0817
      5 C           5.2723   -1.7716    1.3967 C.ar    1  LIG1       -0.0785
      6 C           4.4167   -0.6229    1.3967 C.ar    1  LIG1       -0.0963
      7 C           6.5891   -1.3083    1.3956 C.ar    1  LIG1       -0.0734
      8 C           5.2338    0.4928    1.3962 C.ar    1  LIG1       -0.0908
      9 C           2.9245   -0.5986    1.4008 C.3     1  LIG1       -0.0491
     10 C           4.8762    1.9377    1.3954 C.3     1  LIG1       -0.0248
     11 C           2.3293    0.2447    0.2714 C.3     1  LIG1       -0.0644
     12 C           3.9086    2.2938    0.2663 C.3     1  LIG1       -0.0563
     13 C           2.4859    1.7577    0.4595 C.3     1  LIG1       -0.0696
     14 N           6.5356    0.0652    1.3965 N.ar    1  LIG1       -0.3754
     15 H           5.9810   -5.1096    1.3978 H       1  LIG1        0.1076
     16 H           8.2885   -4.2328    1.3941 H       1  LIG1        0.1181
     17 H           4.0446   -3.5712    1.3994 H       1  LIG1        0.1228
     18 H           8.7100   -1.7803    1.3943 H       1  LIG1        0.1168
     19 H           2.5425   -1.6213    1.2989 H       1  LIG1        0.0632
     20 H           2.5702   -0.2325    2.3723 H       1  LIG1        0.0642
     21 H           4.4416    2.2077    2.3652 H       1  LIG1        0.0726
     22 H           5.7840    2.5431    1.2785 H       1  LIG1        0.0869
     23 H           2.7513   -0.0563   -0.6956 H       1  LIG1        0.0444
     24 H           1.2544    0.0282    0.2245 H       1  LIG1        0.0471
     25 H           3.8454    3.3881    0.2140 H       1  LIG1        0.0490
     26 H           4.3051    1.9579   -0.7000 H       1  LIG1        0.0502
     27 H           1.8446    2.2508   -0.2823 H       1  LIG1        0.0423
     28 H           2.1025    2.0559    1.4430 H       1  LIG1        0.0403
     29 H           7.3443    0.6715    1.3963 H       1  LIG1        0.3407
@<TRIPOS>BOND
     1     1     2   ar
     2     1     3   ar
     3     2     4   ar
     4     3     5   ar
     5     4     7   ar
     6     5     6   ar
     7     5     7   ar
     8     6     8   ar
     9     6     9    1
    10     7    14   ar
    11     8    10    1
    12     8    14   ar
    13     9    11    1
    14    10    12    1
    15    11    13    1
    16    12    13    1
    17     1    15    1
    18     2    16    1
    19     3    17    1
    20     4    18    1
    21     9    19    1
    22     9    20    1
    23    10    21    1
    24    10    22    1
    25    11    23    1
    26    11    24    1
    27    12    25    1
    28    12    26    1
    29    13    27    1
    30    13    28    1
    31    14    29    1
