@<TRIPOS>MOLECULE
AH-262/10804012
 35 36 0 0 0
SMALL
USER_CHARGES

@<TRIPOS>ATOM
      1 C           5.9992   -4.0609    1.2553 C.ar    1  LIG1       -0.1040
      2 C           7.3257   -3.6742    1.0748 C.ar    1  LIG1       -0.1014
      3 C           5.0042   -3.1102    1.5106 C.ar    1  LIG1       -0.0939
      4 C           7.7000   -2.3292    1.1432 C.ar    1  LIG1       -0.0796
      5 C           5.5261    0.4980    1.7739 C.ar    1  LIG1       -0.0776
      6 C           5.3577   -1.7482    1.5841 C.ar    1  LIG1       -0.0763
      7 C           4.6322   -0.5469    1.8195 C.ar    1  LIG1       -0.0896
      8 C           6.6948   -1.3899    1.3991 C.ar    1  LIG1       -0.0713
      9 C           2.5962    0.9282   -1.3569 C.2     1  LIG1        0.0600
     10 C           2.7643    1.0994   -3.8709 C.3     1  LIG1       -0.0435
     11 C           0.9307    0.5804    1.3997 C.3     1  LIG1       -0.0463
     12 C           3.1813   -0.4303    2.0704 C.3     1  LIG1       -0.0245
     13 C           2.7895    0.1804   -2.6631 C.3     1  LIG1        0.0368
     14 C           2.4268    0.5116    1.0929 C.3     1  LIG1       -0.0333
     15 N           6.7675   -0.0204    1.5196 N.ar    1  LIG1       -0.3768
     16 N           2.5934    0.0579   -0.2911 N.am    1  LIG1       -0.3593
     17 O           2.4651    2.1477   -1.2940 O.2     1  LIG1       -0.4998
     18 H           5.7325   -5.1128    1.1970 H       1  LIG1        0.1102
     19 H           8.0822   -4.4293    0.8776 H       1  LIG1        0.1204
     20 H           3.9745   -3.4277    1.6482 H       1  LIG1        0.1251
     21 H           8.7330   -2.0292    1.0036 H       1  LIG1        0.1179
     22 H           5.3911    1.5637    1.8979 H       1  LIG1        0.1848
     23 H           1.8134    1.6387   -3.9352 H       1  LIG1        0.0406
     24 H           3.5713    1.8355   -3.8067 H       1  LIG1        0.0399
     25 H           2.8923    0.5326   -4.7991 H       1  LIG1        0.0397
     26 H           0.4729   -0.4136    1.3378 H       1  LIG1        0.0425
     27 H           0.4049    1.2377    0.6979 H       1  LIG1        0.0396
     28 H           0.7518    0.9549    2.4127 H       1  LIG1        0.0465
     29 H           2.6873   -1.4241    2.0549 H       1  LIG1        0.0779
     30 H           3.0198   -0.0657    3.1055 H       1  LIG1        0.0862
     31 H           3.7499   -0.3462   -2.6224 H       1  LIG1        0.0888
     32 H           1.9955   -0.5691   -2.7555 H       1  LIG1        0.0903
     33 H           2.8430    1.5231    1.1657 H       1  LIG1        0.1130
     34 H           7.6153    0.5230    1.4328 H       1  LIG1        0.3243
     35 H           2.7101   -0.9258   -0.4681 H       1  LIG1        0.2922
@<TRIPOS>BOND
     1     1     2   ar
     2     1     3   ar
     3     2     4   ar
     4     3     6   ar
     5     4     8   ar
     6     5     7   ar
     7     5    15   ar
     8     6     7   ar
     9     6     8   ar
    10     7    12    1
    11     8    15   ar
    12     9    13    1
    13     9    16   am
    14     9    17    2
    15    10    13    1
    16    11    14    1
    17    12    14    1
    18    14    16    1
    19     1    18    1
    20     2    19    1
    21     3    20    1
    22     4    21    1
    23     5    22    1
    24    10    23    1
    25    10    24    1
    26    10    25    1
    27    11    26    1
    28    11    27    1
    29    11    28    1
    30    12    29    1
    31    12    30    1
    32    13    31    1
    33    13    32    1
    34    14    33    1
    35    15    34    1
    36    16    35    1
