@<TRIPOS>MOLECULE
AI-204/31730045
 24 25 0 0 0
SMALL
USER_CHARGES

@<TRIPOS>ATOM
      1 C           2.9622    0.9564   -0.2200 C.1     1  LIG1        0.0222
      2 C           5.8589   -3.9095    1.5603 C.ar    1  LIG1       -0.1001
      3 C           7.1976   -3.5788    1.7611 C.ar    1  LIG1       -0.0976
      4 C           4.9100   -2.9186    1.2837 C.ar    1  LIG1       -0.0876
      5 C           7.6303   -2.2514    1.6921 C.ar    1  LIG1       -0.0749
      6 C           5.3227   -1.5734    1.2092 C.ar    1  LIG1       -0.0602
      7 C           4.6532   -0.3435    0.9559 C.ar    1  LIG1       -0.0379
      8 C           6.6706   -1.2714    1.4148 C.ar    1  LIG1       -0.0620
      9 C           5.5901    0.6625    1.0118 C.ar    1  LIG1       -0.0323
     10 C           5.1615    2.9167    2.5111 C.3     1  LIG1        0.0017
     11 C           3.2085   -0.1831    0.6841 C.3     1  LIG1        0.0959
     12 N           2.7768    1.8549   -0.9307 N.1     1  LIG1       -0.4001
     13 N           6.8039    0.0930    1.2889 N.ar    1  LIG1       -0.3626
     14 S           5.4888    2.3743    0.8090 S.3     1  LIG1       -0.1637
     15 H           5.5465   -4.9488    1.6201 H       1  LIG1        0.1150
     16 H           7.9177   -4.3641    1.9762 H       1  LIG1        0.1239
     17 H           3.8701   -3.1930    1.1302 H       1  LIG1        0.1298
     18 H           8.6724   -1.9955    1.8496 H       1  LIG1        0.1215
     19 H           5.0702    4.0051    2.5435 H       1  LIG1        0.0939
     20 H           5.9824    2.6084    3.1632 H       1  LIG1        0.0689
     21 H           4.2318    2.4691    2.8710 H       1  LIG1        0.0697
     22 H           2.6424   -0.0288    1.6181 H       1  LIG1        0.1563
     23 H           2.7837   -1.0964    0.2344 H       1  LIG1        0.1531
     24 H           7.6720    0.6011    1.3866 H       1  LIG1        0.3272
@<TRIPOS>BOND
     1     1    11    1
     2     1    12    3
     3     2     3   ar
     4     2     4   ar
     5     3     5   ar
     6     4     6   ar
     7     5     8   ar
     8     6     7   ar
     9     6     8   ar
    10     7     9   ar
    11     7    11    1
    12     8    13   ar
    13     9    13   ar
    14     9    14    1
    15    10    14    1
    16     2    15    1
    17     3    16    1
    18     4    17    1
    19     5    18    1
    20    10    19    1
    21    10    20    1
    22    10    21    1
    23    11    22    1
    24    11    23    1
    25    13    24    1
