@<TRIPOS>MOLECULE
AH-262/01728005
 31 32 0 0 0
SMALL
USER_CHARGES

@<TRIPOS>ATOM
      1 C           2.4345    1.0680   -0.2747 C.1     1  LIG1        0.0799
      2 C           6.2423   -3.9073    1.5723 C.ar    1  LIG1       -0.0968
      3 C           7.4960   -3.3082    1.4679 C.ar    1  LIG1       -0.0951
      4 C           5.0738   -3.1398    1.5056 C.ar    1  LIG1       -0.0830
      5 C           7.6227   -1.9270    1.2939 C.ar    1  LIG1       -0.0730
      6 C           5.1765   -1.7454    1.3305 C.ar    1  LIG1       -0.0519
      7 C           4.2309   -0.6874    1.2224 C.ar    1  LIG1        0.0098
      8 C           6.4460   -1.1724    1.2289 C.ar    1  LIG1       -0.0517
      9 C           4.9317    0.4855    1.0607 C.ar    1  LIG1        0.0531
     10 C           2.8216   -0.7839    1.2693 C.2     1  LIG1        0.0105
     11 C           1.9737    0.0258    0.5865 C.2     1  LIG1        0.1848
     12 C           0.5100   -0.2361    0.7476 C.2     1  LIG1        0.2095
     13 C           5.5438    2.7644    0.7646 C.3     1  LIG1        0.0424
     14 C          -1.6049    0.8229    0.7080 C.3     1  LIG1        0.0368
     15 N           2.8055    1.9145   -0.9768 N.1     1  LIG1       -0.3786
     16 N           6.2669    0.1829    1.0656 N.ar    1  LIG1       -0.3255
     17 O           0.0211   -1.3299    0.9930 O.2     1  LIG1       -0.4463
     18 O           4.5358    1.7428    0.9151 O.3     1  LIG1       -0.3744
     19 O          -0.1827    0.9249    0.5798 O.3     1  LIG1       -0.3492
     20 H           6.1691   -4.9833    1.7073 H       1  LIG1        0.1217
     21 H           8.3905   -3.9236    1.5219 H       1  LIG1        0.1251
     22 H           4.1049   -3.6240    1.5894 H       1  LIG1        0.1334
     23 H           8.5992   -1.4616    1.2123 H       1  LIG1        0.1262
     24 H           2.4092   -1.5978    1.8751 H       1  LIG1        0.2125
     25 H           5.0622    3.7393    0.6560 H       1  LIG1        0.0956
     26 H           6.1548    2.5478   -0.1153 H       1  LIG1        0.0958
     27 H           6.1785    2.7713    1.6538 H       1  LIG1        0.1358
     28 H          -2.0567    1.8062    0.5555 H       1  LIG1        0.0955
     29 H          -1.8559    0.4450    1.7022 H       1  LIG1        0.0959
     30 H          -1.9813    0.1304   -0.0486 H       1  LIG1        0.1240
     31 H           7.0126    0.8568    0.9636 H       1  LIG1        0.3374
@<TRIPOS>BOND
     1     1    11    1
     2     1    15    3
     3     2     3   ar
     4     2     4   ar
     5     3     5   ar
     6     4     6   ar
     7     5     8   ar
     8     6     7   ar
     9     6     8   ar
    10     7     9   ar
    11     7    10    1
    12     8    16   ar
    13     9    16   ar
    14     9    18    1
    15    10    11    2
    16    11    12    1
    17    12    17    2
    18    12    19    1
    19    13    18    1
    20    14    19    1
    21     2    20    1
    22     3    21    1
    23     4    22    1
    24     5    23    1
    25    10    24    1
    26    13    25    1
    27    13    26    1
    28    13    27    1
    29    14    28    1
    30    14    29    1
    31    14    30    1
    32    16    31    1
