@<TRIPOS>MOLECULE
AN-829/13156517
 21 21 0 0 0
SMALL
USER_CHARGES

@<TRIPOS>ATOM
      1 C           4.8439   -2.6494    1.7138 C.ar    1  LIG1       -0.1491
      2 C           6.6341   -1.1239    1.1618 C.ar    1  LIG1       -0.1986
      3 C           5.6446   -3.7265    1.3342 C.ar    1  LIG1       -0.0725
      4 C           7.4350   -2.2011    0.7822 C.ar    1  LIG1       -0.0673
      5 C           5.3385   -1.3480    1.6276 C.ar    1  LIG1        0.1485
      6 C           6.9402   -3.5024    0.8684 C.ar    1  LIG1       -0.0832
      7 C           3.0628    1.4396    0.0569 C.2     1  LIG1        0.4673
      8 C           2.7572   -0.0171    0.4270 C.3     1  LIG1       -0.1571
      9 C           3.1478   -0.4452    1.8311 C.3     1  LIG1        0.0756
     10 O           2.7705    1.8000   -1.1158 O.co2   1  LIG1       -0.5000
     11 O           3.5816    2.1110    0.9957 O.co2   1  LIG1       -0.5000
     12 O           4.5572   -0.2968    1.9974 O.3     1  LIG1       -0.3164
     13 CL          7.9277   -4.8310    0.3987 Cl      1  LIG1       -0.0826
     14 H           3.8356   -2.8309    2.0754 H       1  LIG1        0.1385
     15 H           7.0249   -0.1125    1.0920 H       1  LIG1        0.1435
     16 H           5.2458   -4.7354    1.4057 H       1  LIG1        0.1359
     17 H           8.4423   -2.0115    0.4201 H       1  LIG1        0.1336
     18 H           1.6765   -0.1578    0.3035 H       1  LIG1        0.0768
     19 H           3.2674   -0.6539   -0.3062 H       1  LIG1        0.0767
     20 H           2.6359    0.1484    2.5950 H       1  LIG1        0.0668
     21 H           2.8997   -1.5005    1.9820 H       1  LIG1        0.0667
@<TRIPOS>BOND
     1     1     3   ar
     2     1     5   ar
     3     2     4   ar
     4     2     5   ar
     5     3     6   ar
     6     4     6   ar
     7     5    12    1
     8     6    13    1
     9     7     8    1
    10     7    10   ar
    11     7    11   ar
    12     8     9    1
    13     9    12    1
    14     1    14    1
    15     2    15    1
    16     3    16    1
    17     4    17    1
    18     8    18    1
    19     8    19    1
    20     9    20    1
    21     9    21    1
