@<TRIPOS>MOLECULE
AG-690/11350932
 22 23 0 0 0
SMALL
USER_CHARGES

@<TRIPOS>ATOM
      1 C           0.7412    0.1585    1.2591 C.1     1  LIG1        0.0914
      2 C           2.5445    1.1377   -0.0999 C.1     1  LIG1        0.0905
      3 C           6.1174   -3.8107    0.6571 C.ar    1  LIG1       -0.0976
      4 C           7.4077   -3.2934    0.5616 C.ar    1  LIG1       -0.0953
      5 C           5.0315   -2.9777    0.9500 C.ar    1  LIG1       -0.0869
      6 C           7.6543   -1.9311    0.7547 C.ar    1  LIG1       -0.0747
      7 C           5.2102    0.6271    1.5286 C.ar    1  LIG1       -0.0456
      8 C           5.2556   -1.6008    1.1488 C.ar    1  LIG1       -0.0638
      9 C           4.4153   -0.4933    1.4529 C.ar    1  LIG1       -0.0349
     10 C           6.5591   -1.1103    1.0468 C.ar    1  LIG1       -0.0606
     11 C           3.0169   -0.4933    1.6507 C.2     1  LIG1        0.0084
     12 C           2.1306    0.2487    0.9388 C.2     1  LIG1        0.1932
     13 N          -0.3880    0.0861    1.5173 N.1     1  LIG1       -0.3688
     14 N           2.8762    1.8624   -0.9437 N.1     1  LIG1       -0.3747
     15 N           6.5016    0.2450    1.2819 N.ar    1  LIG1       -0.3572
     16 H           5.9505   -4.8732    0.5008 H       1  LIG1        0.1205
     17 H           8.2362   -3.9587    0.3328 H       1  LIG1        0.1259
     18 H           4.0320   -3.3978    1.0200 H       1  LIG1        0.1324
     19 H           8.6590   -1.5288    0.6790 H       1  LIG1        0.1260
     20 H           4.9788    1.6634    1.7355 H       1  LIG1        0.2216
     21 H           2.6305   -1.1144    2.4681 H       1  LIG1        0.2086
     22 H           7.2975    0.8677    1.2737 H       1  LIG1        0.3416
@<TRIPOS>BOND
     1     1    12    1
     2     1    13    3
     3     2    12    1
     4     2    14    3
     5     3     4   ar
     6     3     5   ar
     7     4     6   ar
     8     5     8   ar
     9     6    10   ar
    10     7     9   ar
    11     7    15   ar
    12     8     9   ar
    13     8    10   ar
    14     9    11    1
    15    10    15   ar
    16    11    12    2
    17     3    16    1
    18     4    17    1
    19     5    18    1
    20     6    19    1
    21     7    20    1
    22    11    21    1
    23    15    22    1
