@<TRIPOS>MOLECULE
ZINC04294564
 27 28 0 0 0
SMALL
USER_CHARGES

@<TRIPOS>ATOM
      1 C           5.9017   -3.9281    0.9463 C.ar    1  LIG1       -0.1558
      2 C           7.1992   -3.6529    1.3735 C.ar    1  LIG1       -0.1036
      3 C           4.9402   -2.9135    0.8763 C.ar    1  LIG1       -0.0628
      4 C           7.5770   -2.3589    1.7435 C.ar    1  LIG1       -0.1373
      5 C           5.4830    0.5960    1.7423 C.ar    1  LIG1        0.0385
      6 C           5.2978   -1.6012    1.2442 C.ar    1  LIG1       -0.1026
      7 C           4.6013   -0.3613    1.2958 C.ar    1  LIG1       -0.1397
      8 C           6.6053   -1.3547    1.6685 C.ar    1  LIG1        0.0940
      9 C           3.1206    2.2742   -0.0634 C.2     1  LIG1        0.4606
     10 C           2.2287   -1.0379    1.7507 C.3     1  LIG1       -0.1392
     11 C           2.7253    1.3456    1.0924 C.3     1  LIG1       -0.1471
     12 C           3.1866   -0.1315    0.9385 C.3     1  LIG1       -0.0029
     13 N           6.6891   -0.0127    1.9642 N.ar    1  LIG1       -0.5992
     14 O           2.6196    1.9593   -1.1809 O.co2   1  LIG1       -0.5000
     15 O           3.9021    3.2218    0.2256 O.co2   1  LIG1       -0.5000
     16 H           5.6320   -4.9420    0.6633 H       1  LIG1        0.1187
     17 H           7.9300   -4.4561    1.4203 H       1  LIG1        0.1197
     18 H           3.9332   -3.1440    0.5403 H       1  LIG1        0.1230
     19 H           8.5870   -2.1458    2.0770 H       1  LIG1        0.1143
     20 H           5.3617    1.6555    1.9207 H       1  LIG1        0.1675
     21 H           2.3144   -0.8662    2.8291 H       1  LIG1        0.0373
     22 H           2.4317   -2.0984    1.5650 H       1  LIG1        0.0844
     23 H           1.1898   -0.8417    1.4627 H       1  LIG1        0.0386
     24 H           1.6310    1.4017    1.1645 H       1  LIG1        0.0616
     25 H           3.1170    1.7617    2.0294 H       1  LIG1        0.0607
     26 H           3.0024   -0.4020   -0.1250 H       1  LIG1        0.0756
     27 H           7.5210    0.4548    2.2969 H       1  LIG1        0.4112
@<TRIPOS>BOND
     1     1     2   ar
     2     1     3   ar
     3     2     4   ar
     4     3     6   ar
     5     4     8   ar
     6     5     7   ar
     7     5    13   ar
     8     6     7   ar
     9     6     8   ar
    10     7    12    1
    11     8    13   ar
    12     9    11    1
    13     9    14   ar
    14     9    15   ar
    15    10    12    1
    16    11    12    1
    17     1    16    1
    18     2    17    1
    19     3    18    1
    20     4    19    1
    21     5    20    1
    22    10    21    1
    23    10    22    1
    24    10    23    1
    25    11    24    1
    26    11    25    1
    27    12    26    1
    28    13    27    1
