@<TRIPOS>MOLECULE
Building
 28 30 0 0 0
SMALL
USER_CHARGES

@<TRIPOS>ATOM
      1 C           7.0815   -2.5860    2.3867 C.ar    1  LIG1       -0.1388
      2 C           7.1885   -3.5563    1.3926 C.ar    1  LIG1       -0.0845
      3 C           6.0193   -1.6750    2.3871 C.ar    1  LIG1       -0.0636
      4 C           6.2402   -3.6479    0.3700 C.ar    1  LIG1       -0.1316
      5 C           5.0502   -1.7453    1.3660 C.ar    1  LIG1       -0.0984
      6 C           3.8733   -1.0077    1.0578 C.ar    1  LIG1       -0.1430
      7 C           5.1823   -2.7315    0.3811 C.ar    1  LIG1        0.1098
      8 C           3.3299   -1.5594   -0.0817 C.ar    1  LIG1        0.0158
      9 C           2.9801    1.8655   -0.0405 C.2     1  LIG1        0.4572
     10 C           3.2324    0.1444    1.7603 C.3     1  LIG1       -0.0497
     11 C           2.1070   -1.0891   -0.7647 C.3     1  LIG1        0.0790
     12 CA          2.2342    0.8901    0.8514 C.3     1  LIG1       -0.0142
     13 N           4.1204   -2.5934   -0.4883 N.ar    1  LIG1       -0.5742
     14 N           1.3624   -0.1015    0.1088 N.4     1  LIG1       -0.4927
     15 O           2.4426    2.0915   -1.1600 O.co2   1  LIG1       -0.5000
     16 OXT         4.0465    2.3268    0.4546 O.co2   1  LIG1       -0.5000
     17 H           7.8313   -2.5346    3.1718 H       1  LIG1        0.1293
     18 H           8.0226   -4.2532    1.4111 H       1  LIG1        0.1315
     19 H           5.9489   -0.9250    3.1698 H       1  LIG1        0.1286
     20 H           6.3254   -4.4040   -0.4034 H       1  LIG1        0.1246
     21 H           2.7113   -0.2119    2.6600 H       1  LIG1        0.1196
     22 H           4.0234    0.8267    2.1057 H       1  LIG1        0.0975
     23 H           2.3242   -0.5694   -1.7033 H       1  LIG1        0.1403
     24 H           1.4157   -1.9175   -0.9544 H       1  LIG1        0.1365
     25 HA          1.5115    1.4841    1.4849 H       1  LIG1        0.1393
     26 H           3.9573   -3.1731   -1.3004 H       1  LIG1        0.4198
     27 H1          0.6878    0.4213   -0.4771 H       1  LIG1        0.4408
     28 H2          0.7800   -0.6241    0.7858 H       1  LIG1        0.4349
@<TRIPOS>BOND
     1     1     2   ar
     2     1     3   ar
     3     2     4   ar
     4     3     5   ar
     5     4     7   ar
     6     5     6   ar
     7     5     7   ar
     8     6     8   ar
     9     6    10    1
    10     7    13   ar
    11     8    11    1
    12     8    13   ar
    13     9    12    1
    14     9    15   ar
    15     9    16   ar
    16    10    12    1
    17    11    14    1
    18    12    14    1
    19     1    17    1
    20     2    18    1
    21     3    19    1
    22     4    20    1
    23    10    21    1
    24    10    22    1
    25    11    23    1
    26    11    24    1
    27    12    25    1
    28    13    26    1
    29    14    27    1
    30    14    28    1
