@<TRIPOS>MOLECULE
AQ-086/11638134
 23 24 0 0 0
SMALL
USER_CHARGES

@<TRIPOS>ATOM
      1 C           7.0208   -3.6170    1.1572 C.ar    1  LIG1       -0.1329
      2 C           5.6512   -3.8526    1.0170 C.ar    1  LIG1       -0.1110
      3 C           7.5079   -2.3318    1.4266 C.ar    1  LIG1       -0.0699
      4 C           4.7199   -2.8162    1.1406 C.ar    1  LIG1       -0.1027
      5 C           5.6005    0.5958    1.8266 C.ar    1  LIG1        0.2608
      6 C           6.5864   -1.2786    1.5538 C.ar    1  LIG1        0.0410
      7 C           5.2277   -1.5446    1.4090 C.ar    1  LIG1        0.0472
      8 C           3.3359    1.0732   -0.7753 C.2     1  LIG1        0.4663
      9 C           2.6816    0.0056    0.1068 C.3     1  LIG1       -0.1729
     10 C           3.2040   -0.0560    1.5372 C.3     1  LIG1        0.1253
     11 N           6.7987    0.0560    1.8129 N.ar    1  LIG1       -0.5087
     12 N           4.6211   -0.3279    1.5884 N.ar    1  LIG1       -0.4820
     13 O           4.5771    0.9042   -0.9540 O.co2   1  LIG1       -0.5000
     14 O           2.5816    1.9822   -1.2176 O.co2   1  LIG1       -0.5000
     15 H           7.7203   -4.4430    1.0558 H       1  LIG1        0.1244
     16 H           5.3011   -4.8605    0.8078 H       1  LIG1        0.1264
     17 H           8.5740   -2.1593    1.5343 H       1  LIG1        0.1239
     18 H           3.6569   -2.9999    1.0317 H       1  LIG1        0.1230
     19 H           5.3818    1.6403    2.0020 H       1  LIG1        0.2113
     20 H           2.8272   -0.9661   -0.3824 H       1  LIG1        0.0722
     21 H           1.6009    0.1968    0.1153 H       1  LIG1        0.0710
     22 H           2.6941   -0.8394    2.1112 H       1  LIG1        0.0913
     23 H           3.0274    0.8901    2.0635 H       1  LIG1        0.0987
@<TRIPOS>BOND
     1     1     2   ar
     2     1     3   ar
     3     2     4   ar
     4     3     6   ar
     5     4     7   ar
     6     5    11   ar
     7     5    12   ar
     8     6     7   ar
     9     6    11   ar
    10     7    12   ar
    11     8     9    1
    12     8    13   ar
    13     8    14   ar
    14     9    10    1
    15    10    12    1
    16     1    15    1
    17     2    16    1
    18     3    17    1
    19     4    18    1
    20     5    19    1
    21     9    20    1
    22     9    21    1
    23    10    22    1
    24    10    23    1
