@<TRIPOS>MOLECULE
AG-690/11081038
 22 24 0 0 0
SMALL
USER_CHARGES

@<TRIPOS>ATOM
      1 C           6.3988   -4.0728    1.5455 C.ar    1  LIG1       -0.0964
      2 C           7.6112   -3.4272    1.7994 C.ar    1  LIG1       -0.1012
      3 C           5.2488   -3.3444    1.2161 C.ar    1  LIG1       -0.0639
      4 C           7.7195   -2.0341    1.7337 C.ar    1  LIG1       -0.0791
      5 C           5.3394   -1.9440    1.1459 C.ar    1  LIG1       -0.0227
      6 C           6.5613   -1.3293    1.4040 C.ar    1  LIG1       -0.0437
      7 C           3.0128    1.4512    0.0512 C.ar    1  LIG1        0.0338
      8 C           4.9889    0.1505    0.9217 C.ar    1  LIG1        0.0199
      9 C           4.3953    1.4801    0.6878 C.3     1  LIG1        0.0807
     10 N           2.7135    2.1027   -1.0886 N.ar    1  LIG1       -0.3178
     11 N           4.3747   -1.0090    0.8481 N.ar    1  LIG1       -0.3683
     12 N           1.9753    0.7715    0.5755 N.ar    1  LIG1       -0.3191
     13 N           1.4039    1.8127   -1.2916 N.ar    1  LIG1       -0.2509
     14 N           0.9602    1.0131   -0.2919 N.ar    1  LIG1       -0.2545
     15 N           6.3079    0.0100    1.2535 N.ar    1  LIG1       -0.3344
     16 H           6.3464   -5.1570    1.6038 H       1  LIG1        0.1142
     17 H           8.4877   -4.0181    2.0541 H       1  LIG1        0.1170
     18 H           4.3120   -3.8559    1.0198 H       1  LIG1        0.1370
     19 H           8.6598   -1.5315    1.9293 H       1  LIG1        0.1204
     20 H           5.0533    2.1096    0.0528 H       1  LIG1        0.1376
     21 H           4.3284    2.0633    1.6300 H       1  LIG1        0.1524
     22 H           6.9792    0.7579    1.3672 H       1  LIG1        0.3392
@<TRIPOS>BOND
     1     1     2   ar
     2     1     3   ar
     3     2     4   ar
     4     3     5   ar
     5     4     6   ar
     6     5     6   ar
     7     5    11   ar
     8     6    15   ar
     9     7     9    1
    10     7    10   ar
    11     7    12   ar
    12     8     9    1
    13     8    11   ar
    14     8    15   ar
    15    10    13   ar
    16    12    14   ar
    17    13    14   ar
    18     1    16    1
    19     2    17    1
    20     3    18    1
    21     4    19    1
    22     9    20    1
    23     9    21    1
    24    15    22    1
