@<TRIPOS>MOLECULE
AG-205/05987063
 32 33 0 0 0
SMALL
USER_CHARGES

@<TRIPOS>ATOM
      1 C           7.1198   -0.2695    1.7858 C.ar    1  LIG1       -0.0995
      2 C           6.1475    0.7191    1.6379 C.ar    1  LIG1       -0.0771
      3 C           4.5067   -0.9753    1.1311 C.ar    1  LIG1       -0.0600
      4 C           6.7977   -1.6225    1.6001 C.ar    1  LIG1       -0.1059
      5 C           5.4731   -1.9804    1.2873 C.ar    1  LIG1       -0.0988
      6 C           4.8421    0.3666    1.3083 C.ar    1  LIG1       -0.0240
      7 C           7.8691   -2.6647    1.8020 C.3     1  LIG1       -0.0450
      8 C           5.0790   -3.4178    1.0548 C.3     1  LIG1       -0.0397
      9 C           7.5048   -4.0263    1.2132 C.3     1  LIG1       -0.0631
     10 C           6.0886   -4.4181    1.6145 C.3     1  LIG1       -0.0614
     11 C           1.6977    0.3695    0.9623 C.3     1  LIG1       -0.0840
     12 C           2.8352    1.0639    0.2397 C.3     1  LIG1        0.0075
     13 N           0.6166    0.0613   -0.0075 N.4     1  LIG1        0.4490
     14 O           3.8932    1.3306    1.1593 O.3     1  LIG1       -0.4277
     15 H           8.1345    0.0208    2.0478 H       1  LIG1        0.1281
     16 H           6.4155    1.7623    1.7813 H       1  LIG1        0.1081
     17 H           3.4848   -1.2419    0.8696 H       1  LIG1        0.1282
     18 H           8.8094   -2.3264    1.3504 H       1  LIG1        0.0652
     19 H           8.0391   -2.7715    2.8809 H       1  LIG1        0.0670
     20 H           4.0999   -3.6148    1.5081 H       1  LIG1        0.0708
     21 H           4.9794   -3.5713   -0.0272 H       1  LIG1        0.0688
     22 H           7.5802   -3.9921    0.1189 H       1  LIG1        0.0450
     23 H           8.2190   -4.7812    1.5612 H       1  LIG1        0.0499
     24 H           6.0130   -4.4515    2.7088 H       1  LIG1        0.0504
     25 H           5.8546   -5.4226    1.2449 H       1  LIG1        0.0462
     26 H           1.2497    1.0046    1.7318 H       1  LIG1        0.1133
     27 H           2.0143   -0.5841    1.3928 H       1  LIG1        0.1054
     28 H           3.2281    0.4126   -0.5471 H       1  LIG1        0.1255
     29 H           2.5112    2.0067   -0.2131 H       1  LIG1        0.1098
     30 H          -0.1430   -0.4579    0.4443 H       1  LIG1        0.1456
     31 H           0.9726   -0.5080   -0.7824 H       1  LIG1        0.1495
     32 H           0.2223    0.9219   -0.4013 H       1  LIG1        0.1529
@<TRIPOS>BOND
     1     1     2   ar
     2     1     4   ar
     3     2     6   ar
     4     3     5   ar
     5     3     6   ar
     6     4     5   ar
     7     4     7    1
     8     5     8    1
     9     6    14    1
    10     7     9    1
    11     8    10    1
    12     9    10    1
    13    11    12    1
    14    11    13    1
    15    12    14    1
    16     1    15    1
    17     2    16    1
    18     3    17    1
    19     7    18    1
    20     7    19    1
    21     8    20    1
    22     8    21    1
    23     9    22    1
    24     9    23    1
    25    10    24    1
    26    10    25    1
    27    11    26    1
    28    11    27    1
    29    12    28    1
    30    12    29    1
    31    13    30    1
    32    13    31    1
    33    13    32    1
