@<TRIPOS>MOLECULE
AI-204/31701021
 29 31 0 0 0
SMALL
USER_CHARGES

@<TRIPOS>ATOM
      1 C           5.9187   -4.1212    1.2075 C.ar    1  LIG1       -0.0928
      2 C           7.2403   -3.7326    1.0273 C.ar    1  LIG1       -0.0837
      3 C           4.9436   -3.1549    1.4378 C.ar    1  LIG1       -0.0819
      4 C           7.5839   -2.3793    1.0776 C.ar    1  LIG1       -0.0510
      5 C           4.7018    0.5352    1.7626 C.ar    1  LIG1       -0.0467
      6 C           6.0364    0.8312    1.5729 C.ar    1  LIG1       -0.0256
      7 C           5.2896   -1.7938    1.4883 C.ar    1  LIG1       -0.0381
      8 C           4.3284   -0.8003    1.7186 C.ar    1  LIG1       -0.0181
      9 C           6.6294   -1.3920    1.3061 C.ar    1  LIG1       -0.0206
     10 C           2.0569    1.4406   -0.0114 C.2     1  LIG1        0.2507
     11 C           2.9146   -1.1035    1.9195 C.2     1  LIG1        0.0453
     12 C           3.2309   -0.3391   -0.9353 C.3     1  LIG1        0.0388
     13 C           3.5950    0.9515   -1.6321 C.3     1  LIG1        0.0729
     14 N           6.9948   -0.0968    1.3483 N.ar    1  LIG1       -0.3827
     15 N           1.9821   -0.6412    1.1394 N.2     1  LIG1       -0.2885
     16 N           2.4352    0.1316    0.1438 N.am    1  LIG1       -0.2387
     17 O           1.3090    2.0989    0.6977 O.2     1  LIG1       -0.4122
     18 O           2.6588    1.9324   -1.1445 O.3     1  LIG1       -0.3081
     19 H           5.6479   -5.1719    1.1692 H       1  LIG1        0.1299
     20 H           8.0078   -4.4796    0.8470 H       1  LIG1        0.1313
     21 H           3.9176   -3.4871    1.5757 H       1  LIG1        0.1297
     22 H           8.6263   -2.1007    0.9340 H       1  LIG1        0.1486
     23 H           3.9819    1.3271    1.9396 H       1  LIG1        0.1362
     24 H           6.3872    1.8577    1.5958 H       1  LIG1        0.2135
     25 H           2.6545   -1.7572    2.7815 H       1  LIG1        0.2641
     26 H           2.6126   -0.9812   -1.5718 H       1  LIG1        0.1172
     27 H           4.1038   -0.8968   -0.5842 H       1  LIG1        0.1229
     28 H           4.6042    1.2877   -1.3722 H       1  LIG1        0.1427
     29 H           3.5164    0.8722   -2.7202 H       1  LIG1        0.1448
@<TRIPOS>BOND
     1     1     2   ar
     2     1     3   ar
     3     2     4   ar
     4     3     7   ar
     5     4     9   ar
     6     5     6   ar
     7     5     8   ar
     8     6    14   ar
     9     7     8   ar
    10     7     9   ar
    11     8    11    1
    12     9    14   ar
    13    10    16   am
    14    10    17    2
    15    10    18    1
    16    11    15    2
    17    12    13    1
    18    12    16    1
    19    13    18    1
    20    15    16    1
    21     1    19    1
    22     2    20    1
    23     3    21    1
    24     4    22    1
    25     5    23    1
    26     6    24    1
    27    11    25    1
    28    12    26    1
    29    12    27    1
    30    13    28    1
    31    13    29    1
