@<TRIPOS>MOLECULE
AJ-292/13893310
 31 33 0 0 0
SMALL
USER_CHARGES

@<TRIPOS>ATOM
      1 C           6.4158   -1.3893    1.6272 C.ar    1  LIG1       -0.2407
      2 C           5.1094   -1.5707    1.2920 C.ar    1  LIG1        0.0747
      3 C           6.6178   -0.0284    1.7182 C.ar    1  LIG1        0.0782
      4 C           3.2056    1.3319    0.1114 C.2     1  LIG1        0.4526
      5 C           4.6626   -2.9698    1.1310 C.3     1  LIG1       -0.0205
      6 C           7.1030   -2.7442    1.7615 C.3     1  LIG1       -0.0565
      7 C           5.9569   -3.7487    1.4668 C.3     1  LIG1       -0.1580
      8 C           7.1799   -3.6838    0.5898 C.3     1  LIG1       -0.1000
      9 C           7.8477    0.7043    2.0503 C.3     1  LIG1       -0.0631
     10 C           7.0666   -3.1368   -0.7938 C.3     1  LIG1       -0.1136
     11 C           8.1463   -4.8152    0.6942 C.3     1  LIG1       -0.1082
     12 C           3.2097    0.0040    0.8509 C.3     1  LIG1        0.0823
     13 N           5.4786    0.6398    1.4491 N.ar    1  LIG1       -0.2807
     14 N           4.5679   -0.3392    1.1895 N.ar    1  LIG1       -0.3137
     15 O           3.6825    2.3080    0.7562 O.co2   1  LIG1       -0.5000
     16 O           2.7109    1.2986   -1.0507 O.co2   1  LIG1       -0.5000
     17 H           3.8765   -3.2220    1.8486 H       1  LIG1        0.0888
     18 H           4.3241   -3.1893    0.1150 H       1  LIG1        0.0806
     19 H           7.7072   -2.9205    2.6415 H       1  LIG1        0.1061
     20 H           5.8124   -4.5860    2.1348 H       1  LIG1        0.1214
     21 H           8.4371    0.9348    1.1450 H       1  LIG1        0.0683
     22 H           7.6408    1.6626    2.5619 H       1  LIG1        0.0671
     23 H           8.5038    0.1353    2.7350 H       1  LIG1        0.0706
     24 H           7.1396   -3.9334   -1.5507 H       1  LIG1        0.0575
     25 H           7.8640   -2.4079   -1.0070 H       1  LIG1        0.0532
     26 H           6.1040   -2.6248   -0.9484 H       1  LIG1        0.0584
     27 H           8.1306   -5.4457   -0.2088 H       1  LIG1        0.0569
     28 H           7.9161   -5.4663    1.5522 H       1  LIG1        0.0592
     29 H           9.1790   -4.4549    0.8241 H       1  LIG1        0.0603
     30 H           2.6222    0.0575    1.7740 H       1  LIG1        0.0987
     31 H           2.7892   -0.7994    0.2359 H       1  LIG1        0.0951
@<TRIPOS>BOND
     1     1     2   ar
     2     1     3   ar
     3     1     6    1
     4     2     5    1
     5     2    14   ar
     6     3     9    1
     7     3    13   ar
     8     4    12    1
     9     4    15   ar
    10     4    16   ar
    11     5     7    1
    12     6     7    1
    13     6     8    1
    14     7     8    1
    15     8    10    1
    16     8    11    1
    17    12    14    1
    18    13    14   ar
    19     5    17    1
    20     5    18    1
    21     6    19    1
    22     7    20    1
    23     9    21    1
    24     9    22    1
    25     9    23    1
    26    10    24    1
    27    10    25    1
    28    10    26    1
    29    11    27    1
    30    11    28    1
    31    11    29    1
    32    12    30    1
    33    12    31    1
