@<TRIPOS>MOLECULE
AG-690/36921269
 25 26 0 0 0
SMALL
USER_CHARGES

@<TRIPOS>ATOM
      1 C           6.0293   -3.8489    0.8244 C.ar    1  LIG1       -0.0912
      2 C           7.0058   -3.4048    1.7245 C.ar    1  LIG1       -0.0911
      3 C           5.0417   -2.9767    0.3530 C.ar    1  LIG1       -0.0682
      4 C           7.0088   -2.0830    2.1657 C.ar    1  LIG1       -0.0716
      5 C           5.0330   -1.6541    0.7860 C.ar    1  LIG1       -0.0411
      6 C           6.0238   -1.2299    1.6901 C.ar    1  LIG1        0.0207
      7 C           4.3790    0.5857    1.0238 C.ar    1  LIG1        0.0650
      8 C           2.6691    1.7156    0.0826 C.2     1  LIG1       -0.0100
      9 C           1.3607    1.3741    0.7363 C.3     1  LIG1        0.0045
     10 C           3.0432   -0.9119   -0.4989 C.3     1  LIG1       -0.0116
     11 N           3.7570    1.7102    0.9169 N.am    1  LIG1       -0.3788
     12 N           4.1266   -0.6415    0.4246 N.ar    1  LIG1       -0.3554
     13 O           2.6428    1.9713   -1.1858 O.2     1  LIG1       -0.4025
     14 S           5.8092    0.4903    2.0955 S.2     1  LIG1       -0.0174
     15 H           6.0386   -4.8826    0.4891 H       1  LIG1        0.1327
     16 H           7.7652   -4.0957    2.0798 H       1  LIG1        0.1248
     17 H           4.2972   -3.3497   -0.3436 H       1  LIG1        0.1231
     18 H           7.7669   -1.7405    2.8621 H       1  LIG1        0.1448
     19 H           0.8962    2.2939    1.1006 H       1  LIG1        0.0805
     20 H           1.4971    0.6762    1.5658 H       1  LIG1        0.0808
     21 H           0.6997    0.9298   -0.0124 H       1  LIG1        0.0791
     22 H           2.1569   -1.2433    0.0483 H       1  LIG1        0.1081
     23 H           3.3345   -1.6949   -1.2042 H       1  LIG1        0.1006
     24 H           2.7921   -0.0089   -1.0619 H       1  LIG1        0.0953
     25 H           1.7372    1.9069   -1.5737 H       1  LIG1        0.3792
@<TRIPOS>BOND
     1     1     2   ar
     2     1     3   ar
     3     2     4   ar
     4     3     5   ar
     5     4     6   ar
     6     5     6   ar
     7     5    12   ar
     8     6    14   ar
     9     7    11    2
    10     7    12   ar
    11     7    14   ar
    12     8     9    1
    13     8    11    1
    14     8    13    2
    15    10    12    1
    16     1    15    1
    17     2    16    1
    18     3    17    1
    19     4    18    1
    20     9    19    1
    21     9    20    1
    22     9    21    1
    23    10    22    1
    24    10    23    1
    25    10    24    1
    26    13    25    1
