@<TRIPOS>MOLECULE
AK-968/40721996
 38 39 0 0 0
SMALL
USER_CHARGES

@<TRIPOS>ATOM
      1 C           6.4562   -3.9938    1.4581 C.ar    1  LIG1       -0.1017
      2 C           7.6967   -3.3946    1.6675 C.ar    1  LIG1       -0.0917
      3 C           5.3039   -3.2165    1.2932 C.ar    1  LIG1       -0.1048
      4 C           7.8260   -2.0037    1.7185 C.ar    1  LIG1       -0.0708
      5 C           5.1743    0.4360    1.3538 C.ar    1  LIG1       -0.0724
      6 C           5.4096   -1.8122    1.3409 C.ar    1  LIG1       -0.0935
      7 C           4.4785   -0.7431    1.2174 C.ar    1  LIG1       -0.1032
      8 C           6.6657   -1.2394    1.5522 C.ar    1  LIG1       -0.0692
      9 C           2.9394    0.3673   -1.2581 C.2     1  LIG1        0.0604
     10 C           5.0997    3.6062   -2.1733 C.3     1  LIG1       -0.0644
     11 C           2.9977   -0.8673    0.9819 C.3     1  LIG1       -0.0297
     12 C           4.8254    2.4052   -3.0673 C.3     1  LIG1       -0.0527
     13 C           3.3567    1.9987   -3.0734 C.3     1  LIG1       -0.0331
     14 C           2.3688    0.2584    0.1472 C.3     1  LIG1       -0.0071
     15 N           6.4927    0.1264    1.5550 N.ar    1  LIG1       -0.3670
     16 N           2.8746    1.6598   -1.7560 N.am    1  LIG1       -0.3527
     17 N           0.8878    0.0914    0.0952 N.4     1  LIG1        0.4615
     18 O           3.3995   -0.5967   -1.8665 O.2     1  LIG1       -0.4874
     19 H           6.3810   -5.0772    1.4219 H       1  LIG1        0.1222
     20 H           8.5786   -4.0175    1.7932 H       1  LIG1        0.1315
     21 H           4.3443   -3.6986    1.1299 H       1  LIG1        0.1110
     22 H           8.7919   -1.5383    1.8826 H       1  LIG1        0.1314
     23 H           4.8509    1.4673    1.3243 H       1  LIG1        0.2058
     24 H           4.5179    4.4758   -2.4953 H       1  LIG1        0.0395
     25 H           4.8217    3.3774   -1.1395 H       1  LIG1        0.0353
     26 H           6.1597    3.8774   -2.1834 H       1  LIG1        0.0350
     27 H           2.4911   -0.9197    1.9553 H       1  LIG1        0.1055
     28 H           2.7880   -1.8315    0.4985 H       1  LIG1        0.0933
     29 H           5.4253    1.5596   -2.7117 H       1  LIG1        0.0521
     30 H           5.1574    2.6323   -4.0873 H       1  LIG1        0.0524
     31 H           2.7403    2.8272   -3.4363 H       1  LIG1        0.1017
     32 H           3.1858    1.1361   -3.7251 H       1  LIG1        0.1012
     33 H           2.5270    1.2159    0.6579 H       1  LIG1        0.1451
     34 H           7.2326    0.8021    1.6869 H       1  LIG1        0.3375
     35 H           2.4754    2.3912   -1.1752 H       1  LIG1        0.3076
     36 H           0.5704   -0.0006   -0.8728 H       1  LIG1        0.1563
     37 H           0.4208    0.9005    0.5122 H       1  LIG1        0.1581
     38 H           0.6026   -0.7459    0.6090 H       1  LIG1        0.1570
@<TRIPOS>BOND
     1     1     2   ar
     2     1     3   ar
     3     2     4   ar
     4     3     6   ar
     5     4     8   ar
     6     5     7   ar
     7     5    15   ar
     8     6     7   ar
     9     6     8   ar
    10     7    11    1
    11     8    15   ar
    12     9    14    1
    13     9    16   am
    14     9    18    2
    15    10    12    1
    16    11    14    1
    17    12    13    1
    18    13    16    1
    19    14    17    1
    20     1    19    1
    21     2    20    1
    22     3    21    1
    23     4    22    1
    24     5    23    1
    25    10    24    1
    26    10    25    1
    27    10    26    1
    28    11    27    1
    29    11    28    1
    30    12    29    1
    31    12    30    1
    32    13    31    1
    33    13    32    1
    34    14    33    1
    35    15    34    1
    36    16    35    1
    37    17    36    1
    38    17    37    1
    39    17    38    1
