@<TRIPOS>MOLECULE
AN-967/15488286
 33 33 0 0 0
SMALL
USER_CHARGES

@<TRIPOS>ATOM
      1 C           2.5150    1.1396   -0.6521 C.1     1  LIG1        0.0181
      2 C           5.2245    0.0561    1.3152 C.ar    1  LIG1       -0.1030
      3 C           6.5229   -0.4534    1.3091 C.ar    1  LIG1       -0.0525
      4 C           4.3443   -2.1888    1.4655 C.ar    1  LIG1       -0.0723
      5 C           4.1352   -0.8117    1.3934 C.ar    1  LIG1       -0.1192
      6 C           6.7321   -1.8306    1.3813 C.ar    1  LIG1        0.0405
      7 C           5.6428   -2.6984    1.4595 C.ar    1  LIG1        0.0340
      8 C           0.0856    0.9374    0.9558 C.3     1  LIG1       -0.0878
      9 C           9.0617   -1.3612    1.2923 C.3     1  LIG1        0.0293
     10 C           5.8911   -4.7570    0.2949 C.3     1  LIG1        0.0278
     11 C           2.7469   -0.2669    1.4024 C.3     1  LIG1       -0.0169
     12 C           2.1340   -0.1222   -0.0035 C.3     1  LIG1        0.0208
     13 N           2.8148    2.1345   -1.1687 N.1     1  LIG1       -0.3373
     14 N           0.6468   -0.1551    0.1219 N.4     1  LIG1        0.4431
     15 O           8.0052   -2.3156    1.3745 O.3     1  LIG1       -0.4030
     16 O           5.8344   -4.0453    1.5295 O.3     1  LIG1       -0.4049
     17 H           5.0712    1.1304    1.2603 H       1  LIG1        0.1314
     18 H           7.3669    0.2281    1.2477 H       1  LIG1        0.1347
     19 H           3.4969   -2.8674    1.5271 H       1  LIG1        0.1149
     20 H           0.3971    1.8867    0.5161 H       1  LIG1        0.0794
     21 H          -1.0015    0.8390    0.9480 H       1  LIG1        0.0847
     22 H           0.4828    0.8240    1.9664 H       1  LIG1        0.0864
     23 H          10.0235   -1.8800    1.2958 H       1  LIG1        0.0933
     24 H           9.0022   -0.6762    2.1419 H       1  LIG1        0.1284
     25 H           8.9586   -0.7959    0.3632 H       1  LIG1        0.0925
     26 H           6.0474   -5.8202    0.4931 H       1  LIG1        0.0925
     27 H           6.7087   -4.3651   -0.3154 H       1  LIG1        0.0848
     28 H           4.9459   -4.6229   -0.2365 H       1  LIG1        0.1289
     29 H           2.0888   -0.8929    2.0326 H       1  LIG1        0.0967
     30 H           2.7562    0.7197    1.8997 H       1  LIG1        0.1143
     31 H           2.3974   -0.9756   -0.6374 H       1  LIG1        0.1846
     32 H           0.3678   -1.0624    0.5150 H       1  LIG1        0.1689
     33 H           0.2341   -0.1136   -0.8180 H       1  LIG1        0.1675
@<TRIPOS>BOND
     1     1    12    1
     2     1    13    3
     3     2     3   ar
     4     2     5   ar
     5     3     6   ar
     6     4     5   ar
     7     4     7   ar
     8     5    11    1
     9     6     7   ar
    10     6    15    1
    11     7    16    1
    12     8    14    1
    13     9    15    1
    14    10    16    1
    15    11    12    1
    16    12    14    1
    17     2    17    1
    18     3    18    1
    19     4    19    1
    20     8    20    1
    21     8    21    1
    22     8    22    1
    23     9    23    1
    24     9    24    1
    25     9    25    1
    26    10    26    1
    27    10    27    1
    28    10    28    1
    29    11    29    1
    30    11    30    1
    31    12    31    1
    32    14    32    1
    33    14    33    1
