@<TRIPOS>MOLECULE
ZINC13123192
 29 31 0 0 0
SMALL
USER_CHARGES

@<TRIPOS>ATOM
      1 C           6.1927   -4.0879    1.3999 C.ar    1  LIG1       -0.1025
      2 C           7.4873   -3.5930    1.5420 C.ar    1  LIG1       -0.0996
      3 C           5.1041   -3.2189    1.2659 C.ar    1  LIG1       -0.0882
      4 C           7.7360   -2.2176    1.5561 C.ar    1  LIG1       -0.0743
      5 C           5.3295   -1.8281    1.2735 C.ar    1  LIG1       -0.0657
      6 C           4.4981   -0.6826    1.1689 C.ar    1  LIG1       -0.0750
      7 C           6.6395   -1.3585    1.4208 C.ar    1  LIG1       -0.0604
      8 C           5.2993    0.4349    1.2386 C.ar    1  LIG1       -0.0275
      9 C           4.7581    1.7648    1.1650 C.2     1  LIG1       -0.0191
     10 C           2.7362    0.8176    0.3064 C.3     1  LIG1       -0.0143
     11 C           3.0228   -0.5226    1.0273 C.3     1  LIG1       -0.0302
     12 C           5.6224    2.9309    1.5552 C.3     1  LIG1        0.0109
     13 C           2.3242   -0.5718    2.3881 C.3     1  LIG1       -0.0563
     14 N           3.5362    1.9703    0.7917 N.2     1  LIG1       -0.4224
     15 N           6.5899    0.0205    1.4068 N.ar    1  LIG1       -0.3578
     16 H           6.0246   -5.1616    1.3928 H       1  LIG1        0.1090
     17 H           8.3180   -4.2865    1.6460 H       1  LIG1        0.1200
     18 H           4.1003   -3.6193    1.1572 H       1  LIG1        0.1334
     19 H           8.7448   -1.8348    1.6690 H       1  LIG1        0.1279
     20 H           2.9381    0.7064   -0.7671 H       1  LIG1        0.0983
     21 H           1.6739    1.0717    0.3974 H       1  LIG1        0.1112
     22 H           2.6219   -1.3363    0.4101 H       1  LIG1        0.0844
     23 H           6.1579    3.2905    0.6808 H       1  LIG1        0.0855
     24 H           6.3316    2.6153    2.3160 H       1  LIG1        0.0808
     25 H           4.9967    3.7249    1.9548 H       1  LIG1        0.0791
     26 H           2.7030    0.2260    3.0230 H       1  LIG1        0.0348
     27 H           2.5165   -1.5310    2.8636 H       1  LIG1        0.0413
     28 H           1.2522   -0.4458    2.2538 H       1  LIG1        0.0393
     29 H           7.3934    0.6269    1.4975 H       1  LIG1        0.3373
@<TRIPOS>BOND
     1     1     2   ar
     2     1     3   ar
     3     2     4   ar
     4     3     5   ar
     5     4     7   ar
     6     5     6   ar
     7     5     7   ar
     8     6     8   ar
     9     6    11    1
    10     7    15   ar
    11     8     9    1
    12     8    15   ar
    13     9    12    1
    14     9    14    2
    15    10    11    1
    16    10    14    1
    17    11    13    1
    18     1    16    1
    19     2    17    1
    20     3    18    1
    21     4    19    1
    22    10    20    1
    23    10    21    1
    24    11    22    1
    25    12    23    1
    26    12    24    1
    27    12    25    1
    28    13    26    1
    29    13    27    1
    30    13    28    1
    31    15    29    1
