@<TRIPOS>MOLECULE
AD-341/40841539
 36 38 0 0 0
SMALL
USER_CHARGES

@<TRIPOS>ATOM
      1 C           6.3248   -3.8813    1.7661 C.ar    1  LIG1       -0.1037
      2 C           7.5253   -3.3131    1.3449 C.ar    1  LIG1       -0.1017
      3 C           5.1550   -3.1159    1.8346 C.ar    1  LIG1       -0.0926
      4 C           7.5959   -1.9657    0.9795 C.ar    1  LIG1       -0.0803
      5 C           4.8773    0.4272    0.9802 C.ar    1  LIG1       -0.0773
      6 C           5.2017   -1.7553    1.4714 C.ar    1  LIG1       -0.0761
      7 C           4.2384   -0.7091    1.4202 C.ar    1  LIG1       -0.0908
      8 C           6.4187   -1.2127    1.0530 C.ar    1  LIG1       -0.0718
      9 C           2.4037    0.8395   -1.3352 C.2     1  LIG1        0.0735
     10 C           2.5095    0.4593   -2.8012 C.3     1  LIG1        0.0440
     11 C           1.5588   -0.6356   -3.2447 C.3     1  LIG1       -0.0396
     12 C           1.6780   -1.8149   -2.3001 C.3     1  LIG1       -0.0453
     13 C           1.2837   -1.3713   -0.9038 C.3     1  LIG1       -0.0258
     14 C           2.7774   -0.8143    1.7822 C.3     1  LIG1       -0.0245
     15 C           1.8929    0.1272    0.9684 C.3     1  LIG1       -0.0129
     16 N           6.1919    0.1135    0.7613 N.ar    1  LIG1       -0.3770
     17 N           1.9508   -0.1475   -0.4609 N.am    1  LIG1       -0.3626
     18 O           2.7919    1.9551   -0.9776 O.2     1  LIG1       -0.5014
     19 H           6.2948   -4.9314    2.0444 H       1  LIG1        0.1097
     20 H           8.4218   -3.9261    1.2992 H       1  LIG1        0.1202
     21 H           4.2268   -3.5739    2.1642 H       1  LIG1        0.1287
     22 H           8.5311   -1.5240    0.6528 H       1  LIG1        0.1172
     23 H           4.5154    1.4303    0.8018 H       1  LIG1        0.1870
     24 H           2.3260    1.3710   -3.3827 H       1  LIG1        0.0998
     25 H           3.5399    0.1426   -2.9997 H       1  LIG1        0.0989
     26 H           0.5309   -0.2569   -3.2494 H       1  LIG1        0.0484
     27 H           1.7961   -0.9490   -4.2688 H       1  LIG1        0.0533
     28 H           1.0240   -2.6295   -2.6349 H       1  LIG1        0.0630
     29 H           2.7032   -2.2001   -2.2951 H       1  LIG1        0.0542
     30 H           0.2002   -1.2117   -0.8666 H       1  LIG1        0.0942
     31 H           1.5333   -2.1517   -0.1750 H       1  LIG1        0.1015
     32 H           2.6658   -0.5845    2.8495 H       1  LIG1        0.0709
     33 H           2.4384   -1.8511    1.6597 H       1  LIG1        0.0747
     34 H           0.8472    0.0104    1.2701 H       1  LIG1        0.1151
     35 H           2.1756    1.1747    1.1151 H       1  LIG1        0.1049
     36 H           6.8949    0.7612    0.4329 H       1  LIG1        0.3245
@<TRIPOS>BOND
     1     1     2   ar
     2     1     3   ar
     3     2     4   ar
     4     3     6   ar
     5     4     8   ar
     6     5     7   ar
     7     5    16   ar
     8     6     7   ar
     9     6     8   ar
    10     7    14    1
    11     8    16   ar
    12     9    10    1
    13     9    17   am
    14     9    18    2
    15    10    11    1
    16    11    12    1
    17    12    13    1
    18    13    17    1
    19    14    15    1
    20    15    17    1
    21     1    19    1
    22     2    20    1
    23     3    21    1
    24     4    22    1
    25     5    23    1
    26    10    24    1
    27    10    25    1
    28    11    26    1
    29    11    27    1
    30    12    28    1
    31    12    29    1
    32    13    30    1
    33    13    31    1
    34    14    32    1
    35    14    33    1
    36    15    34    1
    37    15    35    1
    38    16    36    1
