@<TRIPOS>MOLECULE
AE-641/30118009
 28 29 0 0 0
SMALL
USER_CHARGES

@<TRIPOS>ATOM
      1 C           6.9494   -3.8487    0.7333 C.ar    1  LIG1       -0.1002
      2 C           5.6840   -4.1551    1.2249 C.ar    1  LIG1       -0.0993
      3 C           6.1007    0.8809    1.4972 C.ar    1  LIG1       -0.1003
      4 C           7.3739   -2.5209    0.6762 C.ar    1  LIG1       -0.0885
      5 C           4.8382   -3.1351    1.6612 C.ar    1  LIG1       -0.0852
      6 C           6.9466   -0.1392    1.0608 C.ar    1  LIG1       -0.0878
      7 C           4.8353    0.5744    1.9887 C.ar    1  LIG1       -0.0934
      8 C           6.5357   -1.4813    1.1111 C.ar    1  LIG1       -0.0748
      9 C           5.2489   -1.7930    1.6109 C.ar    1  LIG1       -0.0643
     10 C           4.4107   -0.7534    2.0458 C.ar    1  LIG1       -0.0434
     11 C           2.0555    0.4653    0.5419 C.2     1  LIG1       -0.0054
     12 C           1.8197   -0.8972    1.1631 C.3     1  LIG1        0.0789
     13 N           2.5927    0.4787   -0.6429 N.2     1  LIG1       -0.3367
     14 N           1.6830    1.5515    1.3004 N.pl3   1  LIG1       -0.3871
     15 O           2.7534    1.7959   -1.0832 O.2     1  LIG1       -0.4071
     16 S           2.7532   -1.0022    2.7024 S.3     1  LIG1       -0.1425
     17 H           7.6074   -4.6430    0.3932 H       1  LIG1        0.1195
     18 H           5.3553   -5.1893    1.2699 H       1  LIG1        0.1199
     19 H           6.4313    1.9146    1.4543 H       1  LIG1        0.1222
     20 H           8.3671   -2.3048    0.2878 H       1  LIG1        0.1263
     21 H           3.8623   -3.4324    2.0345 H       1  LIG1        0.1286
     22 H           7.9318    0.1230    0.6803 H       1  LIG1        0.1260
     23 H           4.1973    1.3897    2.3223 H       1  LIG1        0.1121
     24 H           0.7551   -1.0412    1.3688 H       1  LIG1        0.1352
     25 H           2.1536   -1.6842    0.4805 H       1  LIG1        0.1352
     26 H           1.2755    1.4468    2.2236 H       1  LIG1        0.2587
     27 H           1.8102    2.4967    0.9547 H       1  LIG1        0.2692
     28 H           3.1545    1.6613   -1.9583 H       1  LIG1        0.3844
@<TRIPOS>BOND
     1     1     2   ar
     2     1     4   ar
     3     2     5   ar
     4     3     6   ar
     5     3     7   ar
     6     4     8   ar
     7     5     9   ar
     8     6     8   ar
     9     7    10   ar
    10     8     9   ar
    11     9    10   ar
    12    10    16    1
    13    11    12    1
    14    11    13    2
    15    11    14    1
    16    12    16    1
    17    13    15    1
    18     1    17    1
    19     2    18    1
    20     3    19    1
    21     4    20    1
    22     5    21    1
    23     6    22    1
    24     7    23    1
    25    12    24    1
    26    12    25    1
    27    14    26    1
    28    14    27    1
    29    15    28    1
