@<TRIPOS>MOLECULE
AA-516/30131054
 22 23 0 0 0
SMALL
USER_CHARGES

@<TRIPOS>ATOM
      1 C           2.5068    1.1664   -0.3948 C.1     1  LIG1        0.0172
      2 C           4.8470    0.3348    0.8717 C.ar    1  LIG1       -0.0809
      3 C           6.1259   -0.1334    1.1790 C.ar    1  LIG1       -0.0755
      4 C           3.9583   -1.9065    1.0245 C.ar    1  LIG1       -0.0810
      5 C           7.0234   -3.8361    1.8762 C.ar    1  LIG1       -0.0492
      6 C           5.2430   -2.4125    1.3383 C.ar    1  LIG1       -0.0837
      7 C           3.7730   -0.5406    0.7948 C.ar    1  LIG1       -0.0624
      8 C           5.6771   -3.7532    1.6113 C.ar    1  LIG1       -0.1086
      9 C           6.3093   -1.5109    1.4101 C.ar    1  LIG1       -0.0396
     10 C           4.7777   -4.9341    1.6108 C.3     1  LIG1       -0.0438
     11 C           2.4132   -0.0234    0.4646 C.3     1  LIG1        0.0922
     12 N           2.5796    2.1059   -1.0719 N.1     1  LIG1       -0.3992
     13 S           7.7846   -2.3128    1.8021 S.2     1  LIG1       -0.1450
     14 H           4.7030    1.3976    0.6926 H       1  LIG1        0.1393
     15 H           6.9609    0.5592    1.2371 H       1  LIG1        0.1386
     16 H           3.1100   -2.5845    0.9617 H       1  LIG1        0.1370
     17 H           7.5989   -4.7207    2.1115 H       1  LIG1        0.1696
     18 H           4.3539   -5.1006    2.6115 H       1  LIG1        0.0594
     19 H           3.9447   -4.8091    0.9029 H       1  LIG1        0.0561
     20 H           5.3096   -5.8486    1.3079 H       1  LIG1        0.0584
     21 H           1.8636    0.2275    1.3819 H       1  LIG1        0.1498
     22 H           1.8189   -0.7966   -0.0404 H       1  LIG1        0.1514
@<TRIPOS>BOND
     1     1    11    1
     2     1    12    3
     3     2     3   ar
     4     2     7   ar
     5     3     9   ar
     6     4     6   ar
     7     4     7   ar
     8     5     8   ar
     9     5    13   ar
    10     6     8   ar
    11     6     9   ar
    12     7    11    1
    13     8    10    1
    14     9    13   ar
    15     2    14    1
    16     3    15    1
    17     4    16    1
    18     5    17    1
    19    10    18    1
    20    10    19    1
    21    10    20    1
    22    11    21    1
    23    11    22    1
