@<TRIPOS>MOLECULE
AF-399/13479018
 29 31 0 0 0
SMALL
USER_CHARGES

@<TRIPOS>ATOM
      1 C           6.1471   -4.0369    1.3982 C.ar    1  LIG1       -0.1063
      2 C           7.4488   -3.5403    1.3954 C.ar    1  LIG1       -0.1038
      3 C           5.0494   -3.1689    1.3984 C.ar    1  LIG1       -0.0932
      4 C           7.6950   -2.1646    1.3940 C.ar    1  LIG1       -0.0790
      5 C           5.2711   -1.7768    1.3951 C.ar    1  LIG1       -0.0755
      6 C           4.4227   -0.6337    1.3945 C.ar    1  LIG1       -0.0964
      7 C           6.5891   -1.3069    1.3947 C.ar    1  LIG1       -0.0695
      8 C           5.2342    0.4811    1.4008 C.ar    1  LIG1       -0.0929
      9 C           2.9345   -0.5385    1.4125 C.3     1  LIG1       -0.0471
     10 C           4.7870    1.8974    1.3822 C.3     1  LIG1       -0.0261
     11 C           3.2913    1.9761    1.7426 C.3     1  LIG1       -0.0530
     12 C           2.4574    0.8847    1.0256 C.3     1  LIG1       -0.0661
     13 C           0.9709    1.0499    1.3343 C.3     1  LIG1       -0.0685
     14 N           6.5362    0.0709    1.3965 N.ar    1  LIG1       -0.3760
     15 H           5.9808   -5.1109    1.3997 H       1  LIG1        0.1052
     16 H           8.2868   -4.2326    1.3955 H       1  LIG1        0.1156
     17 H           4.0403   -3.5712    1.4007 H       1  LIG1        0.1310
     18 H           8.7095   -1.7800    1.3931 H       1  LIG1        0.1231
     19 H           2.4999   -1.2714    0.7228 H       1  LIG1        0.0678
     20 H           2.5837   -0.7904    2.4215 H       1  LIG1        0.0678
     21 H           5.3697    2.5037    2.0842 H       1  LIG1        0.0802
     22 H           4.9418    2.3089    0.3777 H       1  LIG1        0.0770
     23 H           3.1754    1.8610    2.8288 H       1  LIG1        0.0551
     24 H           2.9142    2.9738    1.4879 H       1  LIG1        0.0518
     25 H           2.5950    1.0133   -0.0571 H       1  LIG1        0.0537
     26 H           0.7999    0.9279    2.4027 H       1  LIG1        0.0331
     27 H           0.3959    0.3000    0.7934 H       1  LIG1        0.0331
     28 H           0.6387    2.0414    1.0309 H       1  LIG1        0.0336
     29 H           7.3424    0.6809    1.3928 H       1  LIG1        0.3254
@<TRIPOS>BOND
     1     1     2   ar
     2     1     3   ar
     3     2     4   ar
     4     3     5   ar
     5     4     7   ar
     6     5     6   ar
     7     5     7   ar
     8     6     8   ar
     9     6     9    1
    10     7    14   ar
    11     8    10    1
    12     8    14   ar
    13     9    12    1
    14    10    11    1
    15    11    12    1
    16    12    13    1
    17     1    15    1
    18     2    16    1
    19     3    17    1
    20     4    18    1
    21     9    19    1
    22     9    20    1
    23    10    21    1
    24    10    22    1
    25    11    23    1
    26    11    24    1
    27    12    25    1
    28    13    26    1
    29    13    27    1
    30    13    28    1
    31    14    29    1
