@<TRIPOS>MOLECULE
AS-662/43412967
 28 29 0 0 0
SMALL
USER_CHARGES

@<TRIPOS>ATOM
      1 C           6.4119   -4.1264    1.6055 C.ar    1  LIG1       -0.1483
      2 C           7.5934   -3.5529    1.1399 C.ar    1  LIG1       -0.1002
      3 C           5.3187   -3.3273    1.9594 C.ar    1  LIG1       -0.0630
      4 C           7.7207   -2.1667    1.0131 C.ar    1  LIG1       -0.1334
      5 C           5.2072    0.3223    1.7895 C.ar    1  LIG1        0.0704
      6 C           5.4236   -1.9272    1.8400 C.ar    1  LIG1       -0.0925
      7 C           4.5416   -0.8411    2.1000 C.ar    1  LIG1       -0.1501
      8 C           6.6198   -1.3803    1.3706 C.ar    1  LIG1        0.0939
      9 C           1.9637    2.4821   -0.1047 C.2     1  LIG1        0.4671
     10 C           3.1594   -0.9337    2.6126 C.3     1  LIG1       -0.0069
     11 C           1.8282    1.2438    0.7899 C.3     1  LIG1       -0.1421
     12 C           2.2150   -0.0962    0.1789 C.3     1  LIG1       -0.0513
     13 N           6.4597   -0.0131    1.3502 N.ar    1  LIG1       -0.5943
     14 O           1.5353    3.5682    0.3738 O.co2   1  LIG1       -0.5000
     15 O           2.5110    2.2582   -1.2227 O.co2   1  LIG1       -0.5000
     16 S           1.9622   -1.4569    1.3393 S.3     1  LIG1       -0.2868
     17 H           6.3368   -5.2068    1.6950 H       1  LIG1        0.1216
     18 H           8.4302   -4.1924    0.8708 H       1  LIG1        0.1228
     19 H           4.4041   -3.7896    2.3198 H       1  LIG1        0.1233
     20 H           8.6413   -1.7211    0.6516 H       1  LIG1        0.1175
     21 H           4.9023    1.3586    1.8399 H       1  LIG1        0.1730
     22 H           3.0856   -1.6446    3.4555 H       1  LIG1        0.0846
     23 H           2.8140    0.0346    3.0180 H       1  LIG1        0.0846
     24 H           2.3871    1.4086    1.7203 H       1  LIG1        0.0731
     25 H           0.7684    1.1954    1.0729 H       1  LIG1        0.0726
     26 H           3.2626   -0.1004   -0.1380 H       1  LIG1        0.0788
     27 H           1.5995   -0.2901   -0.7053 H       1  LIG1        0.0790
     28 H           7.1653    0.6469    1.0537 H       1  LIG1        0.4156
@<TRIPOS>BOND
     1     1     2   ar
     2     1     3   ar
     3     2     4   ar
     4     3     6   ar
     5     4     8   ar
     6     5     7   ar
     7     5    13   ar
     8     6     7   ar
     9     6     8   ar
    10     7    10    1
    11     8    13   ar
    12     9    11    1
    13     9    14   ar
    14     9    15   ar
    15    10    16    1
    16    11    12    1
    17    12    16    1
    18     1    17    1
    19     2    18    1
    20     3    19    1
    21     4    20    1
    22     5    21    1
    23    10    22    1
    24    10    23    1
    25    11    24    1
    26    11    25    1
    27    12    26    1
    28    12    27    1
    29    13    28    1
