@<TRIPOS>MOLECULE
AN-858/37395001
 38 40 0 0 0
SMALL
USER_CHARGES

@<TRIPOS>ATOM
      1 C           6.1551   -4.1439    1.4095 C.ar    1  LIG1       -0.1052
      2 C           7.4659   -3.7128    1.5846 C.ar    1  LIG1       -0.1028
      3 C           5.1100   -3.2221    1.2708 C.ar    1  LIG1       -0.0913
      4 C           7.7706   -2.3515    1.6329 C.ar    1  LIG1       -0.0777
      5 C           5.3865   -1.8379    1.3027 C.ar    1  LIG1       -0.0710
      6 C           4.6025   -0.6436    1.1929 C.ar    1  LIG1       -0.0876
      7 C           6.7158   -1.4411    1.4946 C.ar    1  LIG1       -0.0668
      8 C           5.4694    0.4177    1.3764 C.ar    1  LIG1       -0.0877
      9 C           2.9866    1.4229   -0.7455 C.2     1  LIG1        0.1484
     10 C           5.1270    1.8629    1.3989 C.3     1  LIG1       -0.0181
     11 C           3.6086    2.0361    1.5723 C.3     1  LIG1       -0.0173
     12 C           3.1186   -0.4343    1.0081 C.3     1  LIG1       -0.0202
     13 C           2.7885    1.0603    0.7022 C.3     1  LIG1        0.0640
     14 C           2.4795   -1.3620   -0.0281 C.3     1  LIG1       -0.0539
     15 C           3.4368   -0.0064   -3.5057 C.3     1  LIG1       -0.0342
     16 C           4.2868    0.9089   -2.6506 C.3     1  LIG1        0.0225
     17 N           6.7358   -0.0658    1.5250 N.ar    1  LIG1       -0.3734
     18 O           2.3314    2.2714   -1.3353 O.2     1  LIG1       -0.4618
     19 O           3.9913    0.6660   -1.2716 O.3     1  LIG1       -0.3644
     20 H           5.9361   -5.2082    1.3795 H       1  LIG1        0.1061
     21 H           8.2633   -4.4433    1.6856 H       1  LIG1        0.1165
     22 H           4.0897   -3.5795    1.1389 H       1  LIG1        0.1315
     23 H           8.7929   -2.0131    1.7735 H       1  LIG1        0.1241
     24 H           5.6434    2.3366    2.2404 H       1  LIG1        0.0855
     25 H           5.4559    2.3598    0.4816 H       1  LIG1        0.0851
     26 H           3.3500    1.9114    2.6358 H       1  LIG1        0.0668
     27 H           3.3303    3.0739    1.3260 H       1  LIG1        0.0703
     28 H           2.6093   -0.6661    1.9870 H       1  LIG1        0.0889
     29 H           1.7279    1.2359    0.9115 H       1  LIG1        0.1191
     30 H           2.9321   -1.1845   -0.9992 H       1  LIG1        0.0427
     31 H           1.4135   -1.1622   -0.0824 H       1  LIG1        0.0354
     32 H           2.6411   -2.3954    0.2645 H       1  LIG1        0.0427
     33 H           3.6484   -1.0560   -3.2832 H       1  LIG1        0.0482
     34 H           2.3722    0.1836   -3.3344 H       1  LIG1        0.0580
     35 H           3.6253    0.1741   -4.5692 H       1  LIG1        0.0486
     36 H           4.0704    1.9570   -2.8781 H       1  LIG1        0.1007
     37 H           5.3502    0.7171   -2.8224 H       1  LIG1        0.1008
     38 H           7.5657    0.4981    1.6537 H       1  LIG1        0.3275
@<TRIPOS>BOND
     1     1     2   ar
     2     1     3   ar
     3     2     4   ar
     4     3     5   ar
     5     4     7   ar
     6     5     6   ar
     7     5     7   ar
     8     6     8   ar
     9     6    12    1
    10     7    17   ar
    11     8    10    1
    12     8    17   ar
    13     9    13    1
    14     9    18    2
    15     9    19    1
    16    10    11    1
    17    11    13    1
    18    12    13    1
    19    12    14    1
    20    15    16    1
    21    16    19    1
    22     1    20    1
    23     2    21    1
    24     3    22    1
    25     4    23    1
    26    10    24    1
    27    10    25    1
    28    11    26    1
    29    11    27    1
    30    12    28    1
    31    13    29    1
    32    14    30    1
    33    14    31    1
    34    14    32    1
    35    15    33    1
    36    15    34    1
    37    15    35    1
    38    16    36    1
    39    16    37    1
    40    17    38    1
