@<TRIPOS>MOLECULE
AP-124/43383762
 28 29 0 0 0
SMALL
USER_CHARGES

@<TRIPOS>ATOM
      1 C           6.5675   -3.7183    1.7163 C.ar    1  LIG1       -0.0866
      2 C           6.0170   -3.5807    0.4399 C.ar    1  LIG1       -0.0932
      3 C           6.6743   -2.6196    2.5782 C.ar    1  LIG1       -0.0580
      4 C           5.5542   -2.3440   -0.0213 C.ar    1  LIG1       -0.0750
      5 C           5.6668    0.6822    1.9067 C.ar    1  LIG1        0.0176
      6 C           6.2144   -1.3695    2.1311 C.ar    1  LIG1       -0.0211
      7 C           5.6707   -1.2637    0.8540 C.ar    1  LIG1       -0.0354
      8 C           4.7133    0.7033   -0.4242 C.3     1  LIG1        0.0122
      9 C           2.3643   -0.3035   -0.4715 C.3     1  LIG1       -0.0911
     10 C           3.2128    0.9434   -0.2263 C.3     1  LIG1       -0.0154
     11 N           6.2036   -0.1508    2.7699 N.ar    1  LIG1       -0.3757
     12 N           5.3291    0.0593    0.7375 N.ar    1  LIG1       -0.3486
     13 N           1.0265   -0.1659    0.1565 N.4     1  LIG1        0.4487
     14 O           2.7891    1.9816   -1.1101 O.3     1  LIG1       -0.4805
     15 H           6.9187   -4.6927    2.0467 H       1  LIG1        0.1269
     16 H           5.9467   -4.4507   -0.2083 H       1  LIG1        0.1302
     17 H           7.1031   -2.7374    3.5684 H       1  LIG1        0.1469
     18 H           5.1270   -2.2378   -1.0123 H       1  LIG1        0.1175
     19 H           5.4991    1.7380    2.0704 H       1  LIG1        0.2895
     20 H           5.2545    1.6421   -0.5921 H       1  LIG1        0.1352
     21 H           4.8994    0.0481   -1.2836 H       1  LIG1        0.1331
     22 H           2.1965   -0.4791   -1.5380 H       1  LIG1        0.0966
     23 H           2.8190   -1.1897   -0.0187 H       1  LIG1        0.0986
     24 H           3.0216    1.2943    0.7950 H       1  LIG1        0.1415
     25 H           0.3902   -0.8993   -0.1730 H       1  LIG1        0.1492
     26 H           0.6077    0.7422   -0.0704 H       1  LIG1        0.1501
     27 H           1.0920   -0.2385    1.1773 H       1  LIG1        0.1490
     28 H           1.8402    2.1026   -0.9551 H       1  LIG1        0.3376
@<TRIPOS>BOND
     1     1     2   ar
     2     1     3   ar
     3     2     4   ar
     4     3     6   ar
     5     4     7   ar
     6     5    11   ar
     7     5    12   ar
     8     6     7   ar
     9     6    11   ar
    10     7    12   ar
    11     8    10    1
    12     8    12    1
    13     9    10    1
    14     9    13    1
    15    10    14    1
    16     1    15    1
    17     2    16    1
    18     3    17    1
    19     4    18    1
    20     5    19    1
    21     8    20    1
    22     8    21    1
    23     9    22    1
    24     9    23    1
    25    10    24    1
    26    13    25    1
    27    13    26    1
    28    13    27    1
    29    14    28    1
