@<TRIPOS>MOLECULE
AN-648/41701062
 29 31 0 0 0
SMALL
USER_CHARGES

@<TRIPOS>ATOM
      1 C           7.7473   -3.3461    1.5617 C.ar    1  LIG1       -0.1016
      2 C           6.6577   -4.2083    1.4822 C.ar    1  LIG1       -0.1014
      3 C           7.5494   -1.9655    1.5280 C.ar    1  LIG1       -0.0910
      4 C           5.3661   -3.6931    1.3686 C.ar    1  LIG1       -0.0906
      5 C           6.0388   -0.0425    1.3787 C.ar    1  LIG1       -0.0875
      6 C           4.7472    0.4728    1.2652 C.ar    1  LIG1       -0.0922
      7 C           3.8554   -1.7701    1.2192 C.ar    1  LIG1       -0.0802
      8 C           6.2565   -1.4295    1.4141 C.ar    1  LIG1       -0.0802
      9 C           5.1485   -2.3062    1.3332 C.ar    1  LIG1       -0.0769
     10 C           3.6577   -0.3894    1.1856 C.ar    1  LIG1       -0.0793
     11 C           0.9936   -1.0672   -0.6524 C.2     1  LIG1        0.1444
     12 C           1.9843    1.0139   -1.2286 C.2     1  LIG1        0.1974
     13 C           0.5454   -0.9787   -2.0845 C.3     1  LIG1        0.1299
     14 C           2.2776    0.1633    1.0644 C.3     1  LIG1        0.0320
     15 N           1.7534    0.0392   -0.2720 N.am    1  LIG1       -0.2337
     16 O           0.7044   -2.0205    0.0652 O.2     1  LIG1       -0.4392
     17 O           2.6249    2.0482   -1.1085 O.2     1  LIG1       -0.3948
     18 S           1.2049    0.5674   -2.7339 S.3     1  LIG1       -0.0408
     19 H           8.7523   -3.7481    1.6498 H       1  LIG1        0.1190
     20 H           6.8126   -5.2830    1.5079 H       1  LIG1        0.1179
     21 H           8.4162   -1.3107    1.5921 H       1  LIG1        0.1247
     22 H           4.5292   -4.3859    1.3076 H       1  LIG1        0.1262
     23 H           6.8759    0.6502    1.4393 H       1  LIG1        0.1274
     24 H           4.6020    1.5495    1.2394 H       1  LIG1        0.1266
     25 H           2.9943   -2.4336    1.1564 H       1  LIG1        0.1358
     26 H           0.9437   -1.8265   -2.6472 H       1  LIG1        0.1630
     27 H          -0.5465   -0.9727   -2.1277 H       1  LIG1        0.1637
     28 H           1.5830   -0.3544    1.7408 H       1  LIG1        0.1423
     29 H           2.2453    1.2284    1.3313 H       1  LIG1        0.1392
@<TRIPOS>BOND
     1     1     2   ar
     2     1     3   ar
     3     2     4   ar
     4     3     8   ar
     5     4     9   ar
     6     5     6   ar
     7     5     8   ar
     8     6    10   ar
     9     7     9   ar
    10     7    10   ar
    11     8     9   ar
    12    10    14    1
    13    11    13    1
    14    11    15   am
    15    11    16    2
    16    12    15   am
    17    12    17    2
    18    12    18    1
    19    13    18    1
    20    14    15    1
    21     1    19    1
    22     2    20    1
    23     3    21    1
    24     4    22    1
    25     5    23    1
    26     6    24    1
    27     7    25    1
    28    13    26    1
    29    13    27    1
    30    14    28    1
    31    14    29    1
