@<TRIPOS>MOLECULE
AQ-360/14045179
 28 29 0 0 0
SMALL
USER_CHARGES

@<TRIPOS>ATOM
      1 C           7.6111   -3.6927    1.6879 C.ar    1  LIG1       -0.0910
      2 C           6.3548   -4.2506    1.4653 C.ar    1  LIG1       -0.0924
      3 C           7.7457   -2.3113    1.8221 C.ar    1  LIG1       -0.0667
      4 C           5.2304   -3.4285    1.3821 C.ar    1  LIG1       -0.0783
      5 C           6.6242   -1.4796    1.7162 C.ar    1  LIG1       -0.0435
      6 C           5.3590   -2.0395    1.5045 C.ar    1  LIG1       -0.0271
      7 C           5.8673    0.8878    1.6562 C.2     1  LIG1        0.1113
      8 C           2.6197    1.4242   -0.3395 C.2     1  LIG1        0.0735
      9 C           4.6484    0.4887    0.8384 C.3     1  LIG1        0.1241
     10 C           0.9668   -0.2140   -1.2272 C.3     1  LIG1       -0.0322
     11 C           3.5960    1.5917    0.8066 C.3     1  LIG1        0.0861
     12 N           6.8097   -0.0944    1.8898 N.am    1  LIG1       -0.3055
     13 N           1.9578    0.2074   -0.2634 N.am    1  LIG1       -0.3618
     14 O           6.0657    2.0568    1.9955 O.2     1  LIG1       -0.4702
     15 O           2.4498    2.2710   -1.2124 O.2     1  LIG1       -0.4853
     16 S           3.8975   -1.0259    1.4861 S.3     1  LIG1       -0.1496
     17 H           8.4847   -4.3336    1.7625 H       1  LIG1        0.1317
     18 H           6.2483   -5.3270    1.3674 H       1  LIG1        0.1255
     19 H           8.7326   -1.8919    2.0030 H       1  LIG1        0.1298
     20 H           4.2567   -3.8877    1.2271 H       1  LIG1        0.1409
     21 H           4.9876    0.2990   -0.1873 H       1  LIG1        0.1695
     22 H          -0.0273    0.1124   -0.9112 H       1  LIG1        0.0954
     23 H           0.9671   -1.3037   -1.3177 H       1  LIG1        0.0845
     24 H           1.1846    0.2190   -2.2072 H       1  LIG1        0.0852
     25 H           4.0931    2.5609    0.7064 H       1  LIG1        0.1076
     26 H           3.0394    1.5857    1.7478 H       1  LIG1        0.1155
     27 H           7.7113    0.2047    2.2522 H       1  LIG1        0.3295
     28 H           2.1802   -0.4170    0.5063 H       1  LIG1        0.2937
@<TRIPOS>BOND
     1     1     2   ar
     2     1     3   ar
     3     2     4   ar
     4     3     5   ar
     5     4     6   ar
     6     5     6   ar
     7     5    12    1
     8     6    16    1
     9     7     9    1
    10     7    12   am
    11     7    14    2
    12     8    11    1
    13     8    13   am
    14     8    15    2
    15     9    11    1
    16     9    16    1
    17    10    13    1
    18     1    17    1
    19     2    18    1
    20     3    19    1
    21     4    20    1
    22     9    21    1
    23    10    22    1
    24    10    23    1
    25    10    24    1
    26    11    25    1
    27    11    26    1
    28    12    27    1
    29    13    28    1
