@<TRIPOS>MOLECULE
AI-942/13331527
 23 24 0 0 0
SMALL
USER_CHARGES

@<TRIPOS>ATOM
      1 C           7.7509   -3.0581    1.8434 C.ar    1  LIG1       -0.1286
      2 C           6.8323   -4.0932    1.7409 C.ar    1  LIG1       -0.1167
      3 C           7.3413   -1.7324    1.6778 C.ar    1  LIG1       -0.0869
      4 C           5.4883   -3.8276    1.4718 C.ar    1  LIG1       -0.0733
      5 C           5.3335   -0.1682    1.1974 C.ar    1  LIG1       -0.1932
      6 C           5.9854   -1.4302    1.4039 C.ar    1  LIG1       -0.0699
      7 C           5.0787   -2.4901    1.3055 C.ar    1  LIG1       -0.1363
      8 C           3.9866   -0.2952    0.9540 C.ar    1  LIG1       -0.0381
      9 C           3.4638    1.6479   -0.4947 C.2     1  LIG1        0.4683
     10 C           1.5628    0.2315    0.5207 C.3     1  LIG1       -0.1218
     11 C           2.9948    0.7718    0.6979 C.3     1  LIG1       -0.0721
     12 O           2.5210    2.1805   -1.1503 O.co2   1  LIG1       -0.5000
     13 O           4.7101    1.7442   -0.6739 O.co2   1  LIG1       -0.5000
     14 S           3.4849   -1.9241    0.9696 S.2     1  LIG1        0.0642
     15 H           8.7939   -3.2769    2.0542 H       1  LIG1        0.1194
     16 H           7.1603   -5.1208    1.8707 H       1  LIG1        0.1264
     17 H           8.0728   -0.9325    1.7601 H       1  LIG1        0.1186
     18 H           4.7762   -4.6443    1.3940 H       1  LIG1        0.1255
     19 H           5.8419    0.7881    1.2287 H       1  LIG1        0.1302
     20 H           1.5260   -0.4777   -0.3138 H       1  LIG1        0.0509
     21 H           1.2094   -0.2870    1.4188 H       1  LIG1        0.0476
     22 H           0.8492    1.0343    0.3046 H       1  LIG1        0.0718
     23 H           2.9359    1.4753    1.5566 H       1  LIG1        0.0942
@<TRIPOS>BOND
     1     1     2   ar
     2     1     3   ar
     3     2     4   ar
     4     3     6   ar
     5     4     7   ar
     6     5     6   ar
     7     5     8   ar
     8     6     7   ar
     9     7    14   ar
    10     8    11    1
    11     8    14   ar
    12     9    11    1
    13     9    12   ar
    14     9    13   ar
    15    10    11    1
    16     1    15    1
    17     2    16    1
    18     3    17    1
    19     4    18    1
    20     5    19    1
    21    10    20    1
    22    10    21    1
    23    10    22    1
    24    11    23    1
