@<TRIPOS>MOLECULE
AP-124/43383562
 27 28 0 0 0
SMALL
USER_CHARGES

@<TRIPOS>ATOM
      1 C           6.8589   -3.8103    1.0824 C.ar    1  LIG1       -0.1533
      2 C           5.4777   -3.9434    0.9557 C.ar    1  LIG1       -0.1102
      3 C           7.4358   -2.5667    1.3646 C.ar    1  LIG1       -0.0784
      4 C           4.6305   -2.8418    1.1065 C.ar    1  LIG1       -0.1210
      5 C           6.8345   -0.0665    1.8032 C.ar    1  LIG1       -0.2239
      6 C           6.6018   -1.4417    1.5208 C.ar    1  LIG1       -0.1099
      7 C           5.2212   -1.6049    1.3884 C.ar    1  LIG1        0.0989
      8 C           5.6134    0.5667    1.8358 C.ar    1  LIG1        0.0896
      9 C           3.3565    1.0517   -0.7675 C.2     1  LIG1        0.4963
     10 C           5.2911    1.9869    2.0853 C.3     1  LIG1       -0.0972
     11 C           2.7039   -0.0262    0.1030 C.3     1  LIG1       -0.1974
     12 C           3.2239   -0.1001    1.5337 C.3     1  LIG1        0.1274
     13 N           4.6464   -0.3694    1.5848 N.ar    1  LIG1       -0.4714
     14 O           4.5985    0.8878   -0.9459 O.co2   1  LIG1       -0.5000
     15 O           2.6004    1.9629   -1.2024 O.co2   1  LIG1       -0.5000
     16 H           7.4970   -4.6818    0.9613 H       1  LIG1        0.1159
     17 H           5.0507   -4.9187    0.7360 H       1  LIG1        0.1201
     18 H           8.5140   -2.4764    1.4602 H       1  LIG1        0.1156
     19 H           3.5558   -2.9521    1.0074 H       1  LIG1        0.1191
     20 H           7.7940    0.4063    1.9642 H       1  LIG1        0.1409
     21 H           5.2781    2.5609    1.1449 H       1  LIG1        0.0754
     22 H           4.3062    2.1078    2.5667 H       1  LIG1        0.0808
     23 H           6.0219    2.4632    2.7602 H       1  LIG1        0.0733
     24 H           2.8529   -0.9927   -0.3953 H       1  LIG1        0.0630
     25 H           1.6225    0.1621    0.1116 H       1  LIG1        0.0632
     26 H           2.7154   -0.8904    2.0992 H       1  LIG1        0.0870
     27 H           3.0440    0.8403    2.0689 H       1  LIG1        0.0893
@<TRIPOS>BOND
     1     1     2   ar
     2     1     3   ar
     3     2     4   ar
     4     3     6   ar
     5     4     7   ar
     6     5     6   ar
     7     5     8   ar
     8     6     7   ar
     9     7    13   ar
    10     8    10    1
    11     8    13   ar
    12     9    11    1
    13     9    14   ar
    14     9    15   ar
    15    11    12    1
    16    12    13    1
    17     1    16    1
    18     2    17    1
    19     3    18    1
    20     4    19    1
    21     5    20    1
    22    10    21    1
    23    10    22    1
    24    10    23    1
    25    11    24    1
    26    11    25    1
    27    12    26    1
    28    12    27    1
