@<TRIPOS>MOLECULE
AN-652/40071745
 28 29 0 0 0
SMALL
USER_CHARGES

@<TRIPOS>ATOM
      1 C           7.6353   -3.2211    1.7499 C.ar    1  LIG1       -0.0969
      2 C           6.6871   -4.0709    1.1883 C.ar    1  LIG1       -0.0959
      3 C           7.3289   -1.8769    1.9642 C.ar    1  LIG1       -0.0866
      4 C           5.4289   -3.5801    0.8388 C.ar    1  LIG1       -0.0834
      5 C           5.7418   -0.0155    1.8270 C.ar    1  LIG1       -0.0774
      6 C           4.4835    0.4755    1.4775 C.ar    1  LIG1       -0.0615
      7 C           3.8416   -1.7186    0.7015 C.ar    1  LIG1       -0.0400
      8 C           6.0674   -1.3656    1.6184 C.ar    1  LIG1       -0.0720
      9 C           5.1032   -2.2299    1.0472 C.ar    1  LIG1       -0.0623
     10 C           3.5353   -0.3744    0.9158 C.ar    1  LIG1        0.0582
     11 C          -0.5597   -0.1367   -0.3835 C.3     1  LIG1        0.0303
     12 C           0.2654    1.1152   -0.5815 C.3     1  LIG1        0.2628
     13 O           2.6792    1.9791   -1.0768 O.2     1  LIG1       -0.0721
     14 O           2.0027   -0.3267   -1.8933 O.2     1  LIG1       -0.0721
     15 O           2.3082    0.1061    0.5756 O.3     1  LIG1       -0.1305
     16 S           1.9676    0.7289   -0.9009 S.O2    1  LIG1        0.0363
     17 H           8.6148   -3.6038    2.0211 H       1  LIG1        0.1244
     18 H           6.9259   -5.1175    1.0219 H       1  LIG1        0.1241
     19 H           8.0851   -1.2300    2.4040 H       1  LIG1        0.1297
     20 H           4.7035   -4.2625    0.4005 H       1  LIG1        0.1331
     21 H           6.4678    0.6672    2.2640 H       1  LIG1        0.1446
     22 H           4.2505    1.5233    1.6460 H       1  LIG1        0.1331
     23 H           3.0886   -2.3700    0.2615 H       1  LIG1        0.1586
     24 H          -0.5287   -0.7613   -1.2811 H       1  LIG1        0.0533
     25 H          -0.1821   -0.7264    0.4583 H       1  LIG1        0.0462
     26 H          -1.6051    0.1112   -0.1734 H       1  LIG1        0.0461
     27 H           0.2401    1.7458    0.3114 H       1  LIG1        0.1710
     28 H          -0.0995    1.6936   -1.4345 H       1  LIG1        0.1734
@<TRIPOS>BOND
     1     1     2   ar
     2     1     3   ar
     3     2     4   ar
     4     3     8   ar
     5     4     9   ar
     6     5     6   ar
     7     5     8   ar
     8     6    10   ar
     9     7     9   ar
    10     7    10   ar
    11     8     9   ar
    12    10    15    1
    13    11    12    1
    14    12    16    1
    15    13    16    2
    16    14    16    2
    17    15    16    1
    18     1    17    1
    19     2    18    1
    20     3    19    1
    21     4    20    1
    22     5    21    1
    23     6    22    1
    24     7    23    1
    25    11    24    1
    26    11    25    1
    27    11    26    1
    28    12    27    1
    29    12    28    1
