@<TRIPOS>MOLECULE
AN-465/42796187
 24 24 0 0 0
SMALL
USER_CHARGES

@<TRIPOS>ATOM
      1 C           7.2432   -3.7000    1.6502 C.ar    1  LIG1       -0.1324
      2 C           7.6940   -2.4179    1.3362 C.ar    1  LIG1       -0.0676
      3 C           5.8762   -3.9776    1.6530 C.ar    1  LIG1       -0.0682
      4 C           6.7777   -1.4132    1.0251 C.ar    1  LIG1       -0.1506
      5 C           4.9599   -2.9729    1.3419 C.ar    1  LIG1       -0.1754
      6 C           5.4107   -1.6906    1.0280 C.ar    1  LIG1        0.1626
      7 C           2.2285    0.1718    0.3710 C.2     1  LIG1        0.4795
      8 C           2.8841    1.4262    0.0744 C.2     1  LIG1        0.5656
      9 N           2.6622    1.9428   -1.1837 N.am    1  LIG1       -0.8053
     10 N           4.4897   -0.6815    0.7154 N.pl3   1  LIG1       -0.5405
     11 N           3.0494   -0.8307    0.6786 N.pl3   1  LIG1       -0.3912
     12 N           0.9030    0.1244    0.3368 N.2     1  LIG1       -0.7462
     13 O           3.6126    1.9712    0.9003 O.2     1  LIG1       -0.4607
     14 H           7.9568   -4.4823    1.8926 H       1  LIG1        0.1367
     15 H           8.7581   -2.2020    1.3341 H       1  LIG1        0.1410
     16 H           5.5253   -4.9761    1.8975 H       1  LIG1        0.1383
     17 H           7.1392   -0.4174    0.7820 H       1  LIG1        0.1347
     18 H           3.8970   -3.2008    1.3471 H       1  LIG1        0.1189
     19 H           2.0684    1.4459   -1.8377 H       1  LIG1        0.4110
     20 H           3.0930    2.8206   -1.4559 H       1  LIG1        0.4417
     21 H           4.8556    0.2363    0.4928 H       1  LIG1        0.4335
     22 H           2.6340   -1.7312    0.8945 H       1  LIG1        0.4697
     23 H           0.3627    0.9478    0.0980 H       1  LIG1        0.4602
     24 H           0.3918   -0.7290    0.5258 H       1  LIG1        0.4446
@<TRIPOS>BOND
     1     1     2   ar
     2     1     3   ar
     3     2     4   ar
     4     3     5   ar
     5     4     6   ar
     6     5     6   ar
     7     6    10    1
     8     7     8    1
     9     7    11    1
    10     7    12    2
    11     8     9   am
    12     8    13    2
    13    10    11    1
    14     1    14    1
    15     2    15    1
    16     3    16    1
    17     4    17    1
    18     5    18    1
    19     9    19    1
    20     9    20    1
    21    10    21    1
    22    11    22    1
    23    12    23    1
    24    12    24    1
