@<TRIPOS>MOLECULE
AI-981/34479008
 26 27 0 0 0
SMALL
USER_CHARGES

@<TRIPOS>ATOM
      1 C           5.5320   -3.7488    1.2730 C.ar    1  LIG1       -0.1003
      2 C           6.9208   -3.6570    1.3401 C.ar    1  LIG1       -0.0965
      3 C           4.7366   -2.5972    1.2849 C.ar    1  LIG1       -0.0900
      4 C           7.5581   -2.4155    1.4209 C.ar    1  LIG1       -0.0745
      5 C           5.9689    0.8383    1.4849 C.ar    1  LIG1       -0.0349
      6 C           5.3566   -1.3344    1.3659 C.ar    1  LIG1       -0.0523
      7 C           4.8774    0.0050    1.4000 C.ar    1  LIG1        0.0155
      8 C           6.7502   -1.2729    1.4319 C.ar    1  LIG1       -0.0613
      9 C           3.5168    0.4606    1.3562 C.2     1  LIG1        0.0418
     10 C           1.9809    1.0947   -1.0910 C.3     1  LIG1       -0.0330
     11 C           2.1877    2.0594    0.0572 C.3     1  LIG1        0.0269
     12 N           2.4824   -0.2088    1.8219 N.2     1  LIG1       -0.4526
     13 N           7.0940    0.0583    1.5032 N.ar    1  LIG1       -0.3596
     14 O           3.3812    1.6939    0.7658 O.2     1  LIG1       -0.3761
     15 H           5.0597   -4.7257    1.2099 H       1  LIG1        0.1183
     16 H           7.5194   -4.5643    1.3298 H       1  LIG1        0.1253
     17 H           3.6554   -2.6855    1.2316 H       1  LIG1        0.1251
     18 H           8.6393   -2.3457    1.4733 H       1  LIG1        0.1257
     19 H           6.0492    1.9155    1.5338 H       1  LIG1        0.2223
     20 H           2.8240    1.1292   -1.7864 H       1  LIG1        0.0463
     21 H           1.8707    0.0705   -0.7195 H       1  LIG1        0.0569
     22 H           1.0627    1.3357   -1.6368 H       1  LIG1        0.0463
     23 H           1.3410    2.0199    0.7489 H       1  LIG1        0.1021
     24 H           2.2985    3.0820   -0.3158 H       1  LIG1        0.1020
     25 H           2.7342   -1.1105    2.2316 H       1  LIG1        0.2410
     26 H           8.0402    0.4087    1.5612 H       1  LIG1        0.3358
@<TRIPOS>BOND
     1     1     2   ar
     2     1     3   ar
     3     2     4   ar
     4     3     6   ar
     5     4     8   ar
     6     5     7   ar
     7     5    13   ar
     8     6     7   ar
     9     6     8   ar
    10     7     9    1
    11     8    13   ar
    12     9    12    2
    13     9    14    1
    14    10    11    1
    15    11    14    1
    16     1    15    1
    17     2    16    1
    18     3    17    1
    19     4    18    1
    20     5    19    1
    21    10    20    1
    22    10    21    1
    23    10    22    1
    24    11    23    1
    25    11    24    1
    26    12    25    1
    27    13    26    1
