@<TRIPOS>MOLECULE
AL-182/12304024
 33 35 0 0 0
SMALL
USER_CHARGES

@<TRIPOS>ATOM
      1 C           6.0995   -4.0118    1.3960 C.ar    1  LIG1       -0.0966
      2 C           7.4218   -3.5720    1.3961 C.ar    1  LIG1       -0.0971
      3 C           5.0404   -3.0970    1.3960 C.ar    1  LIG1       -0.0790
      4 C           7.7277   -2.2082    1.3963 C.ar    1  LIG1       -0.0769
      5 C           5.3725    0.5431    1.3967 C.ar    1  LIG1       -0.0268
      6 C           5.3243   -1.7168    1.3962 C.ar    1  LIG1       -0.0471
      7 C           4.5241   -0.5401    1.3963 C.ar    1  LIG1        0.0073
      8 C           6.6588   -1.3051    1.3963 C.ar    1  LIG1       -0.0591
      9 C           3.0701   -0.4410    1.3953 C.2     1  LIG1       -0.0458
     10 C           2.3564    3.1185   -0.6632 C.3     1  LIG1       -0.0614
     11 C           2.8275    3.0834    0.7912 C.3     1  LIG1       -0.0476
     12 C           2.6715    1.8012   -1.3727 C.3     1  LIG1       -0.0475
     13 C           2.2586    1.8741    1.5275 C.3     1  LIG1       -0.0354
     14 C           2.1057    0.6100   -0.6049 C.3     1  LIG1       -0.0355
     15 N           6.6579    0.0716    1.3965 N.ar    1  LIG1       -0.3532
     16 N           2.5243    0.6437    0.7915 N.am    1  LIG1       -0.4024
     17 S           2.1136   -1.6282    2.0856 S.2     1  LIG1       -0.2861
     18 H           5.8871   -5.0779    1.3953 H       1  LIG1        0.1180
     19 H           8.2293   -4.3000    1.3965 H       1  LIG1        0.1246
     20 H           4.0152   -3.4557    1.3957 H       1  LIG1        0.1520
     21 H           8.7575   -1.8672    1.3965 H       1  LIG1        0.1226
     22 H           5.1803    1.6073    1.3972 H       1  LIG1        0.2298
     23 H           1.2757    3.3029   -0.6946 H       1  LIG1        0.0434
     24 H           2.8403    3.9485   -1.1899 H       1  LIG1        0.0410
     25 H           3.9235    3.0376    0.8104 H       1  LIG1        0.0545
     26 H           2.5318    4.0057    1.3029 H       1  LIG1        0.0555
     27 H           2.2655    1.8171   -2.3899 H       1  LIG1        0.0550
     28 H           3.7600    1.6935   -1.4586 H       1  LIG1        0.0552
     29 H           2.6831    1.8091    2.5352 H       1  LIG1        0.0958
     30 H           1.1710    1.9651    1.6305 H       1  LIG1        0.1036
     31 H           1.0096    0.6314   -0.6182 H       1  LIG1        0.0949
     32 H           2.4250   -0.3285   -1.0711 H       1  LIG1        0.1033
     33 H           7.4865    0.6502    1.3969 H       1  LIG1        0.3406
@<TRIPOS>BOND
     1     1     2   ar
     2     1     3   ar
     3     2     4   ar
     4     3     6   ar
     5     4     8   ar
     6     5     7   ar
     7     5    15   ar
     8     6     7   ar
     9     6     8   ar
    10     7     9    1
    11     8    15   ar
    12     9    16    1
    13     9    17    2
    14    10    11    1
    15    10    12    1
    16    11    13    1
    17    12    14    1
    18    13    16    1
    19    14    16    1
    20     1    18    1
    21     2    19    1
    22     3    20    1
    23     4    21    1
    24     5    22    1
    25    10    23    1
    26    10    24    1
    27    11    25    1
    28    11    26    1
    29    12    27    1
    30    12    28    1
    31    13    29    1
    32    13    30    1
    33    14    31    1
    34    14    32    1
    35    15    33    1
