@<TRIPOS>MOLECULE
ZINC00054337
 35 37 0 0 0
SMALL
USER_CHARGES

@<TRIPOS>ATOM
      1 C           6.2392   -4.2001    1.3907 C.ar    1  LIG1       -0.1026
      2 C           7.5460   -3.7191    1.4442 C.ar    1  LIG1       -0.0991
      3 C           5.1519   -3.3191    1.3698 C.ar    1  LIG1       -0.0941
      4 C           7.8080   -2.3465    1.4786 C.ar    1  LIG1       -0.0775
      5 C           5.3674    0.3291    1.4454 C.ar    1  LIG1       -0.0747
      6 C           5.3914   -1.9309    1.4038 C.ar    1  LIG1       -0.0782
      7 C           4.5545   -0.7800    1.3967 C.ar    1  LIG1       -0.0881
      8 C           6.7112   -1.4776    1.4574 C.ar    1  LIG1       -0.0697
      9 C           2.4372    1.5047    0.4516 C.2     1  LIG1        0.1620
     10 C           0.3262    0.8380   -0.0246 C.2     1  LIG1       -0.0023
     11 C          -0.9428    3.7757    2.3975 C.2     1  LIG1       -0.1212
     12 C           0.2786    3.4330    1.9730 C.2     1  LIG1       -0.1093
     13 C           2.5244    0.0132    0.1573 C.3     1  LIG1        0.1003
     14 C           3.0469   -0.7657    1.3467 C.3     1  LIG1        0.0045
     15 C           0.6447    3.2676    0.5344 C.3     1  LIG1        0.0239
     16 N           6.6664   -0.1018    1.4815 N.ar    1  LIG1       -0.3733
     17 N           1.1440   -0.2812   -0.1245 N.am    1  LIG1       -0.3160
     18 N           1.1220    1.9082    0.3262 N.am    1  LIG1       -0.2589
     19 O           3.4042    2.1937    0.7514 O.2     1  LIG1       -0.4218
     20 S          -1.3144    0.7970   -0.3033 S.2     1  LIG1       -0.3037
     21 H           6.0608   -5.2717    1.3641 H       1  LIG1        0.1129
     22 H           8.3756   -4.4213    1.4596 H       1  LIG1        0.1228
     23 H           4.1392   -3.7097    1.3270 H       1  LIG1        0.1258
     24 H           8.8255   -1.9730    1.5215 H       1  LIG1        0.1208
     25 H           5.1390    1.3859    1.4561 H       1  LIG1        0.1925
     26 H          -1.1446    3.8863    3.4573 H       1  LIG1        0.0969
     27 H          -1.7572    3.9499    1.7028 H       1  LIG1        0.0943
     28 H           1.0606    3.2762    2.7120 H       1  LIG1        0.0915
     29 H           3.1123   -0.1592   -0.7485 H       1  LIG1        0.1791
     30 H           2.6731   -1.7986    1.3141 H       1  LIG1        0.0900
     31 H           2.6550   -0.3366    2.2795 H       1  LIG1        0.1029
     32 H           1.4443    3.9674    0.2729 H       1  LIG1        0.1471
     33 H          -0.2025    3.4501   -0.1346 H       1  LIG1        0.1385
     34 H           7.4758    0.5020    1.5204 H       1  LIG1        0.3291
     35 H           0.8056   -1.1979   -0.3997 H       1  LIG1        0.3555
@<TRIPOS>BOND
     1     1     2   ar
     2     1     3   ar
     3     2     4   ar
     4     3     6   ar
     5     4     8   ar
     6     5     7   ar
     7     5    16   ar
     8     6     7   ar
     9     6     8   ar
    10     7    14    1
    11     8    16   ar
    12     9    13    1
    13     9    18   am
    14     9    19    2
    15    10    17    1
    16    10    18    1
    17    10    20    2
    18    11    12    2
    19    12    15    1
    20    13    14    1
    21    13    17    1
    22    15    18    1
    23     1    21    1
    24     2    22    1
    25     3    23    1
    26     4    24    1
    27     5    25    1
    28    11    26    1
    29    11    27    1
    30    12    28    1
    31    13    29    1
    32    14    30    1
    33    14    31    1
    34    15    32    1
    35    15    33    1
    36    16    34    1
    37    17    35    1
