@<TRIPOS>MOLECULE
AE-641/00364007
 26 27 0 0 0
SMALL
USER_CHARGES

@<TRIPOS>ATOM
      1 C           5.9247   -3.8911    1.0867 C.ar    1  LIG1       -0.1689
      2 C           7.2431   -3.4962    1.3044 C.ar    1  LIG1       -0.1213
      3 C           4.8897   -2.9492    1.0610 C.ar    1  LIG1       -0.0624
      4 C           7.5694   -2.1516    1.5028 C.ar    1  LIG1       -0.1342
      5 C           5.1944   -1.5878    1.2586 C.ar    1  LIG1       -0.1000
      6 C           4.4208   -0.3940    1.2963 C.ar    1  LIG1       -0.1286
      7 C           6.5245   -1.2211    1.4746 C.ar    1  LIG1        0.0780
      8 CA          5.2802    0.6547    1.5303 C.ar    1  LIG1        0.0295
      9 C           4.9085    2.1313    1.6550 C.2     1  LIG1        0.5409
     10 C           3.1089    0.6250   -1.3107 C.2     1  LIG1        0.4969
     11 C           2.9563   -0.3004    1.1168 C.3     1  LIG1       -0.0204
     12 C           2.5202   -0.4145   -0.3513 C.3     1  LIG1       -0.1608
     13 N           6.5469    0.1459    1.6362 N.ar    1  LIG1       -0.5695
     14 O           5.8568    2.9350    1.8722 O.co2   1  LIG1       -0.5000
     15 O           2.7804    1.8172   -1.0430 O.co2   1  LIG1       -0.5000
     16 OXT         3.6859    2.4175    1.5303 O.co2   1  LIG1       -0.5000
     17 O           3.8410    0.1877   -2.2401 O.co2   1  LIG1       -0.5000
     18 H           5.6955   -4.9425    0.9351 H       1  LIG1        0.1092
     19 H           8.0317   -4.2447    1.3212 H       1  LIG1        0.1103
     20 H           3.8669   -3.2729    0.8905 H       1  LIG1        0.1177
     21 H           8.5965   -1.8457    1.6721 H       1  LIG1        0.1074
     22 H           2.4409   -1.0844    1.7018 H       1  LIG1        0.0921
     23 H           2.5729    0.6516    1.5278 H       1  LIG1        0.0465
     24 H           1.4268   -0.3373   -0.4117 H       1  LIG1        0.0399
     25 H           2.7897   -1.4075   -0.7337 H       1  LIG1        0.0583
     26 H           7.3794    0.6928    1.8073 H       1  LIG1        0.4129
@<TRIPOS>BOND
     1     1     2   ar
     2     1     3   ar
     3     2     4   ar
     4     3     5   ar
     5     4     7   ar
     6     5     6   ar
     7     5     7   ar
     8     6     8   ar
     9     6    11    1
    10     7    13   ar
    11     8     9    1
    12     8    13   ar
    13     9    14   ar
    14     9    16   ar
    15    10    12    1
    16    10    15   ar
    17    10    17   ar
    18    11    12    1
    19     1    18    1
    20     2    19    1
    21     3    20    1
    22     4    21    1
    23    11    22    1
    24    11    23    1
    25    12    24    1
    26    12    25    1
    27    13    26    1
