@<TRIPOS>MOLECULE
AN-652/42476886
 28 29 0 0 0
SMALL
USER_CHARGES

@<TRIPOS>ATOM
      1 C           6.6344   -0.0642    0.8068 C.ar    1  LIG1       -0.0722
      2 C           5.2934   -3.3455    1.9096 C.ar    1  LIG1       -0.0719
      3 C           5.4718    0.7063    0.7694 C.ar    1  LIG1       -0.0573
      4 C           6.4560   -4.1159    1.9470 C.ar    1  LIG1       -0.0726
      5 C           4.1815   -1.2033    1.4876 C.ar    1  LIG1       -0.0358
      6 C           7.7463   -2.2063    1.2287 C.ar    1  LIG1       -0.0613
      7 C           5.3415   -1.9939    1.5310 C.ar    1  LIG1       -0.0547
      8 C           6.5863   -1.4158    1.1855 C.ar    1  LIG1       -0.0604
      9 C           4.2479    0.1378    1.1091 C.ar    1  LIG1        0.0617
     10 C           7.6800   -3.5475    1.6072 C.ar    1  LIG1       -0.0318
     11 C           0.1332    0.4891    1.4611 C.3     1  LIG1        0.0305
     12 C           0.7037    1.5751    0.5766 C.3     1  LIG1        0.2629
     13 O           2.6470    2.1269   -1.0776 O.2     1  LIG1       -0.0722
     14 O           1.9071   -0.2853   -0.8049 O.2     1  LIG1       -0.0722
     15 O           3.1148    0.8916    1.0744 O.3     1  LIG1       -0.1292
     16 S           2.1718    1.0303   -0.2579 S.O2    1  LIG1        0.0366
     17 BR          9.2530   -4.5940    1.6584 Br      1  LIG1       -0.1033
     18 H           7.5803    0.4010    0.5370 H       1  LIG1        0.1496
     19 H           4.3476   -3.8105    2.1799 H       1  LIG1        0.1452
     20 H           5.5292    1.7504    0.4739 H       1  LIG1        0.1372
     21 H           6.3871   -5.1593    2.2442 H       1  LIG1        0.1394
     22 H           3.2163   -1.6325    1.7508 H       1  LIG1        0.1619
     23 H           8.7068   -1.7664    0.9643 H       1  LIG1        0.1493
     24 H          -0.1355   -0.3880    0.8649 H       1  LIG1        0.0464
     25 H           0.8593    0.1792    2.2198 H       1  LIG1        0.0463
     26 H          -0.7641    0.8381    1.9823 H       1  LIG1        0.0537
     27 H           0.9752    2.4562    1.1645 H       1  LIG1        0.1711
     28 H          -0.0143    1.8702   -0.1934 H       1  LIG1        0.1740
@<TRIPOS>BOND
     1     1     3   ar
     2     1     8   ar
     3     2     4   ar
     4     2     7   ar
     5     3     9   ar
     6     4    10   ar
     7     5     7   ar
     8     5     9   ar
     9     6     8   ar
    10     6    10   ar
    11     7     8   ar
    12     9    15    1
    13    10    17    1
    14    11    12    1
    15    12    16    1
    16    13    16    2
    17    14    16    2
    18    15    16    1
    19     1    18    1
    20     2    19    1
    21     3    20    1
    22     4    21    1
    23     5    22    1
    24     6    23    1
    25    11    24    1
    26    11    25    1
    27    11    26    1
    28    12    27    1
    29    12    28    1
