@<TRIPOS>MOLECULE
AI-204/31682040
 30 31 0 0 0
SMALL
USER_CHARGES

@<TRIPOS>ATOM
      1 C           6.1733   -4.1235    1.3328 C.ar    1  LIG1       -0.0903
      2 C           5.0504   -3.2988    1.4096 C.ar    1  LIG1       -0.0768
      3 C           7.6024   -2.1793    1.3592 C.ar    1  LIG1       -0.0646
      4 C           7.4484   -3.5643    1.3106 C.ar    1  LIG1       -0.1030
      5 C           6.4783   -1.3460    1.4127 C.ar    1  LIG1       -0.0419
      6 C           5.1964   -1.9066    1.4474 C.ar    1  LIG1       -0.0275
      7 C           5.7193    1.0213    1.3816 C.2     1  LIG1        0.1132
      8 C           2.1910    1.4880   -0.0527 C.2     1  LIG1        0.1530
      9 C           4.3779    0.5949    0.8049 C.3     1  LIG1        0.1263
     10 C           8.6488   -4.4463    1.2408 C.3     1  LIG1       -0.0376
     11 C           1.4927    2.0010   -2.2544 C.3     1  LIG1        0.0338
     12 C           3.3345    1.7021    0.9074 C.3     1  LIG1        0.1042
     13 N           6.6892    0.0442    1.4912 N.am    1  LIG1       -0.3038
     14 O           5.9719    2.2025    1.6303 O.2     1  LIG1       -0.4678
     15 O           1.1707    0.8579    0.1888 O.2     1  LIG1       -0.4536
     16 O           2.4871    2.1128   -1.2310 O.3     1  LIG1       -0.3640
     17 S           3.7524   -0.8856    1.6378 S.3     1  LIG1       -0.1525
     18 H           6.0434   -5.2020    1.3013 H       1  LIG1        0.1270
     19 H           4.0652   -3.7582    1.4456 H       1  LIG1        0.1431
     20 H           8.6018   -1.7490    1.3492 H       1  LIG1        0.1316
     21 H           4.5349    0.3598   -0.2547 H       1  LIG1        0.1709
     22 H           8.9229   -4.6367    0.1958 H       1  LIG1        0.0619
     23 H           9.5088   -3.9902    1.7483 H       1  LIG1        0.0568
     24 H           8.4644   -5.4102    1.7331 H       1  LIG1        0.0587
     25 H           1.8276    2.5328   -3.1484 H       1  LIG1        0.1249
     26 H           0.5510    2.4249   -1.8967 H       1  LIG1        0.0969
     27 H           1.3469    0.9452   -2.4945 H       1  LIG1        0.0978
     28 H           3.8088    2.6605    0.6804 H       1  LIG1        0.1222
     29 H           2.9384    1.7243    1.9259 H       1  LIG1        0.1306
     30 H           7.6394    0.3533    1.6793 H       1  LIG1        0.3313
@<TRIPOS>BOND
     1     1     2   ar
     2     1     4   ar
     3     2     6   ar
     4     3     4   ar
     5     3     5   ar
     6     4    10    1
     7     5     6   ar
     8     5    13    1
     9     6    17    1
    10     7     9    1
    11     7    13   am
    12     7    14    2
    13     8    12    1
    14     8    15    2
    15     8    16    1
    16     9    12    1
    17     9    17    1
    18    11    16    1
    19     1    18    1
    20     2    19    1
    21     3    20    1
    22     9    21    1
    23    10    22    1
    24    10    23    1
    25    10    24    1
    26    11    25    1
    27    11    26    1
    28    11    27    1
    29    12    28    1
    30    12    29    1
    31    13    30    1
