@<TRIPOS>MOLECULE
AI-204/42879130
 27 28 0 0 0
SMALL
USER_CHARGES

@<TRIPOS>ATOM
      1 C           5.9134   -3.9833    1.6229 C.ar    1  LIG1       -0.1660
      2 C           7.2685   -3.6686    1.7024 C.ar    1  LIG1       -0.1096
      3 C           4.9565   -2.9827    1.4176 C.ar    1  LIG1       -0.0558
      4 C           7.7102   -2.3481    1.5797 C.ar    1  LIG1       -0.1405
      5 C           5.6553    0.5855    1.0434 C.ar    1  LIG1        0.0409
      6 C           5.3780   -1.6442    1.2909 C.ar    1  LIG1       -0.0788
      7 C           6.7424   -1.3583    1.3747 C.ar    1  LIG1        0.1002
      8 C           4.7045   -0.4082    1.0815 C.ar    1  LIG1       -0.1607
      9 C           0.3367    0.4082   -0.8191 C.2     1  LIG1        0.4601
     10 C           3.3420    0.9959   -1.3977 C.2     1  LIG1        0.4759
     11 C           1.3527   -0.6627   -1.2406 C.3     1  LIG1       -0.1240
     12 C           2.8031   -0.3523   -0.8920 C.3     1  LIG1       -0.0877
     13 N           6.8814    0.0027    1.2209 N.ar    1  LIG1       -0.5933
     14 O           0.2500    0.5723    0.4325 O.co2   1  LIG1       -0.5000
     15 O           2.6604    2.0030   -1.0455 O.co2   1  LIG1       -0.5000
     16 O          -0.2913    0.9894   -1.7459 O.co2   1  LIG1       -0.5000
     17 O           4.4031    0.9534   -2.0823 O.co2   1  LIG1       -0.5000
     18 S           2.9836   -0.1815    0.9037 S.3     1  LIG1       -0.0416
     19 H           5.5944   -5.0176    1.7211 H       1  LIG1        0.1143
     20 H           7.9946   -4.4614    1.8632 H       1  LIG1        0.1145
     21 H           3.9048   -3.2481    1.3578 H       1  LIG1        0.1215
     22 H           8.7654   -2.1040    1.6430 H       1  LIG1        0.1112
     23 H           5.5747    1.6551    0.9049 H       1  LIG1        0.1920
     24 H           1.0355   -1.6124   -0.7899 H       1  LIG1        0.0778
     25 H           1.2463   -0.7711   -2.3284 H       1  LIG1        0.0714
     26 H           3.4606   -1.1629   -1.2255 H       1  LIG1        0.0797
     27 H           7.7614    0.4993    1.2360 H       1  LIG1        0.4092
@<TRIPOS>BOND
     1     1     2   ar
     2     1     3   ar
     3     2     4   ar
     4     3     6   ar
     5     4     7   ar
     6     5     8   ar
     7     5    13   ar
     8     6     7   ar
     9     6     8   ar
    10     7    13   ar
    11     8    18    1
    12     9    11    1
    13     9    14   ar
    14     9    16   ar
    15    10    12    1
    16    10    15   ar
    17    10    17   ar
    18    11    12    1
    19    12    18    1
    20     1    19    1
    21     2    20    1
    22     3    21    1
    23     4    22    1
    24     5    23    1
    25    11    24    1
    26    11    25    1
    27    12    26    1
    28    13    27    1
