@<TRIPOS>MOLECULE
AI-204/31682043
 30 31 0 0 0
SMALL
USER_CHARGES

@<TRIPOS>ATOM
      1 C           7.2555   -3.5840    1.0621 C.ar    1  LIG1       -0.0889
      2 C           5.9463   -4.0423    1.1785 C.ar    1  LIG1       -0.0905
      3 C           7.5307   -2.2237    1.1956 C.ar    1  LIG1       -0.0645
      4 C           4.9120   -3.1414    1.4342 C.ar    1  LIG1       -0.0771
      5 C           6.4933   -1.3128    1.4312 C.ar    1  LIG1       -0.0421
      6 C           5.1787   -1.7717    1.5597 C.ar    1  LIG1       -0.0300
      7 C           5.9500    1.1004    1.6581 C.2     1  LIG1        0.1145
      8 C           2.8793    1.1128   -0.5973 C.2     1  LIG1        0.1549
      9 C           4.5048    0.8636    1.2708 C.3     1  LIG1        0.1232
     10 C           5.2161    1.9800   -0.8653 C.3     1  LIG1       -0.0273
     11 C           0.7254    0.1650   -0.3464 C.3     1  LIG1        0.0351
     12 C           4.3402    0.8947   -0.2454 C.3     1  LIG1        0.0914
     13 N           6.8305    0.0450    1.5799 N.am    1  LIG1       -0.3037
     14 O           6.3361    2.2415    1.9293 O.2     1  LIG1       -0.4660
     15 O           2.4512    2.0549   -1.2511 O.2     1  LIG1       -0.4539
     16 O           2.1299    0.0937   -0.0808 O.3     1  LIG1       -0.3595
     17 S           3.8466   -0.6690    1.9717 S.3     1  LIG1       -0.1589
     18 H           8.0610   -4.2844    0.8622 H       1  LIG1        0.1339
     19 H           5.7280   -5.0992    1.0591 H       1  LIG1        0.1275
     20 H           8.5612   -1.8836    1.1206 H       1  LIG1        0.1326
     21 H           3.8972   -3.5229    1.5278 H       1  LIG1        0.1423
     22 H           3.9253    1.7187    1.6873 H       1  LIG1        0.1740
     23 H           4.9483    2.9668   -0.4734 H       1  LIG1        0.0535
     24 H           5.0941    2.0033   -1.9537 H       1  LIG1        0.0561
     25 H           6.2777    1.8080   -0.6550 H       1  LIG1        0.0543
     26 H           0.2238   -0.6927    0.1085 H       1  LIG1        0.0960
     27 H           0.5576    0.1682   -1.4263 H       1  LIG1        0.0945
     28 H           0.3285    1.0871    0.0847 H       1  LIG1        0.1251
     29 H           4.6502   -0.0672   -0.6715 H       1  LIG1        0.1215
     30 H           7.8238    0.2679    1.6348 H       1  LIG1        0.3319
@<TRIPOS>BOND
     1     1     2   ar
     2     1     3   ar
     3     2     4   ar
     4     3     5   ar
     5     4     6   ar
     6     5     6   ar
     7     5    13    1
     8     6    17    1
     9     7     9    1
    10     7    13   am
    11     7    14    2
    12     8    12    1
    13     8    15    2
    14     8    16    1
    15     9    12    1
    16     9    17    1
    17    10    12    1
    18    11    16    1
    19     1    18    1
    20     2    19    1
    21     3    20    1
    22     4    21    1
    23     9    22    1
    24    10    23    1
    25    10    24    1
    26    10    25    1
    27    11    26    1
    28    11    27    1
    29    11    28    1
    30    12    29    1
    31    13    30    1
