@<TRIPOS>MOLECULE
AE-473/30364041
 29 31 0 0 0
SMALL
USER_CHARGES

@<TRIPOS>ATOM
      1 C           6.1470   -4.0371    1.3973 C.ar    1  LIG1       -0.0969
      2 C           7.4485   -3.5403    1.3962 C.ar    1  LIG1       -0.0924
      3 C           5.0490   -3.1694    1.3970 C.ar    1  LIG1       -0.0891
      4 C           7.6949   -2.1644    1.3954 C.ar    1  LIG1       -0.0693
      5 C           5.2707   -1.7774    1.3952 C.ar    1  LIG1       -0.0774
      6 C           4.4242   -0.6352    1.3946 C.ar    1  LIG1       -0.1105
      7 C           6.5889   -1.3067    1.3956 C.ar    1  LIG1       -0.0615
      8 C           5.2342    0.4796    1.3997 C.ar    1  LIG1       -0.0936
      9 C           2.9445   -0.5247    1.4090 C.3     1  LIG1       -0.0798
     10 C           4.7734    1.8920    1.3778 C.3     1  LIG1       -0.0240
     11 C           3.2908    1.9683    1.7762 C.3     1  LIG1       -0.0804
     12 C           2.3092    1.1290   -0.4034 C.3     1  LIG1       -0.0862
     13 N           6.5362    0.0716    1.3965 N.ar    1  LIG1       -0.3685
     14 N           2.4629    0.8923    1.0753 N.4     1  LIG1        0.4091
     15 H           5.9805   -5.1111    1.3968 H       1  LIG1        0.1191
     16 H           8.2867   -4.2324    1.3949 H       1  LIG1        0.1294
     17 H           4.0399   -3.5715    1.3989 H       1  LIG1        0.1344
     18 H           8.7093   -1.7798    1.3944 H       1  LIG1        0.1349
     19 H           2.5062   -1.1967    0.6578 H       1  LIG1        0.1155
     20 H           2.5336   -0.7661    2.3982 H       1  LIG1        0.1142
     21 H           5.3746    2.4765    2.0853 H       1  LIG1        0.1002
     22 H           4.9096    2.3325    0.3837 H       1  LIG1        0.1110
     23 H           3.1757    1.8199    2.8620 H       1  LIG1        0.1032
     24 H           2.8429    2.9399    1.5052 H       1  LIG1        0.1000
     25 H           3.2988    1.0551   -0.8581 H       1  LIG1        0.0823
     26 H           1.6382    0.3630   -0.7965 H       1  LIG1        0.0822
     27 H           1.8882    2.1270   -0.5400 H       1  LIG1        0.0827
     28 H           7.3420    0.6823    1.3971 H       1  LIG1        0.3403
     29 H           1.4993    0.9702    1.4780 H       1  LIG1        0.1713
@<TRIPOS>BOND
     1     1     2   ar
     2     1     3   ar
     3     2     4   ar
     4     3     5   ar
     5     4     7   ar
     6     5     6   ar
     7     5     7   ar
     8     6     8   ar
     9     6     9    1
    10     7    13   ar
    11     8    10    1
    12     8    13   ar
    13     9    14    1
    14    10    11    1
    15    11    14    1
    16    12    14    1
    17     1    15    1
    18     2    16    1
    19     3    17    1
    20     4    18    1
    21     9    19    1
    22     9    20    1
    23    10    21    1
    24    10    22    1
    25    11    23    1
    26    11    24    1
    27    12    25    1
    28    12    26    1
    29    12    27    1
    30    13    28    1
    31    14    29    1
