@<TRIPOS>MOLECULE
AI-204/31683014
 27 28 0 0 0
SMALL
USER_CHARGES

@<TRIPOS>ATOM
      1 C           5.0505   -3.2989    1.4096 C.ar    1  LIG1       -0.0656
      2 C           6.1734   -4.1236    1.3329 C.ar    1  LIG1       -0.0589
      3 C           7.6025   -2.1793    1.3594 C.ar    1  LIG1       -0.0337
      4 C           6.4784   -1.3460    1.4128 C.ar    1  LIG1       -0.0322
      5 C           5.1964   -1.9067    1.4474 C.ar    1  LIG1       -0.0186
      6 C           7.4486   -3.5644    1.3107 C.ar    1  LIG1        0.0012
      7 C           5.7194    1.0212    1.3815 C.2     1  LIG1        0.1166
      8 C           2.1912    1.4880   -0.0529 C.2     1  LIG1        0.1529
      9 C           4.3780    0.5948    0.8048 C.3     1  LIG1        0.1292
     10 C           1.4925    2.0012   -2.2545 C.3     1  LIG1        0.0341
     11 C           3.3346    1.7020    0.9073 C.3     1  LIG1        0.1047
     12 N           6.6893    0.0442    1.4913 N.am    1  LIG1       -0.3008
     13 O           5.9719    2.2025    1.6303 O.2     1  LIG1       -0.4627
     14 O           1.1708    0.8577    0.1887 O.2     1  LIG1       -0.4540
     15 O           2.4869    2.1130   -1.2311 O.3     1  LIG1       -0.3638
     16 S           3.7525   -0.8857    1.6377 S.3     1  LIG1       -0.1450
     17 CL          8.8338   -4.5829    1.2317 Cl      1  LIG1       -0.1272
     18 H           4.0653   -3.7582    1.4456 H       1  LIG1        0.1545
     19 H           6.0374   -5.2017    1.3021 H       1  LIG1        0.1427
     20 H           8.5999   -1.7435    1.3496 H       1  LIG1        0.1466
     21 H           4.5350    0.3591   -0.2549 H       1  LIG1        0.1728
     22 H           1.8272    2.5331   -3.1485 H       1  LIG1        0.0972
     23 H           0.5507    2.4249   -1.8965 H       1  LIG1        0.1252
     24 H           1.3467    0.9454   -2.4946 H       1  LIG1        0.0980
     25 H           3.8087    2.6605    0.6803 H       1  LIG1        0.1315
     26 H           2.9383    1.7243    1.9258 H       1  LIG1        0.1224
     27 H           7.6394    0.3532    1.6792 H       1  LIG1        0.3329
@<TRIPOS>BOND
     1     1     2   ar
     2     1     5   ar
     3     2     6   ar
     4     3     4   ar
     5     3     6   ar
     6     4     5   ar
     7     4    12    1
     8     5    16    1
     9     6    17    1
    10     7     9    1
    11     7    12   am
    12     7    13    2
    13     8    11    1
    14     8    14    2
    15     8    15    1
    16     9    11    1
    17     9    16    1
    18    10    15    1
    19     1    18    1
    20     2    19    1
    21     3    20    1
    22     9    21    1
    23    10    22    1
    24    10    23    1
    25    10    24    1
    26    11    25    1
    27    11    26    1
    28    12    27    1
