@<TRIPOS>MOLECULE
AK-928/13228049
 20 21 0 0 0
SMALL
USER_CHARGES

@<TRIPOS>ATOM
      1 C           7.4559   -3.0976    1.5649 C.ar    1  LIG1       -0.1546
      2 C           6.5430   -4.1472    1.6498 C.ar    1  LIG1       -0.0955
      3 C           7.0185   -1.8156    1.2279 C.ar    1  LIG1       -0.0777
      4 C           5.1914   -3.9175    1.3958 C.ar    1  LIG1       -0.1492
      5 C           5.6633   -1.5789    0.9679 C.ar    1  LIG1       -0.1180
      6 C           4.7523   -2.6372    1.0492 C.ar    1  LIG1        0.1290
      7 C           5.1931   -0.2413    0.6347 C.2     1  LIG1       -0.0894
      8 C           3.9071   -0.1104    0.3017 C.2     1  LIG1       -0.1704
      9 C           3.4223    1.2268   -0.0459 C.2     1  LIG1        0.4849
     10 C           2.9486   -1.2576    0.2636 C.3     1  LIG1        0.1125
     11 O           3.5388    2.0932    0.8660 O.co2   1  LIG1       -0.5000
     12 O           2.9510    1.3398   -1.2125 O.co2   1  LIG1       -0.5000
     13 O           3.4089   -2.4933    0.8337 O.3     1  LIG1       -0.3182
     14 H           8.5082   -3.2763    1.7659 H       1  LIG1        0.1216
     15 H           6.8834   -5.1435    1.9163 H       1  LIG1        0.1243
     16 H           7.7448   -1.0081    1.1735 H       1  LIG1        0.1273
     17 H           4.4862   -4.7413    1.4677 H       1  LIG1        0.1291
     18 H           5.8876    0.5905    0.6552 H       1  LIG1        0.1396
     19 H           2.0368   -0.9874    0.8079 H       1  LIG1        0.1300
     20 H           2.6606   -1.4617   -0.7740 H       1  LIG1        0.0641
@<TRIPOS>BOND
     1     1     2   ar
     2     1     3   ar
     3     2     4   ar
     4     3     5   ar
     5     4     6   ar
     6     5     6   ar
     7     5     7    1
     8     6    13    1
     9     7     8    2
    10     8     9    1
    11     8    10    1
    12     9    11   ar
    13     9    12   ar
    14    10    13    1
    15     1    14    1
    16     2    15    1
    17     3    16    1
    18     4    17    1
    19     7    18    1
    20    10    19    1
    21    10    20    1
