@<TRIPOS>MOLECULE
AA-516/12432447
 30 31 0 0 0
SMALL
USER_CHARGES

@<TRIPOS>ATOM
      1 C           7.7038   -2.4009    1.7262 C.ar    1  LIG1       -0.0638
      2 C           7.4638   -3.7696    1.5916 C.ar    1  LIG1       -0.0551
      3 C           5.1314   -3.3443    1.1279 C.ar    1  LIG1       -0.0649
      4 C           5.0251    0.3691    1.3342 C.ar    1  LIG1       -0.0341
      5 C           5.3423   -1.9503    1.2580 C.ar    1  LIG1       -0.0823
      6 C           4.4266   -0.8520    1.1333 C.ar    1  LIG1       -0.1047
      7 C           6.6325   -1.5019    1.5565 C.ar    1  LIG1       -0.0263
      8 C           6.1920   -4.2387    1.2955 C.ar    1  LIG1       -0.0028
      9 C           0.7190   -0.8786   -1.1381 C.3     1  LIG1       -0.0926
     10 C           0.0755   -0.4981    1.2371 C.3     1  LIG1       -0.0921
     11 C           2.9833   -1.0047    0.8216 C.3     1  LIG1       -0.0524
     12 C           2.2845    0.2933    0.4037 C.3     1  LIG1       -0.0967
     13 N           0.8659    0.0238    0.0624 N.4     1  LIG1        0.4093
     14 S           6.6885    0.2176    1.6741 S.2     1  LIG1       -0.1187
     15 CL          5.9165   -5.9307    1.1333 Cl      1  LIG1       -0.1325
     16 H           8.7029   -2.0425    1.9580 H       1  LIG1        0.1533
     17 H           8.2930   -4.4611    1.7233 H       1  LIG1        0.1536
     18 H           4.1359   -3.7167    0.8958 H       1  LIG1        0.1358
     19 H           4.5645    1.3467    1.2969 H       1  LIG1        0.1824
     20 H           1.1740   -1.8396   -0.8911 H       1  LIG1        0.0791
     21 H          -0.3473   -0.9903   -1.3437 H       1  LIG1        0.0798
     22 H           1.2330   -0.4052   -1.9769 H       1  LIG1        0.0778
     23 H           0.5155   -1.4503    1.5391 H       1  LIG1        0.0792
     24 H           0.1444    0.2384    2.0399 H       1  LIG1        0.0805
     25 H          -0.9585   -0.6292    0.9123 H       1  LIG1        0.0800
     26 H           2.8615   -1.7289   -0.0023 H       1  LIG1        0.0814
     27 H           2.4373   -1.4498    1.6714 H       1  LIG1        0.0790
     28 H           2.7410    0.7202   -0.4942 H       1  LIG1        0.0920
     29 H           2.2833    1.0428    1.2010 H       1  LIG1        0.0924
     30 H           0.4275    0.9231   -0.2005 H       1  LIG1        0.1636
@<TRIPOS>BOND
     1     1     2   ar
     2     1     7   ar
     3     2     8   ar
     4     3     5   ar
     5     3     8   ar
     6     4     6   ar
     7     4    14   ar
     8     5     6   ar
     9     5     7   ar
    10     6    11    1
    11     7    14   ar
    12     8    15    1
    13     9    13    1
    14    10    13    1
    15    11    12    1
    16    12    13    1
    17     1    16    1
    18     2    17    1
    19     3    18    1
    20     4    19    1
    21     9    20    1
    22     9    21    1
    23     9    22    1
    24    10    23    1
    25    10    24    1
    26    10    25    1
    27    11    26    1
    28    11    27    1
    29    12    28    1
    30    12    29    1
    31    13    30    1
