@<TRIPOS>MOLECULE
AE-473/30364030
 39 40 0 0 0
SMALL
USER_CHARGES

@<TRIPOS>ATOM
      1 C           5.0484   -3.1644    1.3959 C.ar    1  LIG1       -0.0937
      2 C           6.1443   -4.0350    1.3961 C.ar    1  LIG1       -0.1011
      3 C           7.6970   -2.1660    1.3965 C.ar    1  LIG1       -0.0756
      4 C           5.2309    0.4863    1.3966 C.ar    1  LIG1       -0.0755
      5 C           5.2754   -1.7737    1.3961 C.ar    1  LIG1       -0.0802
      6 C           7.4474   -3.5413    1.3965 C.ar    1  LIG1       -0.1104
      7 C           4.4277   -0.6307    1.3960 C.ar    1  LIG1       -0.0943
      8 C           6.5918   -1.3075    1.3964 C.ar    1  LIG1       -0.0678
      9 C           8.5965   -4.4943    1.3950 C.3     1  LIG1       -0.0415
     10 C           0.8410    3.2506    2.1115 C.3     1  LIG1       -0.0714
     11 C          -1.3416    2.2099    1.4705 C.3     1  LIG1       -0.0723
     12 C           2.9183   -0.6320    1.3964 C.3     1  LIG1       -0.0063
     13 C           0.8096    0.8324    1.4225 C.3     1  LIG1       -0.0277
     14 C           0.1644    2.2193    1.2033 C.3     1  LIG1       -0.0768
     15 C           2.3130    0.7511    1.1236 C.3     1  LIG1        0.0818
     16 N           6.5345    0.0679    1.3965 N.ar    1  LIG1       -0.3715
     17 N           2.5007    1.0079   -0.3252 N.pl3   1  LIG1       -0.0815
     18 O           3.2021    1.9776   -0.6442 O.2     1  LIG1       -0.1719
     19 O           1.9562    0.2218   -1.1124 O.2     1  LIG1       -0.2647
     20 H           4.0382   -3.5635    1.3943 H       1  LIG1        0.1243
     21 H           5.9646   -5.1076    1.3950 H       1  LIG1        0.1139
     22 H           8.7096   -1.7748    1.3954 H       1  LIG1        0.1220
     23 H           4.9940    1.5412    1.3976 H       1  LIG1        0.1940
     24 H           8.8891   -4.7359    0.3664 H       1  LIG1        0.0581
     25 H           9.4648   -4.0700    1.9145 H       1  LIG1        0.0557
     26 H           8.3395   -5.4268    1.9131 H       1  LIG1        0.0537
     27 H           0.7160    2.9928    3.1688 H       1  LIG1        0.0352
     28 H           1.9140    3.3103    1.9007 H       1  LIG1        0.0365
     29 H           0.4154    4.2473    1.9531 H       1  LIG1        0.0349
     30 H          -1.5608    1.8973    2.4972 H       1  LIG1        0.0345
     31 H          -1.8642    1.5333    0.7883 H       1  LIG1        0.0312
     32 H          -1.7684    3.2082    1.3236 H       1  LIG1        0.0360
     33 H           2.5446   -1.3623    0.6654 H       1  LIG1        0.0926
     34 H           2.5847   -1.0078    2.3742 H       1  LIG1        0.1010
     35 H           0.2794    0.1074    0.7921 H       1  LIG1        0.0714
     36 H           0.6303    0.5231    2.4617 H       1  LIG1        0.0793
     37 H           0.3280    2.5378    0.1667 H       1  LIG1        0.0428
     38 H           2.8776    1.5335    1.6383 H       1  LIG1        0.1552
     39 H           7.3387    0.6802    1.3961 H       1  LIG1        0.3300
@<TRIPOS>BOND
     1     1     2   ar
     2     1     5   ar
     3     2     6   ar
     4     3     6   ar
     5     3     8   ar
     6     4     7   ar
     7     4    16   ar
     8     5     7   ar
     9     5     8   ar
    10     6     9    1
    11     7    12    1
    12     8    16   ar
    13    10    14    1
    14    11    14    1
    15    12    15    1
    16    13    14    1
    17    13    15    1
    18    15    17    1
    19    17    18    1
    20    17    19    2
    21     1    20    1
    22     2    21    1
    23     3    22    1
    24     4    23    1
    25     9    24    1
    26     9    25    1
    27     9    26    1
    28    10    27    1
    29    10    28    1
    30    10    29    1
    31    11    30    1
    32    11    31    1
    33    11    32    1
    34    12    33    1
    35    12    34    1
    36    13    35    1
    37    13    36    1
    38    14    37    1
    39    15    38    1
    40    16    39    1
