# Name:		AG-777/36178014
# Created and modified by SHAFTS on Sun Jan  8 14:48:48 2012

# 

@<TRIPOS>MOLECULE
AG-777/36178014
   27    28     0
SMALL
USER_CHARGE


@<TRIPOS>ATOM
      1 C1          6.2456   -3.8986    1.5817 C.ar      1 <1>        -0.1045
      2 C2          7.4966   -3.2953    1.4698 C.ar      1 <1>        -0.1015
      3 C3          5.0739   -3.1362    1.5125 C.ar      1 <1>        -0.0948
      4 C4          7.6173   -1.9149    1.2855 C.ar      1 <1>        -0.0797
      5 C5          4.9161    0.4852    1.0421 C.2       1 <1>        -0.0777
      6 C6          5.1705   -1.7428    1.3272 C.ar      1 <1>        -0.0780
      7 C7          4.2205   -0.6894    1.2140 C.2       1 <1>        -0.0964
      8 C8          6.4374   -1.1654    1.2183 C.ar      1 <1>        -0.0718
      9 C9          2.3302    0.8360   -0.6190 C.2       1 <1>         0.0373
     10 C10         2.0019   -0.2007   -1.6403 C.3       1 <1>         0.0204
     11 C11         2.7504   -0.8208    1.2711 C.3       1 <1>        -0.0294
     12 C12         2.0209    0.4545    0.8127 C.3       1 <1>         0.0244
     13 N1          6.2525    0.1879    1.0458 N.pl3     1 <1>        -0.3767
     14 O1          2.8179    1.9040   -0.9660 O.2       1 <1>        -0.4818
     15 H1          6.1774   -4.9737    1.7239 H         1 <1>         0.1100
     16 H2          8.3937   -3.9064    1.5265 H         1 <1>         0.1203
     17 H3          4.1060   -3.6217    1.6005 H         1 <1>         0.1245
     18 H4          8.5917   -1.4459    1.1996 H         1 <1>         0.1184
     19 H5          4.5810    1.5055    0.9160 H         1 <1>         0.1881
     20 H6          0.9754   -0.1026   -2.0268 H         1 <1>         0.0681
     21 H7          2.6569   -0.1443   -2.5239 H         1 <1>         0.0673
     22 H8          2.0830   -1.2377   -1.2792 H         1 <1>         0.0754
     23 H9          2.4050   -1.6733    0.6532 H         1 <1>         0.0719
     24 H10         2.4152   -1.0774    2.2957 H         1 <1>         0.0712
     25 H11         2.3060    1.2945    1.4573 H         1 <1>         0.0813
     26 H12         0.9371    0.3115    0.8987 H         1 <1>         0.0888
     27 H13         6.9963    0.8636    0.9376 H         1 <1>         0.3249
@<TRIPOS>BOND
     1    1    2 ar
     2    1    3 ar
     3    2    4 ar
     4    3    6 ar
     5    4    8 ar
     6    5    7 2
     7    5   13 1
     8    6    7 1
     9    6    8 ar
    10    7   11 1
    11    8   13 1
    12    9   10 1
    13    9   12 1
    14    9   14 2
    15   11   12 1
    16    1   15 1
    17    2   16 1
    18    3   17 1
    19    4   18 1
    20    5   19 1
    21   10   20 1
    22   10   21 1
    23   10   22 1
    24   11   23 1
    25   11   24 1
    26   12   25 1
    27   12   26 1
    28   13   27 1
@<TRIPOS>Similarity
1.6687
@<TRIPOS>ShapeSim
0.9369
@<TRIPOS>PharmSim
0.7319
# END
# Name:		ZINC04294565
# Created and modified by SHAFTS on Sun Jan  8 14:48:48 2012

# 

@<TRIPOS>MOLECULE
ZINC04294565
   27    28     0
SMALL
USER_CHARGE


@<TRIPOS>ATOM
      1 C1          5.9560   -4.0266    1.6628 C.ar      1 <1>        -0.1558
      2 C2          7.2789   -3.6829    1.9336 C.ar      1 <1>        -0.1036
      3 C3          5.0159   -3.0463    1.3251 C.ar      1 <1>        -0.0627
      4 C4          7.7043   -2.3526    1.8758 C.ar      1 <1>        -0.1373
      5 C5          5.6817    0.5378    1.0568 C.2       1 <1>         0.0384
      6 C6          5.4214   -1.6984    1.2606 C.ar      1 <1>        -0.1026
      7 C7          4.7572   -0.4765    0.9591 C.2       1 <1>        -0.1397
      8 C8          6.7536   -1.3833    1.5369 C.ar      1 <1>         0.0941
      9 C9          3.0326    2.2270    0.1057 C.2       1 <1>         0.4606
     10 C10         3.0825   -0.4868   -0.9132 C.3       1 <1>        -0.1392
     11 C11         2.7173    1.0481    1.0358 C.3       1 <1>        -0.1471
     12 C12         3.3323   -0.3138    0.6055 C.3       1 <1>        -0.0029
     13 N1          6.8829   -0.0189    1.4055 N.pl3     1 <1>        -0.5993
     14 O1          2.5855    2.0984   -1.0702 O.co2     1 <1>        -0.5000
     15 O2          3.7062    3.1683    0.6080 O.co2     1 <1>        -0.5000
     16 H1          5.6492   -5.0678    1.7137 H         1 <1>         0.1187
     17 H2          7.9924   -4.4604    2.1941 H         1 <1>         0.1197
     18 H3          3.9885   -3.3305    1.1158 H         1 <1>         0.1230
     19 H4          8.7341   -2.0858    2.0879 H         1 <1>         0.1143
     20 H5          5.5939    1.6053    0.9082 H         1 <1>         0.1675
     21 H6          3.6427    0.2424   -1.5086 H         1 <1>         0.0387
     22 H7          2.0207   -0.3710   -1.1572 H         1 <1>         0.0844
     23 H8          3.3913   -1.4880   -1.2343 H         1 <1>         0.0373
     24 H9          1.6219    0.9801    1.0768 H         1 <1>         0.0617
     25 H10         3.0479    1.3012    2.0511 H         1 <1>         0.0606
     26 H11         2.7156   -1.1020    1.0919 H         1 <1>         0.0756
     27 H12         7.7408    0.4964    1.5464 H         1 <1>         0.4112
@<TRIPOS>BOND
     1    1    2 ar
     2    1    3 ar
     3    2    4 ar
     4    3    6 ar
     5    4    8 ar
     6    5    7 2
     7    5   13 1
     8    6    7 1
     9    6    8 ar
    10    7   12 1
    11    8   13 1
    12    9   11 1
    13    9   14 1
    14    9   15 2
    15   10   12 1
    16   11   12 1
    17    1   16 1
    18    2   17 1
    19    3   18 1
    20    4   19 1
    21    5   20 1
    22   10   21 1
    23   10   22 1
    24   10   23 1
    25   11   24 1
    26   11   25 1
    27   12   26 1
    28   13   27 1
@<TRIPOS>Similarity
1.6190
@<TRIPOS>ShapeSim
0.9065
@<TRIPOS>PharmSim
0.7125
# END
# Name:		ZINC04294564
# Created and modified by SHAFTS on Sun Jan  8 14:48:48 2012

# 

@<TRIPOS>MOLECULE
ZINC04294564
   27    28     0
SMALL
USER_CHARGE


@<TRIPOS>ATOM
      1 C1          5.9017   -3.9281    0.9463 C.ar      1 <1>        -0.1558
      2 C2          7.1992   -3.6529    1.3735 C.ar      1 <1>        -0.1036
      3 C3          4.9402   -2.9135    0.8763 C.ar      1 <1>        -0.0628
      4 C4          7.5770   -2.3589    1.7435 C.ar      1 <1>        -0.1373
      5 C5          5.4830    0.5960    1.7423 C.2       1 <1>         0.0385
      6 C6          5.2978   -1.6012    1.2442 C.ar      1 <1>        -0.1026
      7 C7          4.6013   -0.3613    1.2958 C.2       1 <1>        -0.1397
      8 C8          6.6053   -1.3547    1.6685 C.ar      1 <1>         0.0940
      9 C9          3.1206    2.2742   -0.0634 C.2       1 <1>         0.4606
     10 C10         2.2287   -1.0379    1.7507 C.3       1 <1>        -0.1392
     11 C11         2.7253    1.3456    1.0924 C.3       1 <1>        -0.1471
     12 C12         3.1866   -0.1315    0.9385 C.3       1 <1>        -0.0029
     13 N1          6.6891   -0.0127    1.9642 N.pl3     1 <1>        -0.5992
     14 O1          2.6196    1.9593   -1.1809 O.co2     1 <1>        -0.5000
     15 O2          3.9021    3.2218    0.2256 O.co2     1 <1>        -0.5000
     16 H1          5.6320   -4.9420    0.6633 H         1 <1>         0.1187
     17 H2          7.9300   -4.4561    1.4203 H         1 <1>         0.1197
     18 H3          3.9332   -3.1440    0.5403 H         1 <1>         0.1230
     19 H4          8.5870   -2.1458    2.0770 H         1 <1>         0.1143
     20 H5          5.3617    1.6555    1.9207 H         1 <1>         0.1675
     21 H6          2.3144   -0.8662    2.8291 H         1 <1>         0.0373
     22 H7          2.4317   -2.0984    1.5650 H         1 <1>         0.0844
     23 H8          1.1898   -0.8417    1.4627 H         1 <1>         0.0386
     24 H9          1.6310    1.4017    1.1645 H         1 <1>         0.0616
     25 H10         3.1170    1.7617    2.0294 H         1 <1>         0.0607
     26 H11         3.0024   -0.4020   -0.1250 H         1 <1>         0.0756
     27 H12         7.5210    0.4548    2.2969 H         1 <1>         0.4112
@<TRIPOS>BOND
     1    1    2 ar
     2    1    3 ar
     3    2    4 ar
     4    3    6 ar
     5    4    8 ar
     6    5    7 2
     7    5   13 1
     8    6    7 1
     9    6    8 ar
    10    7   12 1
    11    8   13 1
    12    9   11 1
    13    9   14 1
    14    9   15 2
    15   10   12 1
    16   11   12 1
    17    1   16 1
    18    2   17 1
    19    3   18 1
    20    4   19 1
    21    5   20 1
    22   10   21 1
    23   10   22 1
    24   10   23 1
    25   11   24 1
    26   11   25 1
    27   12   26 1
    28   13   27 1
@<TRIPOS>Similarity
1.5999
@<TRIPOS>ShapeSim
0.9129
@<TRIPOS>PharmSim
0.6870
# END
# Name:		AK-968/40721996
# Created and modified by SHAFTS on Sun Jan  8 14:48:48 2012

# 

@<TRIPOS>MOLECULE
AK-968/40721996
   38    39     0
SMALL
USER_CHARGE


@<TRIPOS>ATOM
      1 C1          6.0226   -4.0212    1.4552 C.ar      1 <1>        -0.0982
      2 C2          7.3663   -3.6527    1.4371 C.ar      1 <1>        -0.0928
      3 C3          5.0135   -3.0518    1.4280 C.ar      1 <1>        -0.0952
      4 C4          7.7442   -2.3076    1.3914 C.ar      1 <1>        -0.0729
      5 C5          5.5383    0.5635    1.3077 C.2       1 <1>        -0.0801
      6 C6          5.3702   -1.6894    1.3818 C.ar      1 <1>        -0.0857
      7 C7          4.6337   -0.4724    1.3453 C.2       1 <1>        -0.1039
      8 C8          6.7246   -1.3495    1.3646 C.ar      1 <1>        -0.0688
      9 C9          2.9737    1.2905   -0.6249 C.2       1 <1>         0.0609
     10 C10         4.2142    1.2680   -4.4270 C.3       1 <1>        -0.0644
     11 C11         3.1357   -0.3310    1.3487 C.3       1 <1>        -0.0293
     12 C12         4.0933    2.4768   -3.5098 C.3       1 <1>        -0.0526
     13 C13         4.6973    2.2334   -2.1320 C.3       1 <1>        -0.0328
     14 C14         2.5023   -0.0206   -0.0158 C.3       1 <1>        -0.0067
     15 N1          6.7968    0.0245    1.3194 N.pl3     1 <1>        -0.3719
     16 N2          4.0771    1.1242   -1.4481 N.am      1 <1>        -0.3520
     17 N3          1.0161   -0.0366    0.1062 N.4       1 <1>         0.4615
     18 O1          2.4240    2.3662   -0.3973 O.2       1 <1>        -0.4874
     19 H1          5.7536   -5.0735    1.4904 H         1 <1>         0.1205
     20 H2          8.1337   -4.4222    1.4589 H         1 <1>         0.1308
     21 H3          3.9706   -3.3554    1.4417 H         1 <1>         0.1237
     22 H4          8.7904   -2.0216    1.3784 H         1 <1>         0.1274
     23 H5          5.4005    1.6354    1.2722 H         1 <1>         0.1929
     24 H6          5.2627    0.9884   -4.5710 H         1 <1>         0.0351
     25 H7          3.6923    0.4105   -3.9905 H         1 <1>         0.0396
     26 H8          3.7720    1.4659   -5.4082 H         1 <1>         0.0348
     27 H9          2.8597    0.4578    2.0616 H         1 <1>         0.1052
     28 H10         2.6868   -1.2497    1.7512 H         1 <1>         0.0932
     29 H11         3.0316    2.7227   -3.3925 H         1 <1>         0.0527
     30 H12         4.5755    3.3392   -3.9852 H         1 <1>         0.0522
     31 H13         5.7617    1.9964   -2.2262 H         1 <1>         0.1013
     32 H14         4.6003    3.1173   -1.4938 H         1 <1>         0.1019
     33 H15         2.7395   -0.8303   -0.7162 H         1 <1>         0.1455
     34 H16         7.6552    0.5576    1.2981 H         1 <1>         0.3358
     35 H17         4.4609    0.1922   -1.5738 H         1 <1>         0.3083
     36 H18         0.6957    0.7350    0.6961 H         1 <1>         0.1569
     37 H19         0.7001   -0.9150    0.5248 H         1 <1>         0.1567
     38 H20         0.5792    0.0578   -0.8139 H         1 <1>         0.1573
@<TRIPOS>BOND
     1    1    2 ar
     2    1    3 ar
     3    2    4 ar
     4    3    6 ar
     5    4    8 ar
     6    5    7 2
     7    5   15 1
     8    6    7 1
     9    6    8 ar
    10    7   11 1
    11    8   15 1
    12    9   14 1
    13    9   16 am
    14    9   18 2
    15   10   12 1
    16   11   14 1
    17   12   13 1
    18   13   16 1
    19   14   17 1
    20    1   19 1
    21    2   20 1
    22    3   21 1
    23    4   22 1
    24    5   23 1
    25   10   24 1
    26   10   25 1
    27   10   26 1
    28   11   27 1
    29   11   28 1
    30   12   29 1
    31   12   30 1
    32   13   31 1
    33   13   32 1
    34   14   33 1
    35   15   34 1
    36   16   35 1
    37   17   36 1
    38   17   37 1
    39   17   38 1
@<TRIPOS>Similarity
1.5972
@<TRIPOS>ShapeSim
0.8861
@<TRIPOS>PharmSim
0.7111
# END
# Name:		AF-399/09976012
# Created and modified by SHAFTS on Sun Jan  8 14:48:48 2012

# 

@<TRIPOS>MOLECULE
AF-399/09976012
   34    36     0
SMALL
USER_CHARGE


@<TRIPOS>ATOM
      1 C1          6.7911   -4.0398    1.0936 C.ar      1 <1>        -0.1314
      2 C2          7.9796   -3.3312    0.9285 C.ar      1 <1>        -0.0897
      3 C3          5.5873   -3.3711    1.3436 C.ar      1 <1>        -0.0729
      4 C4          8.0038   -1.9358    1.0077 C.ar      1 <1>        -0.1297
      5 C5          5.1846    0.2504    1.6310 C.2       1 <1>         0.1010
      6 C6          5.5870   -1.9646    1.4279 C.ar      1 <1>        -0.0962
      7 C7          4.5812   -0.9856    1.6620 C.2       1 <1>        -0.2376
      8 C8          6.7928   -1.2808    1.2583 C.ar      1 <1>         0.0934
      9 C9          2.7595    1.7661    0.1106 C.2       1 <1>         0.4607
     10 C10         0.0392   -0.1308    0.1662 C.3       1 <1>        -0.1408
     11 C11         0.5151    1.0963    0.9239 C.3       1 <1>        -0.1166
     12 C12         0.8789   -1.2390    0.7597 C.3       1 <1>        -0.0056
     13 C13         2.0176    0.8945    1.1020 C.3       1 <1>        -0.0232
     14 C14         3.1228   -1.2427    1.9025 C.3       1 <1>         0.0926
     15 N1          6.5185    0.0621    1.3867 N.pl3     1 <1>        -0.5847
     16 N2          2.2385   -0.5961    0.8854 N.4       1 <1>        -0.3797
     17 O1          2.4828    1.5577   -1.1031 O.co2     1 <1>        -0.5000
     18 O2          3.5624    2.5921    0.6286 O.co2     1 <1>        -0.5000
     19 H1          6.7975   -5.1245    1.0270 H         1 <1>         0.1293
     20 H2          8.9031   -3.8709    0.7351 H         1 <1>         0.1300
     21 H3          4.6691   -3.9379    1.4690 H         1 <1>         0.1373
     22 H4          8.9296   -1.3852    0.8803 H         1 <1>         0.1233
     23 H5          4.7854    1.2472    1.7592 H         1 <1>         0.1768
     24 H6         -1.0325   -0.3087    0.2903 H         1 <1>         0.1034
     25 H7          0.2475   -0.0222   -0.9049 H         1 <1>         0.0928
     26 H8          0.2521    2.0206    0.3990 H         1 <1>         0.0912
     27 H9          0.0319    1.1288    1.9085 H         1 <1>         0.1127
     28 H10         0.5386   -1.5165    1.7632 H         1 <1>         0.1170
     29 H11         0.9665   -2.1201    0.1187 H         1 <1>         0.1195
     30 H12         2.3285    1.1541    2.1199 H         1 <1>         0.1380
     31 H13         2.9001   -2.3148    1.8766 H         1 <1>         0.1232
     32 H14         2.8096   -0.8605    2.8801 H         1 <1>         0.1295
     33 H15         7.2034    0.8016    1.3114 H         1 <1>         0.4225
     34 H16         2.7011   -0.7074   -0.0275 H         1 <1>         0.4318
@<TRIPOS>BOND
     1    1    2 ar
     2    1    3 ar
     3    2    4 ar
     4    3    6 ar
     5    4    8 ar
     6    5    7 2
     7    5   15 1
     8    6    7 1
     9    6    8 ar
    10    7   14 1
    11    8   15 1
    12    9   13 1
    13    9   17 1
    14    9   18 2
    15   10   11 1
    16   10   12 1
    17   11   13 1
    18   12   16 1
    19   13   16 1
    20   14   16 1
    21    1   19 1
    22    2   20 1
    23    3   21 1
    24    4   22 1
    25    5   23 1
    26   10   24 1
    27   10   25 1
    28   11   26 1
    29   11   27 1
    30   12   28 1
    31   12   29 1
    32   13   30 1
    33   14   31 1
    34   14   32 1
    35   15   33 1
    36   16   34 1
@<TRIPOS>Similarity
1.5788
@<TRIPOS>ShapeSim
0.8830
@<TRIPOS>PharmSim
0.6959
# END
# Name:		AE-641/00364007
# Created and modified by SHAFTS on Sun Jan  8 14:48:48 2012

# 

@<TRIPOS>MOLECULE
AE-641/00364007
   26    27     0
SMALL
USER_CHARGE


@<TRIPOS>ATOM
      1 C1          5.9247   -3.8911    1.0867 C.ar      1 <1>        -0.1689
      2 C2          7.2431   -3.4962    1.3044 C.ar      1 <1>        -0.1213
      3 C3          4.8897   -2.9492    1.0610 C.ar      1 <1>        -0.0624
      4 C4          7.5694   -2.1516    1.5028 C.ar      1 <1>        -0.1342
      5 C5          5.1944   -1.5878    1.2586 C.ar      1 <1>        -0.1000
      6 C6          4.4208   -0.3940    1.2963 C.2       1 <1>        -0.1286
      7 C7          6.5245   -1.2211    1.4746 C.ar      1 <1>         0.0780
      8 C8          5.2802    0.6547    1.5303 C.2       1 <1>         0.0295
      9 C9          4.9085    2.1313    1.6550 C.2       1 <1>         0.5409
     10 C10         3.1089    0.6250   -1.3107 C.2       1 <1>         0.4969
     11 C11         2.9563   -0.3004    1.1168 C.3       1 <1>        -0.0204
     12 C12         2.5202   -0.4145   -0.3513 C.3       1 <1>        -0.1608
     13 N1          6.5469    0.1459    1.6362 N.pl3     1 <1>        -0.5695
     14 O1          5.8568    2.9350    1.8722 O.co2     1 <1>        -0.5000
     15 O2          2.7804    1.8172   -1.0430 O.co2     1 <1>        -0.5000
     16 O3          3.6859    2.4175    1.5303 O.co2     1 <1>        -0.5000
     17 O4          3.8410    0.1877   -2.2401 O.co2     1 <1>        -0.5000
     18 H1          5.6955   -4.9425    0.9351 H         1 <1>         0.1092
     19 H2          8.0317   -4.2447    1.3212 H         1 <1>         0.1103
     20 H3          3.8669   -3.2729    0.8905 H         1 <1>         0.1177
     21 H4          8.5965   -1.8457    1.6721 H         1 <1>         0.1074
     22 H5          2.4409   -1.0844    1.7018 H         1 <1>         0.0921
     23 H6          2.5729    0.6516    1.5278 H         1 <1>         0.0465
     24 H7          1.4268   -0.3373   -0.4117 H         1 <1>         0.0399
     25 H8          2.7897   -1.4075   -0.7337 H         1 <1>         0.0583
     26 H9          7.3794    0.6928    1.8073 H         1 <1>         0.4129
@<TRIPOS>BOND
     1    1    2 ar
     2    1    3 ar
     3    2    4 ar
     4    3    5 ar
     5    4    7 ar
     6    5    6 1
     7    5    7 ar
     8    6    8 2
     9    6   11 1
    10    7   13 1
    11    8    9 1
    12    8   13 1
    13    9   14 1
    14    9   16 2
    15   10   12 1
    16   10   15 1
    17   10   17 2
    18   11   12 1
    19    1   18 1
    20    2   19 1
    21    3   20 1
    22    4   21 1
    23   11   22 1
    24   11   23 1
    25   12   24 1
    26   12   25 1
    27   13   26 1
@<TRIPOS>Similarity
1.5700
@<TRIPOS>ShapeSim
0.8643
@<TRIPOS>PharmSim
0.7057
# END
# Name:		AD-266/41884718
# Created and modified by SHAFTS on Sun Jan  8 14:48:48 2012

# 

@<TRIPOS>MOLECULE
AD-266/41884718
   34    35     0
SMALL
USER_CHARGE


@<TRIPOS>ATOM
      1 C1          5.8285   -4.0060    1.3152 C.ar      1 <1>        -0.1012
      2 C2          7.1943   -3.7319    1.3510 C.ar      1 <1>        -0.0957
      3 C3          4.8891   -2.9685    1.3290 C.ar      1 <1>        -0.0967
      4 C4          7.6644   -2.4165    1.4017 C.ar      1 <1>        -0.0747
      5 C5          5.6633    0.6015    1.4569 C.2       1 <1>        -0.0740
      6 C6          5.3394   -1.6343    1.3799 C.ar      1 <1>        -0.0832
      7 C7          4.6891   -0.3688    1.4066 C.2       1 <1>        -0.1007
      8 C8          6.7139   -1.3896    1.4150 C.ar      1 <1>        -0.0690
      9 C9          1.3057    2.3447   -0.0700 C.3       1 <1>        -0.0695
     10 C10         0.3965   -0.2523   -1.2028 C.3       1 <1>        -0.0926
     11 C11         3.2321   -0.1278    1.3863 C.3       1 <1>        -0.0546
     12 C12         0.7699    1.2124    0.7787 C.3       1 <1>        -0.1084
     13 C13         2.5700   -0.3183    0.0143 C.3       1 <1>        -0.0961
     14 N1          6.8812   -0.0239    1.4613 N.pl3     1 <1>        -0.3706
     15 N2          1.1057   -0.1036    0.1209 N.4       1 <1>         0.4063
     16 H1          5.4873   -5.0369    1.2755 H         1 <1>         0.1166
     17 H2          7.9063   -4.5531    1.3397 H         1 <1>         0.1275
     18 H3          3.8279   -3.1985    1.2996 H         1 <1>         0.1197
     19 H4          8.7277   -2.2043    1.4307 H         1 <1>         0.1257
     20 H5          5.6002    1.6806    1.4883 H         1 <1>         0.1970
     21 H6          2.3952    2.2768   -0.1465 H         1 <1>         0.0634
     22 H7          0.8925    2.3096   -1.0834 H         1 <1>         0.0455
     23 H8          1.0570    3.3180    0.3657 H         1 <1>         0.0454
     24 H9          0.7831    0.5143   -1.8767 H         1 <1>         0.0782
     25 H10         0.6074   -1.2532   -1.5843 H         1 <1>         0.0780
     26 H11        -0.6723   -0.1167   -1.0263 H         1 <1>         0.0782
     27 H12         2.7298   -0.8168    2.0911 H         1 <1>         0.0788
     28 H13         2.9827    0.8824    1.7625 H         1 <1>         0.0787
     29 H14        -0.3187    1.2566    0.8715 H         1 <1>         0.0847
     30 H15         1.2265    1.2007    1.7722 H         1 <1>         0.0859
     31 H16         2.7047   -1.3375   -0.3600 H         1 <1>         0.0916
     32 H17         2.9427    0.3928   -0.7291 H         1 <1>         0.0907
     33 H18         7.7743    0.4480    1.4939 H         1 <1>         0.3331
     34 H19         0.7201   -0.8402    0.7363 H         1 <1>         0.1619
@<TRIPOS>BOND
     1    1    2 ar
     2    1    3 ar
     3    2    4 ar
     4    3    6 ar
     5    4    8 ar
     6    5    7 2
     7    5   14 1
     8    6    7 1
     9    6    8 ar
    10    7   11 1
    11    8   14 1
    12    9   12 1
    13   10   15 1
    14   11   13 1
    15   12   15 1
    16   13   15 1
    17    1   16 1
    18    2   17 1
    19    3   18 1
    20    4   19 1
    21    5   20 1
    22    9   21 1
    23    9   22 1
    24    9   23 1
    25   10   24 1
    26   10   25 1
    27   10   26 1
    28   11   27 1
    29   11   28 1
    30   12   29 1
    31   12   30 1
    32   13   31 1
    33   13   32 1
    34   14   33 1
    35   15   34 1
@<TRIPOS>Similarity
1.5651
@<TRIPOS>ShapeSim
0.8883
@<TRIPOS>PharmSim
0.6768
# END
# Name:		AH-357/02166042
# Created and modified by SHAFTS on Sun Jan  8 14:48:48 2012

# 

@<TRIPOS>MOLECULE
AH-357/02166042
   29    30     0
SMALL
USER_CHARGE


@<TRIPOS>ATOM
      1 C1          6.2703   -3.9581    1.5727 C.ar      1 <1>        -0.1048
      2 C2          7.5280   -3.3616    1.5112 C.ar      1 <1>        -0.1021
      3 C3          5.1062   -3.1853    1.4909 C.ar      1 <1>        -0.0945
      4 C4          7.6633   -1.9779    1.3664 C.ar      1 <1>        -0.0801
      5 C5          4.9865    0.4481    1.1108 C.2       1 <1>        -0.0781
      6 C6          5.2176   -1.7883    1.3447 C.ar      1 <1>        -0.0774
      7 C7          4.2783   -0.7252    1.2327 C.2       1 <1>        -0.0971
      8 C8          6.4909   -1.2180    1.2860 C.ar      1 <1>        -0.0719
      9 C9          2.0180    1.0001   -1.0886 C.2       1 <1>         0.0437
     10 C10         2.8063   -0.8468    1.2456 C.3       1 <1>        -0.0448
     11 C11         2.5573   -0.4064   -1.2702 C.3       1 <1>         0.0385
     12 C12         2.2383   -1.3392   -0.1030 C.3       1 <1>        -0.0351
     13 N1          6.3202    0.1407    1.1437 N.pl3     1 <1>        -0.3772
     14 N2          0.6460    1.0221   -0.9559 N.am      1 <1>        -0.3626
     15 O1          2.7223    2.0044   -1.0419 O.2       1 <1>        -0.5062
     16 H1          6.1907   -5.0360    1.6850 H         1 <1>         0.1091
     17 H2          8.4190   -3.9809    1.5768 H         1 <1>         0.1196
     18 H3          4.1330   -3.6655    1.5395 H         1 <1>         0.1246
     19 H4          8.6429   -1.5143    1.3197 H         1 <1>         0.1178
     20 H5          4.6621    1.4739    1.0020 H         1 <1>         0.1869
     21 H6          2.4792   -1.5295    2.0533 H         1 <1>         0.0664
     22 H7          2.3328    0.1231    1.4964 H         1 <1>         0.0661
     23 H8          2.0995   -0.8090   -2.1821 H         1 <1>         0.0942
     24 H9          3.6399   -0.3616   -1.4370 H         1 <1>         0.0944
     25 H10         2.6648   -2.3267   -0.3216 H         1 <1>         0.0552
     26 H11         1.1536   -1.4814   -0.0168 H         1 <1>         0.0563
     27 H12         7.0713    0.8133    1.0738 H         1 <1>         0.3243
     28 H13         0.1263    0.1507   -0.9871 H         1 <1>         0.2676
     29 H14         0.1483    1.8969   -0.8274 H         1 <1>         0.2670
@<TRIPOS>BOND
     1    1    2 ar
     2    1    3 ar
     3    2    4 ar
     4    3    6 ar
     5    4    8 ar
     6    5    7 2
     7    5   13 1
     8    6    7 1
     9    6    8 ar
    10    7   10 1
    11    8   13 1
    12    9   11 1
    13    9   14 am
    14    9   15 2
    15   10   12 1
    16   11   12 1
    17    1   16 1
    18    2   17 1
    19    3   18 1
    20    4   19 1
    21    5   20 1
    22   10   21 1
    23   10   22 1
    24   11   23 1
    25   11   24 1
    26   12   25 1
    27   12   26 1
    28   13   27 1
    29   14   28 1
    30   14   29 1
@<TRIPOS>Similarity
1.5597
@<TRIPOS>ShapeSim
0.8848
@<TRIPOS>PharmSim
0.6749
# END
# Name:		ZINC00141641
# Created and modified by SHAFTS on Sun Jan  8 14:48:48 2012

# 

@<TRIPOS>MOLECULE
ZINC00141641
   31    32     0
SMALL
USER_CHARGE


@<TRIPOS>ATOM
      1 C1          5.7444   -3.9370    1.3022 C.ar      1 <1>        -0.1006
      2 C2          4.7887   -2.9145    1.3124 C.ar      1 <1>        -0.0962
      3 C3          7.1055   -3.6414    1.3398 C.ar      1 <1>        -0.0946
      4 C4          5.2177   -1.5733    1.3614 C.ar      1 <1>        -0.0804
      5 C5          7.5548   -2.3186    1.3886 C.ar      1 <1>        -0.0852
      6 C6          4.5475   -0.3181    1.3846 C.2       1 <1>        -0.1007
      7 C7          6.5881   -1.3068    1.3983 C.ar      1 <1>        -0.0646
      8 C8          5.5061    0.6676    1.4346 C.2       1 <1>        -0.0913
      9 C9          9.0200   -2.0379    1.4284 C.3       1 <1>        -0.0363
     10 C10         5.3837    2.1376    1.4756 C.3       1 <1>        -0.0161
     11 C11         3.0847   -0.1087    1.3595 C.3       1 <1>        -0.0573
     12 C12         2.4317   -0.3175   -0.0139 C.3       1 <1>        -0.1127
     13 N1          6.7337    0.0615    1.4423 N.pl3     1 <1>        -0.3694
     14 N2          0.9627   -0.1345    0.0869 N.4       1 <1>         0.4451
     15 H1          5.4194   -4.9734    1.2646 H         1 <1>         0.1178
     16 H2          3.7313   -3.1615    1.2819 H         1 <1>         0.1185
     17 H3          7.8228   -4.4591    1.3308 H         1 <1>         0.1269
     18 H4          9.4161   -1.9359    0.4110 H         1 <1>         0.0584
     19 H5          9.2328   -1.1134    1.9798 H         1 <1>         0.0605
     20 H6          9.5654   -2.8439    1.9358 H         1 <1>         0.0479
     21 H7          5.3285    2.5031    2.5142 H         1 <1>         0.0758
     22 H8          6.2385    2.6381    0.9894 H         1 <1>         0.0729
     23 H9          4.4823    2.4930    0.9473 H         1 <1>         0.0781
     24 H10         2.5963   -0.8065    2.0648 H         1 <1>         0.0795
     25 H11         2.8135    0.8969    1.7319 H         1 <1>         0.0779
     26 H12         2.5901   -1.3347   -0.3841 H         1 <1>         0.0877
     27 H13         2.7914    0.3992   -0.7584 H         1 <1>         0.0916
     28 H14         7.6203    0.5458    1.4745 H         1 <1>         0.3325
     29 H15         0.6988    0.8345   -0.1198 H         1 <1>         0.1438
     30 H16         0.6298   -0.3586    1.0309 H         1 <1>         0.1458
     31 H17         0.4710   -0.7444   -0.5749 H         1 <1>         0.1448
@<TRIPOS>BOND
     1    1    2 ar
     2    1    3 ar
     3    2    4 ar
     4    3    5 ar
     5    4    6 1
     6    4    7 ar
     7    5    7 ar
     8    5    9 1
     9    6    8 2
    10    6   11 1
    11    7   13 1
    12    8   10 1
    13    8   13 1
    14   11   12 1
    15   12   14 1
    16    1   15 1
    17    2   16 1
    18    3   17 1
    19    9   18 1
    20    9   19 1
    21    9   20 1
    22   10   21 1
    23   10   22 1
    24   10   23 1
    25   11   24 1
    26   11   25 1
    27   12   26 1
    28   12   27 1
    29   13   28 1
    30   14   29 1
    31   14   30 1
    32   14   31 1
@<TRIPOS>Similarity
1.5514
@<TRIPOS>ShapeSim
0.8969
@<TRIPOS>PharmSim
0.6545
# END
# Name:		AE-473/30080045
# Created and modified by SHAFTS on Sun Jan  8 14:48:48 2012

# 

@<TRIPOS>MOLECULE
AE-473/30080045
   29    30     0
SMALL
USER_CHARGE


@<TRIPOS>ATOM
      1 C1          6.1232   -3.8964    1.4604 C.ar      1 <1>        -0.1043
      2 C2          7.3974   -3.3606    1.2848 C.ar      1 <1>        -0.1017
      3 C3          4.9974   -3.0661    1.5088 C.ar      1 <1>        -0.0941
      4 C4          7.5878   -1.9821    1.1523 C.ar      1 <1>        -0.0799
      5 C5          5.0255    0.5767    1.2081 C.2       1 <1>        -0.0772
      6 C6          5.1646   -1.6731    1.3775 C.ar      1 <1>        -0.0771
      7 C7          4.2741   -0.5632    1.3787 C.2       1 <1>        -0.0949
      8 C8          6.4533   -1.1643    1.2026 C.ar      1 <1>        -0.0718
      9 C9          2.3355    1.4630    0.1662 C.2       1 <1>        -0.0403
     10 C10         2.0849    2.3926    1.3301 C.3       1 <1>        -0.0033
     11 C11         2.8062   -0.6132    1.5358 C.3       1 <1>        -0.0337
     12 C12         2.0244   -0.0113    0.3537 C.3       1 <1>        -0.0062
     13 N1          2.8328    1.8413   -0.9718 N.2       1 <1>        -0.3472
     14 N2          6.3386    0.2040    1.1026 N.pl3     1 <1>        -0.3768
     15 O1          2.9491    0.7641   -1.8525 O.3       1 <1>        -0.3978
     16 H1          6.0004   -4.9714    1.5605 H         1 <1>         0.1096
     17 H2          8.2579   -4.0238    1.2503 H         1 <1>         0.1202
     18 H3          4.0106   -3.4992    1.6452 H         1 <1>         0.1250
     19 H4          8.5803   -1.5659    1.0168 H         1 <1>         0.1181
     20 H5          4.7444    1.6193    1.1506 H         1 <1>         0.1885
     21 H6          2.9872    2.4552    1.9445 H         1 <1>         0.0805
     22 H7          1.8198    3.3880    0.9639 H         1 <1>         0.0808
     23 H8          1.2624    2.0221    1.9474 H         1 <1>         0.0760
     24 H9          2.4725   -1.6612    1.6554 H         1 <1>         0.0693
     25 H10         2.4880   -0.1104    2.4683 H         1 <1>         0.0728
     26 H11         2.2575   -0.5493   -0.5730 H         1 <1>         0.0758
     27 H12         0.9452   -0.1067    0.5206 H         1 <1>         0.0780
     28 H13         7.1124    0.8405    0.9705 H         1 <1>         0.3248
     29 H14         3.3258    1.1945   -2.6385 H         1 <1>         0.3869
@<TRIPOS>BOND
     1    1    2 ar
     2    1    3 ar
     3    2    4 ar
     4    3    6 ar
     5    4    8 ar
     6    5    7 2
     7    5   14 1
     8    6    7 1
     9    6    8 ar
    10    7   11 1
    11    8   14 1
    12    9   10 1
    13    9   12 1
    14    9   13 2
    15   11   12 1
    16   13   15 1
    17    1   16 1
    18    2   17 1
    19    3   18 1
    20    4   19 1
    21    5   20 1
    22   10   21 1
    23   10   22 1
    24   10   23 1
    25   11   24 1
    26   11   25 1
    27   12   26 1
    28   12   27 1
    29   14   28 1
    30   15   29 1
@<TRIPOS>Similarity
1.5456
@<TRIPOS>ShapeSim
0.9416
@<TRIPOS>PharmSim
0.6041
# END
# Name:		AG-205/14785177
# Created and modified by SHAFTS on Sun Jan  8 14:48:48 2012

# 

@<TRIPOS>MOLECULE
AG-205/14785177
   28    29     0
SMALL
USER_CHARGE


@<TRIPOS>ATOM
      1 C1          7.5546   -2.3188    1.3891 C.ar      1 <1>        -0.0616
      2 C2          7.1050   -3.6415    1.3401 C.ar      1 <1>        -0.0713
      3 C3          4.7883   -2.9140    1.3118 C.ar      1 <1>        -0.0707
      4 C4          5.2177   -1.5729    1.3609 C.ar      1 <1>        -0.0695
      5 C5          4.5478   -0.3176    1.3838 C.2       1 <1>        -0.0965
      6 C6          6.5881   -1.3067    1.3984 C.ar      1 <1>        -0.0581
      7 C7          5.7438   -3.9368    1.3020 C.ar      1 <1>        -0.0354
      8 C8          5.5066    0.6679    1.4342 C.2       1 <1>        -0.0883
      9 C9          5.3849    2.1376    1.4767 C.3       1 <1>        -0.0144
     10 C10         3.0849   -0.1082    1.3589 C.3       1 <1>        -0.0559
     11 C11         2.4316   -0.3175   -0.0142 C.3       1 <1>        -0.1124
     12 N1          6.7340    0.0615    1.4423 N.pl3     1 <1>        -0.3664
     13 N2          0.9627   -0.1347    0.0869 N.4       1 <1>         0.4452
     14 Br1         5.1771   -5.7408    1.2304 Br        1 <1>        -0.1093
     15 H1          8.6145   -2.0896    1.4183 H         1 <1>         0.1379
     16 H2          7.8441   -4.4400    1.3322 H         1 <1>         0.1436
     17 H3          3.7263   -3.1426    1.2812 H         1 <1>         0.1392
     18 H4          5.3306    2.5025    2.5158 H         1 <1>         0.0776
     19 H5          6.2397    2.6385    0.9906 H         1 <1>         0.0745
     20 H6          4.4834    2.4942    0.9493 H         1 <1>         0.0796
     21 H7          2.5968   -0.8057    2.0647 H         1 <1>         0.0799
     22 H8          2.8137    0.8974    1.7312 H         1 <1>         0.0803
     23 H9          2.5900   -1.3349   -0.3841 H         1 <1>         0.0896
     24 H10         2.7912    0.3989   -0.7590 H         1 <1>         0.0904
     25 H11         7.6209    0.5454    1.4753 H         1 <1>         0.3364
     26 H12         0.6989    0.8350   -0.1177 H         1 <1>         0.1464
     27 H13         0.6297   -0.3605    1.0303 H         1 <1>         0.1434
     28 H14         0.4709   -0.7431   -0.5763 H         1 <1>         0.1461
@<TRIPOS>BOND
     1    1    2 ar
     2    1    6 ar
     3    2    7 ar
     4    3    4 ar
     5    3    7 ar
     6    4    5 1
     7    4    6 ar
     8    5    8 2
     9    5   10 1
    10    6   12 1
    11    7   14 1
    12    8    9 1
    13    8   12 1
    14   10   11 1
    15   11   13 1
    16    1   15 1
    17    2   16 1
    18    3   17 1
    19    9   18 1
    20    9   19 1
    21    9   20 1
    22   10   21 1
    23   10   22 1
    24   11   23 1
    25   11   24 1
    26   12   25 1
    27   13   26 1
    28   13   27 1
    29   13   28 1
@<TRIPOS>Similarity
1.5428
@<TRIPOS>ShapeSim
0.8884
@<TRIPOS>PharmSim
0.6544
# END
# Name:		AG-690/36467004
# Created and modified by SHAFTS on Sun Jan  8 14:48:48 2012

# 

@<TRIPOS>MOLECULE
AG-690/36467004
   26    27     0
SMALL
USER_CHARGE


@<TRIPOS>ATOM
      1 C1          5.7903   -3.8285    1.5111 C.ar      1 <1>        -0.0997
      2 C2          7.1111   -3.5036    1.8140 C.ar      1 <1>        -0.0985
      3 C3          4.8641   -2.8311    1.1850 C.ar      1 <1>        -0.0840
      4 C4          7.5480   -2.1759    1.8008 C.ar      1 <1>        -0.0764
      5 C5          5.5630    0.7533    1.0289 C.2       1 <1>        -0.0318
      6 C6          5.2814   -1.4854    1.1653 C.ar      1 <1>        -0.0479
      7 C7          4.6323   -0.2501    0.8870 C.2       1 <1>         0.0218
      8 C8          6.6111   -1.1895    1.4731 C.ar      1 <1>        -0.0600
      9 C9          3.2616   -0.0324    0.5203 C.2       1 <1>         0.1564
     10 C10         2.9113    0.6321   -0.8137 C.2       1 <1>         0.2392
     11 C11         2.3843    0.1194   -3.0380 C.3       1 <1>         0.0419
     12 N1          2.2441   -0.3899    1.2915 N.2       1 <1>        -0.2604
     13 N2          6.7535    0.1768    1.3823 N.pl3     1 <1>        -0.3580
     14 O1          2.7908    1.8372   -0.9137 O.2       1 <1>        -0.4386
     15 O2          0.9938   -0.0915    0.7436 O.3       1 <1>        -0.3597
     16 O3          2.7530   -0.3385   -1.7343 O.3       1 <1>        -0.3372
     17 H1          5.4747   -4.8685    1.5273 H         1 <1>         0.1148
     18 H2          7.8139   -4.2942    2.0649 H         1 <1>         0.1231
     19 H3          3.8383   -3.1006    0.9509 H         1 <1>         0.1351
     20 H4          8.5764   -1.9246    2.0371 H         1 <1>         0.1228
     21 H5          5.4882    1.8256    0.9108 H         1 <1>         0.2315
     22 H6          2.2805   -0.7363   -3.7097 H         1 <1>         0.0961
     23 H7          3.1502    0.8017   -3.4156 H         1 <1>         0.1278
     24 H8          1.4296    0.6465   -2.9729 H         1 <1>         0.0961
     25 H9          7.6127    0.6810    1.5524 H         1 <1>         0.3371
     26 H10         1.2440    0.3195   -0.1012 H         1 <1>         0.4088
@<TRIPOS>BOND
     1    1    2 ar
     2    1    3 ar
     3    2    4 ar
     4    3    6 ar
     5    4    8 ar
     6    5    7 2
     7    5   13 1
     8    6    7 1
     9    6    8 ar
    10    7    9 1
    11    8   13 1
    12    9   10 1
    13    9   12 2
    14   10   14 2
    15   10   16 1
    16   11   16 1
    17   12   15 1
    18    1   17 1
    19    2   18 1
    20    3   19 1
    21    4   20 1
    22    5   21 1
    23   11   22 1
    24   11   23 1
    25   11   24 1
    26   13   25 1
    27   15   26 1
@<TRIPOS>Similarity
1.5418
@<TRIPOS>ShapeSim
0.8864
@<TRIPOS>PharmSim
0.6554
# END
# Name:		AO-080/40818400
# Created and modified by SHAFTS on Sun Jan  8 14:48:48 2012

# 

@<TRIPOS>MOLECULE
AO-080/40818400
   28    29     0
SMALL
USER_CHARGE


@<TRIPOS>ATOM
      1 C1          7.4449   -3.9980    1.6656 C.ar      1 <1>        -0.0977
      2 C2          6.1875   -4.3479    1.1824 C.ar      1 <1>        -0.0969
      3 C3          7.7480   -2.6600    1.9196 C.ar      1 <1>        -0.0898
      4 C4          5.2285   -3.3615    0.9513 C.ar      1 <1>        -0.0866
      5 C5          7.0828   -0.3021    1.9428 C.ar      1 <1>        -0.0846
      6 C6          6.1238    0.6845    1.7116 C.ar      1 <1>        -0.0693
      7 C7          4.5632   -1.0035    0.9743 C.ar      1 <1>        -0.0503
      8 C8          6.7949   -1.6538    1.6927 C.ar      1 <1>        -0.0761
      9 C9          5.5164   -2.0097    1.2012 C.ar      1 <1>        -0.0730
     10 C10         4.8665    0.3344    1.2283 C.ar      1 <1>        -0.0186
     11 C11         2.0224    0.4283   -0.1708 C.3       1 <1>        -0.0840
     12 C12         2.5636    0.9238    1.1557 C.3       1 <1>         0.0079
     13 N1          0.5886    0.0762   -0.0144 N.4       1 <1>         0.4490
     14 O1          3.9320    1.2981    1.0035 O.3       1 <1>        -0.4263
     15 H1          8.1910   -4.7664    1.8447 H         1 <1>         0.1226
     16 H2          5.9517   -5.3898    0.9851 H         1 <1>         0.1265
     17 H3          8.7371   -2.4085    2.2967 H         1 <1>         0.1292
     18 H4          4.2525   -3.6581    0.5727 H         1 <1>         0.1266
     19 H5          8.0594   -0.0055    2.3201 H         1 <1>         0.1411
     20 H6          6.3655    1.7250    1.9106 H         1 <1>         0.1122
     21 H7          3.5751   -1.2604    0.5968 H         1 <1>         0.1356
     22 H8          2.5279   -0.4808   -0.5085 H         1 <1>         0.1115
     23 H9          2.0733    1.2010   -0.9424 H         1 <1>         0.1074
     24 H10         2.0054    1.8084    1.4777 H         1 <1>         0.1099
     25 H11         2.4887    0.1579    1.9346 H         1 <1>         0.1258
     26 H12         0.0125    0.9194    0.0752 H         1 <1>         0.1496
     27 H13         0.4427   -0.4979    0.8226 H         1 <1>         0.1510
     28 H14         0.2515   -0.4535   -0.8250 H         1 <1>         0.1473
@<TRIPOS>BOND
     1    1    2 ar
     2    1    3 ar
     3    2    4 ar
     4    3    8 ar
     5    4    9 ar
     6    5    6 ar
     7    5    8 ar
     8    6   10 ar
     9    7    9 ar
    10    7   10 ar
    11    8    9 ar
    12   10   14 1
    13   11   12 1
    14   11   13 1
    15   12   14 1
    16    1   15 1
    17    2   16 1
    18    3   17 1
    19    4   18 1
    20    5   19 1
    21    6   20 1
    22    7   21 1
    23   11   22 1
    24   11   23 1
    25   12   24 1
    26   12   25 1
    27   13   26 1
    28   13   27 1
    29   13   28 1
@<TRIPOS>Similarity
1.5374
@<TRIPOS>ShapeSim
0.8998
@<TRIPOS>PharmSim
0.6375
# END
# Name:		AI-942/13331877
# Created and modified by SHAFTS on Sun Jan  8 14:48:48 2012

# 

@<TRIPOS>MOLECULE
AI-942/13331877
   29    30     0
SMALL
USER_CHARGE


@<TRIPOS>ATOM
      1 C1          7.1439   -4.0982    1.6005 C.ar      1 <1>        -0.1041
      2 C2          6.0002   -4.2727    0.8270 C.ar      1 <1>        -0.1025
      3 C3          7.4541   -2.8387    2.1144 C.ar      1 <1>        -0.0945
      4 C4          5.1623   -3.1886    0.5643 C.ar      1 <1>        -0.0892
      5 C5          6.9189   -0.4615    2.3694 C.ar      1 <1>        -0.0876
      6 C6          6.0811    0.6226    2.1067 C.ar      1 <1>        -0.0651
      7 C7          4.6272   -0.8113    0.8192 C.ar      1 <1>        -0.0497
      8 C8          6.6222   -1.7362    1.8602 C.ar      1 <1>        -0.0799
      9 C9          5.4591   -1.9138    1.0735 C.ar      1 <1>        -0.0762
     10 C10         4.9375    0.4481    1.3331 C.ar      1 <1>        -0.0067
     11 C11         1.9237    2.4261    1.3631 C.3       1 <1>        -0.0304
     12 C12         2.4975    0.9389   -0.5838 C.3       1 <1>         0.0005
     13 C13         2.7340    1.2275    0.8933 C.3       1 <1>         0.0342
     14 O1          2.4568    2.1716   -1.2948 O.3       1 <1>        -0.4859
     15 O2          4.1210    1.5069    1.0781 O.3       1 <1>        -0.4059
     16 H1          7.7959   -4.9425    1.8039 H         1 <1>         0.1134
     17 H2          5.7587   -5.2535    0.4272 H         1 <1>         0.1187
     18 H3          8.3532   -2.7245    2.7162 H         1 <1>         0.1247
     19 H4          4.2740   -3.3482   -0.0434 H         1 <1>         0.1240
     20 H5          7.8081   -0.3018    2.9760 H         1 <1>         0.1343
     21 H6          6.3279    1.6015    2.5090 H         1 <1>         0.1164
     22 H7          3.7287   -0.9309    0.2162 H         1 <1>         0.1300
     23 H8          2.1633    3.3102    0.7624 H         1 <1>         0.0526
     24 H9          0.8492    2.2346    1.2854 H         1 <1>         0.0471
     25 H10         2.1625    2.6782    2.4022 H         1 <1>         0.0406
     26 H11         3.3081    0.3349   -1.0045 H         1 <1>         0.0928
     27 H12         1.5425    0.4268   -0.7372 H         1 <1>         0.1007
     28 H13         2.4946    0.3431    1.4940 H         1 <1>         0.1225
     29 H14         2.3055    1.9496   -2.2271 H         1 <1>         0.3256
@<TRIPOS>BOND
     1    1    2 ar
     2    1    3 ar
     3    2    4 ar
     4    3    8 ar
     5    4    9 ar
     6    5    6 ar
     7    5    8 ar
     8    6   10 ar
     9    7    9 ar
    10    7   10 ar
    11    8    9 ar
    12   10   15 1
    13   11   13 1
    14   12   13 1
    15   12   14 1
    16   13   15 1
    17    1   16 1
    18    2   17 1
    19    3   18 1
    20    4   19 1
    21    5   20 1
    22    6   21 1
    23    7   22 1
    24   11   23 1
    25   11   24 1
    26   11   25 1
    27   12   26 1
    28   12   27 1
    29   13   28 1
    30   14   29 1
@<TRIPOS>Similarity
1.5355
@<TRIPOS>ShapeSim
0.8508
@<TRIPOS>PharmSim
0.6847
# END
# Name:		Building
# Created and modified by SHAFTS on Sun Jan  8 14:48:48 2012

# 

@<TRIPOS>MOLECULE
Building
   28    30     0
SMALL
USER_CHARGE


@<TRIPOS>ATOM
      1 C1          6.1027   -4.0137    1.3975 C.ar      1 <1>        -0.1387
      2 C2          7.4238   -3.5712    1.3950 C.ar      1 <1>        -0.0845
      3 C3          5.0416   -3.1014    1.3985 C.ar      1 <1>        -0.0636
      4 C4          7.7266   -2.2068    1.3941 C.ar      1 <1>        -0.1315
      5 C5          5.3203   -1.7196    1.3964 C.ar      1 <1>        -0.0984
      6 C6          4.5206   -0.5428    1.3961 C.2       1 <1>        -0.1430
      7 C7          6.6571   -1.3040    1.3954 C.ar      1 <1>         0.1098
      8 C8          5.3782    0.5355    1.4004 C.2       1 <1>         0.0158
      9 C9          2.5983    1.2549   -0.4721 C.2       1 <1>         0.4573
     10 C10         3.0362   -0.3747    1.4094 C.3       1 <1>        -0.0498
     11 C11         4.9717    1.9556    1.3836 C.3       1 <1>         0.0791
     12 C12         2.6037    1.0511    1.0110 C.3       1 <1>        -0.0143
     13 N1          6.6617    0.0754    1.3965 N.pl3     1 <1>        -0.5742
     14 N2          3.4915    2.0817    1.6773 N.4       1 <1>        -0.4927
     15 O1          2.2923    0.2382   -1.1547 O.co2     1 <1>        -0.5000
     16 O2          2.9020    2.4219   -0.8475 O.co2     1 <1>        -0.5000
     17 H1          5.8921   -5.0799    1.3990 H         1 <1>         0.1293
     18 H2          8.2326   -4.2975    1.3932 H         1 <1>         0.1314
     19 H3          4.0169   -3.4618    1.4016 H         1 <1>         0.1286
     20 H4          8.7560   -1.8640    1.3918 H         1 <1>         0.1246
     21 H5          2.5949   -1.1170    0.7248 H         1 <1>         0.1195
     22 H6          2.6449   -0.6083    2.4117 H         1 <1>         0.0975
     23 H7          5.4912    2.5252    2.1611 H         1 <1>         0.1404
     24 H8          5.1353    2.4273    0.4099 H         1 <1>         0.1365
     25 H9          1.5767    1.2843    1.4032 H         1 <1>         0.1393
     26 H10         7.4922    0.6518    1.3957 H         1 <1>         0.4198
     27 H11         3.3486    2.0500    2.7035 H         1 <1>         0.4349
     28 H12         3.1738    3.0278    1.3954 H         1 <1>         0.4408
@<TRIPOS>BOND
     1    1    2 ar
     2    1    3 ar
     3    2    4 ar
     4    3    5 ar
     5    4    7 ar
     6    5    6 1
     7    5    7 ar
     8    6    8 2
     9    6   10 1
    10    7   13 1
    11    8   11 1
    12    8   13 1
    13    9   12 1
    14    9   15 1
    15    9   16 2
    16   10   12 1
    17   11   14 1
    18   12   14 1
    19    1   17 1
    20    2   18 1
    21    3   19 1
    22    4   20 1
    23   10   21 1
    24   10   22 1
    25   11   23 1
    26   11   24 1
    27   12   25 1
    28   13   26 1
    29   14   27 1
    30   14   28 1
@<TRIPOS>Similarity
1.5296
@<TRIPOS>ShapeSim
0.9366
@<TRIPOS>PharmSim
0.5930
# END
# Name:		AE-848/00990055
# Created and modified by SHAFTS on Sun Jan  8 14:48:48 2012

# 

@<TRIPOS>MOLECULE
AE-848/00990055
   21    21     0
SMALL
USER_CHARGE


@<TRIPOS>ATOM
      1 C1          7.3445   -3.5216    1.0090 C.ar      1 <1>        -0.1354
      2 C2          6.0514   -4.0118    1.1905 C.ar      1 <1>        -0.1002
      3 C3          7.6045   -2.1613    1.1748 C.ar      1 <1>        -0.1059
      4 C4          5.0179   -3.1416    1.5377 C.ar      1 <1>        -0.1336
      5 C5          6.5711   -1.2910    1.5220 C.ar      1 <1>        -0.1071
      6 C6          5.2778   -1.7812    1.7034 C.ar      1 <1>        -0.0717
      7 C7          2.8348    1.5853    0.0305 C.2       1 <1>         0.4686
      8 C8          2.0506    0.3253    0.4176 C.3       1 <1>        -0.1451
      9 C9          2.8619   -0.9241    0.7331 C.3       1 <1>        -0.0705
     10 O1          3.5622    2.0900    0.9295 O.co2     1 <1>        -0.5000
     11 O2          2.6624    1.9578   -1.1658 O.co2     1 <1>        -0.5000
     12 S1          3.9573   -0.6694    2.1464 S.3       1 <1>        -0.1469
     13 H1          8.1487   -4.1997    0.7386 H         1 <1>         0.1205
     14 H2          5.8486   -5.0710    1.0611 H         1 <1>         0.1235
     15 H3          8.6117   -1.7804    1.0333 H         1 <1>         0.1232
     16 H4          4.0166   -3.5423    1.6746 H         1 <1>         0.1297
     17 H5          6.7931   -0.2339    1.6464 H         1 <1>         0.1250
     18 H6          1.3811    0.5607    1.2550 H         1 <1>         0.0762
     19 H7          1.4026    0.1024   -0.4403 H         1 <1>         0.0762
     20 H8          3.4679   -1.2311   -0.1249 H         1 <1>         0.0887
     21 H9          2.1868   -1.7509    0.9761 H         1 <1>         0.0888
@<TRIPOS>BOND
     1    1    2 ar
     2    1    3 ar
     3    2    4 ar
     4    3    5 ar
     5    4    6 ar
     6    5    6 ar
     7    6   12 1
     8    7    8 1
     9    7   10 1
    10    7   11 2
    11    8    9 1
    12    9   12 1
    13    1   13 1
    14    2   14 1
    15    3   15 1
    16    4   16 1
    17    5   17 1
    18    8   18 1
    19    8   19 1
    20    9   20 1
    21    9   21 1
@<TRIPOS>Similarity
1.5241
@<TRIPOS>ShapeSim
0.9089
@<TRIPOS>PharmSim
0.6152
# END
# Name:		ZINC00574168
# Created and modified by SHAFTS on Sun Jan  8 14:48:48 2012

# 

@<TRIPOS>MOLECULE
ZINC00574168
   30    31     0
SMALL
USER_CHARGE


@<TRIPOS>ATOM
      1 C1          7.5014   -2.2720    1.3607 C.ar      1 <1>        -0.0978
      2 C2          7.0923   -3.6048    1.2595 C.ar      1 <1>        -0.1936
      3 C3          4.7588   -2.9411    1.1538 C.ar      1 <1>        -0.0974
      4 C4          5.1472   -1.5904    1.2548 C.ar      1 <1>        -0.0626
      5 C5          4.4412   -0.3551    1.2818 C.2       1 <1>        -0.1344
      6 C6          6.5067   -1.2877    1.3558 C.ar      1 <1>         0.0549
      7 C7          5.7428   -3.9365    1.1575 C.ar      1 <1>         0.0712
      8 C8          5.3685    0.6547    1.3970 C.2       1 <1>         0.0424
      9 C9          5.0843    2.1545    1.4654 C.2       1 <1>         0.5406
     10 C10         2.9956    0.6023   -1.2776 C.2       1 <1>         0.4972
     11 C11         6.4192   -6.2148    1.0722 C.3       1 <1>         0.0346
     12 C12         2.9744   -0.1890    1.2018 C.3       1 <1>        -0.0204
     13 C13         2.4259   -0.3526   -0.2234 C.3       1 <1>        -0.1612
     14 N1          6.6115    0.0825    1.4406 N.pl3     1 <1>        -0.5705
     15 O1          6.0867    2.9138    1.5711 O.co2     1 <1>        -0.5000
     16 O2          2.7505    1.8231   -1.0528 O.co2     1 <1>        -0.5000
     17 O3          3.8725    2.5017    1.4106 O.co2     1 <1>        -0.5000
     18 O4          3.6333    0.0782   -2.2314 O.co2     1 <1>        -0.5000
     19 O5          5.3738   -5.2452    1.0615 O.3       1 <1>        -0.3233
     20 H1          8.5525   -2.0150    1.4386 H         1 <1>         0.1124
     21 H2          7.8454   -4.3895    1.2608 H         1 <1>         0.1183
     22 H3          3.7089   -3.2097    1.0748 H         1 <1>         0.1276
     23 H4          5.9893   -7.2161    0.9898 H         1 <1>         0.0879
     24 H5          6.9895   -6.1269    2.0003 H         1 <1>         0.0461
     25 H6          7.0807   -6.0336    0.2217 H         1 <1>         0.0466
     26 H7          2.4632   -0.9123    1.8635 H         1 <1>         0.0924
     27 H8          2.6724    0.8026    1.5862 H         1 <1>         0.0476
     28 H9          1.3365   -0.2174   -0.2101 H         1 <1>         0.0406
     29 H10         2.6142   -1.3773   -0.5693 H         1 <1>         0.0582
     30 H11         7.4812    0.5907    1.5224 H         1 <1>         0.4135
@<TRIPOS>BOND
     1    1    2 ar
     2    1    6 ar
     3    2    7 ar
     4    3    4 ar
     5    3    7 ar
     6    4    5 1
     7    4    6 ar
     8    5    8 2
     9    5   12 1
    10    6   14 1
    11    7   19 1
    12    8    9 1
    13    8   14 1
    14    9   15 1
    15    9   17 2
    16   10   13 1
    17   10   16 1
    18   10   18 2
    19   11   19 1
    20   12   13 1
    21    1   20 1
    22    2   21 1
    23    3   22 1
    24   11   23 1
    25   11   24 1
    26   11   25 1
    27   12   26 1
    28   12   27 1
    29   13   28 1
    30   13   29 1
    31   14   30 1
@<TRIPOS>Similarity
1.5169
@<TRIPOS>ShapeSim
0.8441
@<TRIPOS>PharmSim
0.6729
# END
# Name:		AI-942/13331877
# Created and modified by SHAFTS on Sun Jan  8 14:48:48 2012

# 

@<TRIPOS>MOLECULE
AI-942/13331877
   29    30     0
SMALL
USER_CHARGE


@<TRIPOS>ATOM
      1 C1          7.2905   -3.9733    1.1035 C.ar      1 <1>        -0.1041
      2 C2          6.0240   -4.3423    1.5472 C.ar      1 <1>        -0.1025
      3 C3          7.6069   -2.6247    0.9375 C.ar      1 <1>        -0.0945
      4 C4          5.0692   -3.3643    1.8266 C.ar      1 <1>        -0.0892
      5 C5          6.9594   -0.2645    1.0525 C.ar      1 <1>        -0.0876
      6 C6          6.0045    0.7136    1.3318 C.ar      1 <1>        -0.0651
      7 C7          4.4216   -1.0041    1.9414 C.ar      1 <1>        -0.0497
      8 C8          6.6581   -1.6267    1.2139 C.ar      1 <1>        -0.0799
      9 C9          5.3703   -2.0021    1.6650 C.ar      1 <1>        -0.0762
     10 C10         4.7381    0.3445    1.7754 C.ar      1 <1>        -0.0067
     11 C11         2.3951    3.1547    1.4844 C.3       1 <1>        -0.0304
     12 C12         2.8711    1.3049   -0.1532 C.3       1 <1>         0.0005
     13 C13         3.4293    2.1620    0.9756 C.3       1 <1>         0.0342
     14 O1          2.5095    2.1504   -1.2401 O.3       1 <1>        -0.4860
     15 O2          3.8078    1.2999    2.0477 O.3       1 <1>        -0.4059
     16 H1          8.0329   -4.7353    0.8856 H         1 <1>         0.1134
     17 H2          5.7781   -5.3925    1.6767 H         1 <1>         0.1187
     18 H3          8.6027   -2.3583    0.5892 H         1 <1>         0.1247
     19 H4          4.0855   -3.6760    2.1716 H         1 <1>         0.1240
     20 H5          7.9428    0.0469    0.7061 H         1 <1>         0.1343
     21 H6          6.2562    1.7624    1.2001 H         1 <1>         0.1164
     22 H7          3.4266   -1.2759    2.2895 H         1 <1>         0.1300
     23 H8          1.4928    2.6312    1.8184 H         1 <1>         0.0407
     24 H9          2.7855    3.7416    2.3215 H         1 <1>         0.0472
     25 H10         2.0842    3.8401    0.6883 H         1 <1>         0.0526
     26 H11         3.6185    0.5919   -0.5165 H         1 <1>         0.1007
     27 H12         1.9758    0.7638    0.1685 H         1 <1>         0.0928
     28 H13         4.3319    2.6855    0.6416 H         1 <1>         0.1225
     29 H14         2.1599    1.5728   -1.9369 H         1 <1>         0.3255
@<TRIPOS>BOND
     1    1    2 ar
     2    1    3 ar
     3    2    4 ar
     4    3    8 ar
     5    4    9 ar
     6    5    6 ar
     7    5    8 ar
     8    6   10 ar
     9    7    9 ar
    10    7   10 ar
    11    8    9 ar
    12   10   15 1
    13   11   13 1
    14   12   13 1
    15   12   14 1
    16   13   15 1
    17    1   16 1
    18    2   17 1
    19    3   18 1
    20    4   19 1
    21    5   20 1
    22    6   21 1
    23    7   22 1
    24   11   23 1
    25   11   24 1
    26   11   25 1
    27   12   26 1
    28   12   27 1
    29   13   28 1
    30   14   29 1
@<TRIPOS>Similarity
1.5123
@<TRIPOS>ShapeSim
0.8596
@<TRIPOS>PharmSim
0.6527
# END
# Name:		AE-641/00851021
# Created and modified by SHAFTS on Sun Jan  8 14:48:48 2012

# 

@<TRIPOS>MOLECULE
AE-641/00851021
   27    28     0
SMALL
USER_CHARGE


@<TRIPOS>ATOM
      1 C1          5.7772   -3.9015    1.0751 C.ar      1 <1>        -0.1549
      2 C2          7.1275   -3.5685    1.1617 C.ar      1 <1>        -0.1039
      3 C3          4.7915   -2.9082    1.1005 C.ar      1 <1>        -0.0628
      4 C4          7.5356   -2.2365    1.2760 C.ar      1 <1>        -0.1370
      5 C5          5.1788   -1.5583    1.2151 C.ar      1 <1>        -0.0994
      6 C6          4.4710   -0.3250    1.2705 C.2       1 <1>        -0.1457
      7 C7          6.5392   -1.2542    1.3001 C.ar      1 <1>         0.0956
      8 C8          5.3981    0.6850    1.3863 C.2       1 <1>         0.0634
      9 C9          2.9861    0.6695   -1.2526 C.2       1 <1>         0.4587
     10 C10         5.2304    2.1480    1.4842 C.3       1 <1>        -0.0909
     11 C11         3.0038   -0.1569    1.2158 C.3       1 <1>        -0.0279
     12 C12         2.4325   -0.2998   -0.2029 C.3       1 <1>        -0.1474
     13 N1          6.6427    0.1148    1.4030 N.pl3     1 <1>        -0.5965
     14 O1          2.7456    1.8871   -1.0067 O.co2     1 <1>        -0.5000
     15 O2          3.6078    0.1584   -2.2237 O.co2     1 <1>        -0.5000
     16 H1          5.4848   -4.9442    0.9860 H         1 <1>         0.1189
     17 H2          7.8763   -4.3561    1.1403 H         1 <1>         0.1199
     18 H3          3.7432   -3.1842    1.0317 H         1 <1>         0.1233
     19 H4          8.5871   -1.9777    1.3426 H         1 <1>         0.1142
     20 H5          5.1380    2.4680    2.5351 H         1 <1>         0.0760
     21 H6          6.0818    2.6930    1.0418 H         1 <1>         0.0617
     22 H7          4.3324    2.4987    0.9471 H         1 <1>         0.0880
     23 H8          2.5019   -0.8891    1.8751 H         1 <1>         0.0682
     24 H9          2.7081    0.8294    1.6190 H         1 <1>         0.0679
     25 H10         1.3436   -0.1642   -0.1702 H         1 <1>         0.0619
     26 H11         2.6143   -1.3196   -0.5660 H         1 <1>         0.0604
     27 H12         7.5137    0.6219    1.4794 H         1 <1>         0.4093
@<TRIPOS>BOND
     1    1    2 ar
     2    1    3 ar
     3    2    4 ar
     4    3    5 ar
     5    4    7 ar
     6    5    6 1
     7    5    7 ar
     8    6    8 2
     9    6   11 1
    10    7   13 1
    11    8   10 1
    12    8   13 1
    13    9   12 1
    14    9   14 1
    15    9   15 2
    16   11   12 1
    17    1   16 1
    18    2   17 1
    19    3   18 1
    20    4   19 1
    21   10   20 1
    22   10   21 1
    23   10   22 1
    24   11   23 1
    25   11   24 1
    26   12   25 1
    27   12   26 1
    28   13   27 1
@<TRIPOS>Similarity
1.5100
@<TRIPOS>ShapeSim
0.8938
@<TRIPOS>PharmSim
0.6162
# END
# Name:		AE-842/33001023
# Created and modified by SHAFTS on Sun Jan  8 14:48:48 2012

# 

@<TRIPOS>MOLECULE
AE-842/33001023
   25    26     0
SMALL
USER_CHARGE


@<TRIPOS>ATOM
      1 C1          7.2745   -3.7773    1.4413 C.ar      1 <1>        -0.0989
      2 C2          5.9632   -4.2001    1.2450 C.ar      1 <1>        -0.0988
      3 C3          7.5631   -2.4152    1.5315 C.ar      1 <1>        -0.0878
      4 C4          4.9355   -3.2627    1.1382 C.ar      1 <1>        -0.0870
      5 C5          6.8135   -0.0828    1.5147 C.ar      1 <1>        -0.0723
      6 C6          5.7857    0.8547    1.4078 C.ar      1 <1>        -0.0524
      7 C7          4.1857   -0.9302    1.1212 C.ar      1 <1>        -0.0432
      8 C8          6.5411   -1.4577    1.4262 C.ar      1 <1>        -0.0726
      9 C9          5.2077   -1.8877    1.2266 C.ar      1 <1>        -0.0666
     10 C10         4.4744    0.4318    1.2115 C.ar      1 <1>        -0.0108
     11 C11         3.5477    2.6538    1.8081 C.3       1 <1>         0.0224
     12 N1          3.4362    1.3806    1.1043 N.pl3     1 <1>        -0.2520
     13 N2          2.5413    1.2660    0.0397 N.pl3     1 <1>        -0.0020
     14 O1          1.5338    0.5751    0.2384 O.3       1 <1>        -0.1373
     15 O2          2.7892    1.8670   -1.0140 O.2       1 <1>        -0.2206
     16 H1          8.0742   -4.5075    1.5240 H         1 <1>         0.1212
     17 H2          5.7394   -5.2607    1.1752 H         1 <1>         0.1216
     18 H3          8.5953   -2.1068    1.6836 H         1 <1>         0.1289
     19 H4          3.9182   -3.6165    0.9839 H         1 <1>         0.1274
     20 H5          7.8312    0.2699    1.6679 H         1 <1>         0.1414
     21 H6          6.0209    1.9136    1.4798 H         1 <1>         0.1347
     22 H7          3.1561   -1.2496    0.9678 H         1 <1>         0.1453
     23 H8          4.0379    3.3940    1.1702 H         1 <1>         0.1082
     24 H9          4.1367    2.5308    2.7210 H         1 <1>         0.1248
     25 H10         2.5553    3.0243    2.0785 H         1 <1>         0.1266
@<TRIPOS>BOND
     1    1    2 ar
     2    1    3 ar
     3    2    4 ar
     4    3    8 ar
     5    4    9 ar
     6    5    6 ar
     7    5    8 ar
     8    6   10 ar
     9    7    9 ar
    10    7   10 ar
    11    8    9 ar
    12   10   12 1
    13   11   12 1
    14   12   13 1
    15   13   14 1
    16   13   15 2
    17    1   16 1
    18    2   17 1
    19    3   18 1
    20    4   19 1
    21    5   20 1
    22    6   21 1
    23    7   22 1
    24   11   23 1
    25   11   24 1
    26   11   25 1
@<TRIPOS>Similarity
1.5076
@<TRIPOS>ShapeSim
0.9295
@<TRIPOS>PharmSim
0.5782
# END
# Name:		AG-205/03663045
# Created and modified by SHAFTS on Sun Jan  8 14:48:48 2012

# 

@<TRIPOS>MOLECULE
AG-205/03663045
   23    24     0
SMALL
USER_CHARGE


@<TRIPOS>ATOM
      1 C1          5.9065   -3.9976    1.4098 C.ar      1 <1>        -0.1160
      2 C2          7.2304   -3.6382    1.1652 C.ar      1 <1>        -0.0876
      3 C3          4.9206   -3.0206    1.5899 C.ar      1 <1>        -0.0873
      4 C4          7.6111   -2.2951    1.0928 C.ar      1 <1>        -0.1119
      5 C5          5.4612    0.5929    1.4847 C.2       1 <1>         0.1947
      6 C6          5.2806   -1.6601    1.5213 C.ar      1 <1>        -0.0874
      7 C7          6.6149   -1.3294    1.2749 C.ar      1 <1>         0.0845
      8 C8          4.5645   -0.4372    1.6512 C.2       1 <1>        -0.3272
      9 C9          2.2871   -0.2396    0.3134 C.cat     1 <1>         0.4534
     10 N1          6.6952    0.0449    1.2579 N.pl3     1 <1>        -0.5829
     11 N2          3.1699   -0.3457   -0.6702 N.pl3     1 <1>        -0.8111
     12 N3          0.9867   -0.1072    0.0858 N.pl3     1 <1>        -0.7798
     13 S1          2.8570   -0.2632    1.9651 S.3       1 <1>         0.2243
     14 H1          5.6349   -5.0487    1.4613 H         1 <1>         0.1338
     15 H2          7.9802   -4.4134    1.0292 H         1 <1>         0.1379
     16 H3          3.8939   -3.3208    1.7789 H         1 <1>         0.1252
     17 H4          8.6424   -2.0164    0.9037 H         1 <1>         0.1331
     18 H5          5.3368    1.6671    1.5049 H         1 <1>         0.1947
     19 H6          7.5425    0.5726    1.1001 H         1 <1>         0.4655
     20 H7          2.8607   -0.3287   -1.6351 H         1 <1>         0.4516
     21 H8          4.1590   -0.4475   -0.4723 H         1 <1>         0.4711
     22 H9          0.6255   -0.0840   -0.8612 H         1 <1>         0.4517
     23 H10         0.3373   -0.0293    0.8598 H         1 <1>         0.4696
@<TRIPOS>BOND
     1    1    2 ar
     2    1    3 ar
     3    2    4 ar
     4    3    6 ar
     5    4    7 ar
     6    5    8 2
     7    5   10 1
     8    6    7 ar
     9    6    8 1
    10    7   10 1
    11    8   13 1
    12    9   11 1
    13    9   12 2
    14    9   13 1
    15    1   14 1
    16    2   15 1
    17    3   16 1
    18    4   17 1
    19    5   18 1
    20   10   19 1
    21   11   20 1
    22   11   21 1
    23   12   22 1
    24   12   23 1
@<TRIPOS>Similarity
1.5054
@<TRIPOS>ShapeSim
0.9084
@<TRIPOS>PharmSim
0.5970
# END
# Name:		AG-205/34696016
# Created and modified by SHAFTS on Sun Jan  8 14:48:48 2012

# 

@<TRIPOS>MOLECULE
AG-205/34696016
   29    31     0
SMALL
USER_CHARGE


@<TRIPOS>ATOM
      1 C1          6.1489   -4.0359    1.3969 C.ar      1 <1>        -0.1064
      2 C2          7.4503   -3.5409    1.3952 C.ar      1 <1>        -0.1035
      3 C3          5.0526   -3.1658    1.3978 C.ar      1 <1>        -0.0963
      4 C4          7.6957   -2.1655    1.3946 C.ar      1 <1>        -0.0817
      5 C5          5.2723   -1.7716    1.3967 C.ar      1 <1>        -0.0785
      6 C6          4.4167   -0.6229    1.3967 C.2       1 <1>        -0.0963
      7 C7          6.5891   -1.3083    1.3956 C.ar      1 <1>        -0.0734
      8 C8          5.2338    0.4928    1.3962 C.2       1 <1>        -0.0908
      9 C9          2.9245   -0.5986    1.4008 C.3       1 <1>        -0.0491
     10 C10         4.8762    1.9377    1.3954 C.3       1 <1>        -0.0248
     11 C11         2.3293    0.2447    0.2714 C.3       1 <1>        -0.0644
     12 C12         3.9086    2.2938    0.2663 C.3       1 <1>        -0.0563
     13 C13         2.4859    1.7577    0.4595 C.3       1 <1>        -0.0696
     14 N1          6.5356    0.0652    1.3965 N.pl3     1 <1>        -0.3754
     15 H1          5.9810   -5.1096    1.3978 H         1 <1>         0.1076
     16 H2          8.2885   -4.2328    1.3941 H         1 <1>         0.1181
     17 H3          4.0446   -3.5712    1.3994 H         1 <1>         0.1228
     18 H4          8.7100   -1.7803    1.3943 H         1 <1>         0.1168
     19 H5          2.5425   -1.6213    1.2989 H         1 <1>         0.0632
     20 H6          2.5702   -0.2325    2.3723 H         1 <1>         0.0642
     21 H7          4.4416    2.2077    2.3652 H         1 <1>         0.0726
     22 H8          5.7840    2.5431    1.2785 H         1 <1>         0.0869
     23 H9          2.7513   -0.0563   -0.6956 H         1 <1>         0.0444
     24 H10         1.2544    0.0282    0.2245 H         1 <1>         0.0471
     25 H11         3.8454    3.3881    0.2140 H         1 <1>         0.0490
     26 H12         4.3051    1.9579   -0.7000 H         1 <1>         0.0502
     27 H13         1.8446    2.2508   -0.2823 H         1 <1>         0.0423
     28 H14         2.1025    2.0559    1.4430 H         1 <1>         0.0403
     29 H15         7.3443    0.6715    1.3963 H         1 <1>         0.3407
@<TRIPOS>BOND
     1    1    2 ar
     2    1    3 ar
     3    2    4 ar
     4    3    5 ar
     5    4    7 ar
     6    5    6 1
     7    5    7 ar
     8    6    8 2
     9    6    9 1
    10    7   14 1
    11    8   10 1
    12    8   14 1
    13    9   11 1
    14   10   12 1
    15   11   13 1
    16   12   13 1
    17    1   15 1
    18    2   16 1
    19    3   17 1
    20    4   18 1
    21    9   19 1
    22    9   20 1
    23   10   21 1
    24   10   22 1
    25   11   23 1
    26   11   24 1
    27   12   25 1
    28   12   26 1
    29   13   27 1
    30   13   28 1
    31   14   29 1
@<TRIPOS>Similarity
1.4966
@<TRIPOS>ShapeSim
0.9446
@<TRIPOS>PharmSim
0.5519
# END
# Name:		AH-262/10804012
# Created and modified by SHAFTS on Sun Jan  8 14:48:48 2012

# 

@<TRIPOS>MOLECULE
AH-262/10804012
   35    36     0
SMALL
USER_CHARGE


@<TRIPOS>ATOM
      1 C1          5.9992   -4.0609    1.2553 C.ar      1 <1>        -0.1040
      2 C2          7.3257   -3.6742    1.0748 C.ar      1 <1>        -0.1014
      3 C3          5.0042   -3.1102    1.5106 C.ar      1 <1>        -0.0939
      4 C4          7.7000   -2.3292    1.1432 C.ar      1 <1>        -0.0796
      5 C5          5.5261    0.4980    1.7739 C.2       1 <1>        -0.0776
      6 C6          5.3577   -1.7482    1.5841 C.ar      1 <1>        -0.0763
      7 C7          4.6322   -0.5469    1.8195 C.2       1 <1>        -0.0896
      8 C8          6.6948   -1.3899    1.3991 C.ar      1 <1>        -0.0713
      9 C9          2.5962    0.9282   -1.3569 C.2       1 <1>         0.0600
     10 C10         2.7643    1.0994   -3.8709 C.3       1 <1>        -0.0435
     11 C11         0.9307    0.5804    1.3997 C.3       1 <1>        -0.0463
     12 C12         3.1813   -0.4303    2.0704 C.3       1 <1>        -0.0245
     13 C13         2.7895    0.1804   -2.6631 C.3       1 <1>         0.0368
     14 C14         2.4268    0.5116    1.0929 C.3       1 <1>        -0.0333
     15 N1          6.7675   -0.0204    1.5196 N.pl3     1 <1>        -0.3768
     16 N2          2.5934    0.0579   -0.2911 N.am      1 <1>        -0.3593
     17 O1          2.4651    2.1477   -1.2940 O.2       1 <1>        -0.4998
     18 H1          5.7325   -5.1128    1.1970 H         1 <1>         0.1102
     19 H2          8.0822   -4.4293    0.8776 H         1 <1>         0.1204
     20 H3          3.9745   -3.4277    1.6482 H         1 <1>         0.1251
     21 H4          8.7330   -2.0292    1.0036 H         1 <1>         0.1179
     22 H5          5.3911    1.5637    1.8979 H         1 <1>         0.1848
     23 H6          1.8134    1.6387   -3.9352 H         1 <1>         0.0406
     24 H7          3.5713    1.8355   -3.8067 H         1 <1>         0.0399
     25 H8          2.8923    0.5326   -4.7991 H         1 <1>         0.0397
     26 H9          0.4729   -0.4136    1.3378 H         1 <1>         0.0425
     27 H10         0.4049    1.2377    0.6979 H         1 <1>         0.0396
     28 H11         0.7518    0.9549    2.4127 H         1 <1>         0.0465
     29 H12         2.6873   -1.4241    2.0549 H         1 <1>         0.0779
     30 H13         3.0198   -0.0657    3.1055 H         1 <1>         0.0862
     31 H14         3.7499   -0.3462   -2.6224 H         1 <1>         0.0888
     32 H15         1.9955   -0.5691   -2.7555 H         1 <1>         0.0903
     33 H16         2.8430    1.5231    1.1657 H         1 <1>         0.1130
     34 H17         7.6153    0.5230    1.4328 H         1 <1>         0.3243
     35 H18         2.7101   -0.9258   -0.4681 H         1 <1>         0.2922
@<TRIPOS>BOND
     1    1    2 ar
     2    1    3 ar
     3    2    4 ar
     4    3    6 ar
     5    4    8 ar
     6    5    7 2
     7    5   15 1
     8    6    7 1
     9    6    8 ar
    10    7   12 1
    11    8   15 1
    12    9   13 1
    13    9   16 am
    14    9   17 2
    15   10   13 1
    16   11   14 1
    17   12   14 1
    18   14   16 1
    19    1   18 1
    20    2   19 1
    21    3   20 1
    22    4   21 1
    23    5   22 1
    24   10   23 1
    25   10   24 1
    26   10   25 1
    27   11   26 1
    28   11   27 1
    29   11   28 1
    30   12   29 1
    31   12   30 1
    32   13   31 1
    33   13   32 1
    34   14   33 1
    35   15   34 1
    36   16   35 1
@<TRIPOS>Similarity
1.4945
@<TRIPOS>ShapeSim
0.8578
@<TRIPOS>PharmSim
0.6366
# END
# Name:		Building
# Created and modified by SHAFTS on Sun Jan  8 14:48:48 2012

# 

@<TRIPOS>MOLECULE
Building
   24    25     0
SMALL
USER_CHARGE


@<TRIPOS>ATOM
      1 C1          7.6632   -3.2411    1.9874 C.ar      1 <1>        -0.1418
      2 C2          6.7339   -4.1435    1.4787 C.ar      1 <1>        -0.1128
      3 C3          7.3552   -1.8817    2.0494 C.ar      1 <1>        -0.0910
      4 C4          5.4932   -3.6904    1.0301 C.ar      1 <1>        -0.1150
      5 C5          5.7841   -0.0431    1.6573 C.ar      1 <1>        -0.0724
      6 C6          4.5433    0.4102    1.2086 C.ar      1 <1>        -0.1869
      7 C7          3.9220   -1.8517    0.6378 C.ar      1 <1>        -0.1738
      8 C8          6.1110   -1.4078    1.6023 C.ar      1 <1>        -0.0941
      9 C9          5.1661   -2.3256    1.0850 C.ar      1 <1>        -0.0081
     10 C10         3.6140   -0.4923    0.6999 C.ar      1 <1>         0.1451
     11 C11         2.3553    2.3213    0.1131 C.2       1 <1>         0.5011
     12 C12         1.8703    1.1127    0.8974 C.3       1 <1>        -0.0089
     13 O1          2.4843    3.3814    0.7878 O.co2     1 <1>        -0.5000
     14 O2          2.5750    2.1116   -1.1126 O.co2     1 <1>        -0.5000
     15 O3          2.4039   -0.0485    0.2628 O.3       1 <1>        -0.2801
     16 H1          8.6291   -3.5946    2.3358 H         1 <1>         0.1170
     17 H2          6.9740   -5.2019    1.4309 H         1 <1>         0.1184
     18 H3          8.0964   -1.1935    2.4503 H         1 <1>         0.1217
     19 H4          4.7825   -4.4138    0.6357 H         1 <1>         0.1254
     20 H5          6.4955    0.6804    2.0504 H         1 <1>         0.1276
     21 H6          4.3089    1.4701    1.2587 H         1 <1>         0.1321
     22 H7          3.1839   -2.5444    0.2374 H         1 <1>         0.1343
     23 H8          0.7772    1.0639    0.8815 H         1 <1>         0.0600
     24 H9          2.2152    1.1435    1.9354 H         1 <1>         0.0600
@<TRIPOS>BOND
     1    1    2 ar
     2    1    3 ar
     3    2    4 ar
     4    3    8 ar
     5    4    9 ar
     6    5    6 ar
     7    5    8 ar
     8    6   10 ar
     9    7    9 ar
    10    7   10 ar
    11    8    9 ar
    12   10   15 1
    13   11   12 1
    14   11   13 1
    15   11   14 2
    16   12   15 1
    17    1   16 1
    18    2   17 1
    19    3   18 1
    20    4   19 1
    21    5   20 1
    22    6   21 1
    23    7   22 1
    24   12   23 1
    25   12   24 1
@<TRIPOS>Similarity
1.4919
@<TRIPOS>ShapeSim
0.8852
@<TRIPOS>PharmSim
0.6067
# END
# Name:		AI-204/31730045
# Created and modified by SHAFTS on Sun Jan  8 14:48:48 2012

# 

@<TRIPOS>MOLECULE
AI-204/31730045
   24    25     0
SMALL
USER_CHARGE


@<TRIPOS>ATOM
      1 C1          2.9622    0.9564   -0.2200 C.1       1 <1>         0.0222
      2 C2          5.8589   -3.9095    1.5603 C.ar      1 <1>        -0.1001
      3 C3          7.1976   -3.5788    1.7611 C.ar      1 <1>        -0.0976
      4 C4          4.9100   -2.9186    1.2837 C.ar      1 <1>        -0.0876
      5 C5          7.6303   -2.2514    1.6921 C.ar      1 <1>        -0.0749
      6 C6          5.3227   -1.5734    1.2092 C.ar      1 <1>        -0.0602
      7 C7          4.6532   -0.3435    0.9559 C.2       1 <1>        -0.0379
      8 C8          6.6706   -1.2714    1.4148 C.ar      1 <1>        -0.0620
      9 C9          5.5901    0.6625    1.0118 C.2       1 <1>        -0.0323
     10 C10         5.1615    2.9167    2.5111 C.3       1 <1>         0.0017
     11 C11         3.2085   -0.1831    0.6841 C.3       1 <1>         0.0959
     12 N1          2.7768    1.8549   -0.9307 N.1       1 <1>        -0.4001
     13 N2          6.8039    0.0930    1.2889 N.pl3     1 <1>        -0.3626
     14 S1          5.4888    2.3743    0.8090 S.3       1 <1>        -0.1637
     15 H1          5.5465   -4.9488    1.6201 H         1 <1>         0.1150
     16 H2          7.9177   -4.3641    1.9762 H         1 <1>         0.1239
     17 H3          3.8701   -3.1930    1.1302 H         1 <1>         0.1298
     18 H4          8.6724   -1.9955    1.8496 H         1 <1>         0.1215
     19 H5          5.0702    4.0051    2.5435 H         1 <1>         0.0939
     20 H6          5.9824    2.6084    3.1632 H         1 <1>         0.0689
     21 H7          4.2318    2.4691    2.8710 H         1 <1>         0.0697
     22 H8          2.6424   -0.0288    1.6181 H         1 <1>         0.1563
     23 H9          2.7837   -1.0964    0.2344 H         1 <1>         0.1531
     24 H10         7.6720    0.6011    1.3866 H         1 <1>         0.3272
@<TRIPOS>BOND
     1    1   11 1
     2    1   12 3
     3    2    3 ar
     4    2    4 ar
     5    3    5 ar
     6    4    6 ar
     7    5    8 ar
     8    6    7 1
     9    6    8 ar
    10    7    9 2
    11    7   11 1
    12    8   13 1
    13    9   13 1
    14    9   14 1
    15   10   14 1
    16    2   15 1
    17    3   16 1
    18    4   17 1
    19    5   18 1
    20   10   19 1
    21   10   20 1
    22   10   21 1
    23   11   22 1
    24   11   23 1
    25   13   24 1
@<TRIPOS>Similarity
1.4917
@<TRIPOS>ShapeSim
0.8827
@<TRIPOS>PharmSim
0.6090
# END
# Name:		AN-858/37395001
# Created and modified by SHAFTS on Sun Jan  8 14:48:48 2012

# 

@<TRIPOS>MOLECULE
AN-858/37395001
   38    40     0
SMALL
USER_CHARGE


@<TRIPOS>ATOM
      1 C1          6.1338   -3.9867    1.2421 C.ar      1 <1>        -0.1055
      2 C2          7.4228   -3.4597    1.2117 C.ar      1 <1>        -0.1031
      3 C3          5.0173   -3.1448    1.2957 C.ar      1 <1>        -0.0911
      4 C4          7.6368   -2.0789    1.2331 C.ar      1 <1>        -0.0780
      5 C5          5.2055   -1.7475    1.3199 C.ar      1 <1>        -0.0709
      6 C6          4.3292   -0.6232    1.3741 C.2       1 <1>        -0.0879
      7 C7          6.5118   -1.2479    1.2870 C.ar      1 <1>        -0.0671
      8 C8          5.1173    0.5089    1.3578 C.2       1 <1>        -0.0890
      9 C9          2.2232    1.0528   -0.3948 C.2       1 <1>         0.1485
     10 C10         4.6515    1.9180    1.3400 C.3       1 <1>        -0.0193
     11 C11         3.1599    1.9884    1.7138 C.3       1 <1>        -0.0179
     12 C12         2.8280   -0.5694    1.4328 C.3       1 <1>        -0.0199
     13 C13         2.3078    0.8583    1.0939 C.3       1 <1>         0.0643
     14 C14         2.3230   -1.0036    2.8143 C.3       1 <1>        -0.0534
     15 C15         2.6746   -1.4489   -2.2393 C.3       1 <1>        -0.0342
     16 C16         1.7085   -0.2840   -2.2741 C.3       1 <1>         0.0223
     17 N1          6.4274    0.1270    1.3138 N.pl3     1 <1>        -0.3744
     18 O1          2.8125    1.9345   -1.0052 O.2       1 <1>        -0.4608
     19 O2          1.4011    0.1070   -0.9322 O.3       1 <1>        -0.3649
     20 H1          5.9916   -5.0640    1.2240 H         1 <1>         0.1057
     21 H2          8.2761   -4.1316    1.1701 H         1 <1>         0.1163
     22 H3          4.0185   -3.5718    1.3179 H         1 <1>         0.1333
     23 H4          8.6413   -1.6699    1.2078 H         1 <1>         0.1237
     24 H5          5.2352    2.5328    2.0341 H         1 <1>         0.0844
     25 H6          4.7976    2.3301    0.3343 H         1 <1>         0.0861
     26 H7          3.0678    1.9335    2.8064 H         1 <1>         0.0716
     27 H8          2.7666    2.9689    1.4184 H         1 <1>         0.0628
     28 H9          2.4300   -1.2776    0.6934 H         1 <1>         0.0896
     29 H10         1.2768    0.9661    1.4551 H         1 <1>         0.1230
     30 H11         2.7009   -0.3203    3.5699 H         1 <1>         0.0442
     31 H12         2.6733   -2.0096    3.0287 H         1 <1>         0.0423
     32 H13         1.2365   -0.9891    2.8244 H         1 <1>         0.0356
     33 H14         3.6043   -1.1698   -1.7356 H         1 <1>         0.0483
     34 H15         2.2314   -2.3025   -1.7160 H         1 <1>         0.0483
     35 H16         2.9101   -1.7853   -3.2545 H         1 <1>         0.0580
     36 H17         0.7809   -0.5697   -2.7791 H         1 <1>         0.1009
     37 H18         2.1531    0.5683   -2.7965 H         1 <1>         0.1009
     38 H19         7.2190    0.7553    1.2886 H         1 <1>         0.3269
@<TRIPOS>BOND
     1    1    2 ar
     2    1    3 ar
     3    2    4 ar
     4    3    5 ar
     5    4    7 ar
     6    5    6 1
     7    5    7 ar
     8    6    8 2
     9    6   12 1
    10    7   17 1
    11    8   10 1
    12    8   17 1
    13    9   13 1
    14    9   18 2
    15    9   19 1
    16   10   11 1
    17   11   13 1
    18   12   13 1
    19   12   14 1
    20   15   16 1
    21   16   19 1
    22    1   20 1
    23    2   21 1
    24    3   22 1
    25    4   23 1
    26   10   24 1
    27   10   25 1
    28   11   26 1
    29   11   27 1
    30   12   28 1
    31   13   29 1
    32   14   30 1
    33   14   31 1
    34   14   32 1
    35   15   33 1
    36   15   34 1
    37   15   35 1
    38   16   36 1
    39   16   37 1
    40   17   38 1
@<TRIPOS>Similarity
1.4884
@<TRIPOS>ShapeSim
0.8783
@<TRIPOS>PharmSim
0.6101
# END
# Name:		AH-262/01728005
# Created and modified by SHAFTS on Sun Jan  8 14:48:48 2012

# 

@<TRIPOS>MOLECULE
AH-262/01728005
   31    32     0
SMALL
USER_CHARGE


@<TRIPOS>ATOM
      1 C1          2.4345    1.0680   -0.2747 C.1       1 <1>         0.0799
      2 C2          6.2423   -3.9073    1.5723 C.ar      1 <1>        -0.0968
      3 C3          7.4960   -3.3082    1.4679 C.ar      1 <1>        -0.0951
      4 C4          5.0738   -3.1398    1.5056 C.ar      1 <1>        -0.0830
      5 C5          7.6227   -1.9270    1.2939 C.ar      1 <1>        -0.0730
      6 C6          5.1765   -1.7454    1.3305 C.ar      1 <1>        -0.0519
      7 C7          4.2309   -0.6874    1.2224 C.2       1 <1>         0.0098
      8 C8          6.4460   -1.1724    1.2289 C.ar      1 <1>        -0.0517
      9 C9          4.9317    0.4855    1.0607 C.2       1 <1>         0.0531
     10 C10         2.8216   -0.7839    1.2693 C.2       1 <1>         0.0105
     11 C11         1.9737    0.0258    0.5865 C.2       1 <1>         0.1848
     12 C12         0.5100   -0.2361    0.7476 C.2       1 <1>         0.2095
     13 C13         5.5438    2.7644    0.7646 C.3       1 <1>         0.0424
     14 C14        -1.6049    0.8229    0.7080 C.3       1 <1>         0.0368
     15 N1          2.8055    1.9145   -0.9768 N.1       1 <1>        -0.3786
     16 N2          6.2669    0.1829    1.0656 N.pl3     1 <1>        -0.3255
     17 O1          0.0211   -1.3299    0.9930 O.2       1 <1>        -0.4463
     18 O2          4.5358    1.7428    0.9151 O.3       1 <1>        -0.3744
     19 O3         -0.1827    0.9249    0.5798 O.3       1 <1>        -0.3492
     20 H1          6.1691   -4.9833    1.7073 H         1 <1>         0.1217
     21 H2          8.3905   -3.9236    1.5219 H         1 <1>         0.1251
     22 H3          4.1049   -3.6240    1.5894 H         1 <1>         0.1334
     23 H4          8.5992   -1.4616    1.2123 H         1 <1>         0.1262
     24 H5          2.4092   -1.5978    1.8751 H         1 <1>         0.2125
     25 H6          5.0622    3.7393    0.6560 H         1 <1>         0.0956
     26 H7          6.1548    2.5478   -0.1153 H         1 <1>         0.0958
     27 H8          6.1785    2.7713    1.6538 H         1 <1>         0.1358
     28 H9         -2.0567    1.8062    0.5555 H         1 <1>         0.0955
     29 H10        -1.8559    0.4450    1.7022 H         1 <1>         0.0959
     30 H11        -1.9813    0.1304   -0.0486 H         1 <1>         0.1240
     31 H12         7.0126    0.8568    0.9636 H         1 <1>         0.3374
@<TRIPOS>BOND
     1    1   11 1
     2    1   15 3
     3    2    3 ar
     4    2    4 ar
     5    3    5 ar
     6    4    6 ar
     7    5    8 ar
     8    6    7 1
     9    6    8 ar
    10    7    9 2
    11    7   10 1
    12    8   16 1
    13    9   16 1
    14    9   18 1
    15   10   11 2
    16   11   12 1
    17   12   17 2
    18   12   19 1
    19   13   18 1
    20   14   19 1
    21    2   20 1
    22    3   21 1
    23    4   22 1
    24    5   23 1
    25   10   24 1
    26   13   25 1
    27   13   26 1
    28   13   27 1
    29   14   28 1
    30   14   29 1
    31   14   30 1
    32   16   31 1
@<TRIPOS>Similarity
1.4878
@<TRIPOS>ShapeSim
0.8819
@<TRIPOS>PharmSim
0.6059
# END
# Name:		AN-829/13156517
# Created and modified by SHAFTS on Sun Jan  8 14:48:48 2012

# 

@<TRIPOS>MOLECULE
AN-829/13156517
   21    21     0
SMALL
USER_CHARGE


@<TRIPOS>ATOM
      1 C1          4.8439   -2.6494    1.7138 C.ar      1 <1>        -0.1491
      2 C2          6.6341   -1.1239    1.1618 C.ar      1 <1>        -0.1986
      3 C3          5.6446   -3.7265    1.3342 C.ar      1 <1>        -0.0725
      4 C4          7.4350   -2.2011    0.7822 C.ar      1 <1>        -0.0673
      5 C5          5.3385   -1.3480    1.6276 C.ar      1 <1>         0.1485
      6 C6          6.9402   -3.5024    0.8684 C.ar      1 <1>        -0.0832
      7 C7          3.0628    1.4396    0.0569 C.2       1 <1>         0.4673
      8 C8          2.7572   -0.0171    0.4270 C.3       1 <1>        -0.1571
      9 C9          3.1478   -0.4452    1.8311 C.3       1 <1>         0.0756
     10 O1          2.7705    1.8000   -1.1158 O.co2     1 <1>        -0.5000
     11 O2          3.5816    2.1110    0.9957 O.co2     1 <1>        -0.5000
     12 O3          4.5572   -0.2968    1.9974 O.3       1 <1>        -0.3164
     13 Cl1         7.9277   -4.8310    0.3987 Cl        1 <1>        -0.0826
     14 H1          3.8356   -2.8309    2.0754 H         1 <1>         0.1385
     15 H2          7.0249   -0.1125    1.0920 H         1 <1>         0.1435
     16 H3          5.2458   -4.7354    1.4057 H         1 <1>         0.1359
     17 H4          8.4423   -2.0115    0.4201 H         1 <1>         0.1336
     18 H5          1.6765   -0.1578    0.3035 H         1 <1>         0.0768
     19 H6          3.2674   -0.6539   -0.3062 H         1 <1>         0.0767
     20 H7          2.6359    0.1484    2.5950 H         1 <1>         0.0668
     21 H8          2.8997   -1.5005    1.9820 H         1 <1>         0.0667
@<TRIPOS>BOND
     1    1    3 ar
     2    1    5 ar
     3    2    4 ar
     4    2    5 ar
     5    3    6 ar
     6    4    6 ar
     7    5   12 1
     8    6   13 1
     9    7    8 1
    10    7   10 1
    11    7   11 2
    12    8    9 1
    13    9   12 1
    14    1   14 1
    15    2   15 1
    16    3   16 1
    17    4   17 1
    18    8   18 1
    19    8   19 1
    20    9   20 1
    21    9   21 1
@<TRIPOS>Similarity
1.4867
@<TRIPOS>ShapeSim
0.8930
@<TRIPOS>PharmSim
0.5937
# END
# Name:		AG-690/11350932
# Created and modified by SHAFTS on Sun Jan  8 14:48:48 2012

# 

@<TRIPOS>MOLECULE
AG-690/11350932
   22    23     0
SMALL
USER_CHARGE


@<TRIPOS>ATOM
      1 C1          0.7412    0.1585    1.2591 C.1       1 <1>         0.0914
      2 C2          2.5445    1.1377   -0.0999 C.1       1 <1>         0.0905
      3 C3          6.1174   -3.8107    0.6571 C.ar      1 <1>        -0.0976
      4 C4          7.4077   -3.2934    0.5616 C.ar      1 <1>        -0.0953
      5 C5          5.0315   -2.9777    0.9500 C.ar      1 <1>        -0.0869
      6 C6          7.6543   -1.9311    0.7547 C.ar      1 <1>        -0.0747
      7 C7          5.2102    0.6271    1.5286 C.2       1 <1>        -0.0456
      8 C8          5.2556   -1.6008    1.1488 C.ar      1 <1>        -0.0638
      9 C9          4.4153   -0.4933    1.4529 C.2       1 <1>        -0.0349
     10 C10         6.5591   -1.1103    1.0468 C.ar      1 <1>        -0.0606
     11 C11         3.0169   -0.4933    1.6507 C.2       1 <1>         0.0084
     12 C12         2.1306    0.2487    0.9388 C.2       1 <1>         0.1932
     13 N1         -0.3880    0.0861    1.5173 N.1       1 <1>        -0.3688
     14 N2          2.8762    1.8624   -0.9437 N.1       1 <1>        -0.3747
     15 N3          6.5016    0.2450    1.2819 N.pl3     1 <1>        -0.3572
     16 H1          5.9505   -4.8732    0.5008 H         1 <1>         0.1205
     17 H2          8.2362   -3.9587    0.3328 H         1 <1>         0.1259
     18 H3          4.0320   -3.3978    1.0200 H         1 <1>         0.1324
     19 H4          8.6590   -1.5288    0.6790 H         1 <1>         0.1260
     20 H5          4.9788    1.6634    1.7355 H         1 <1>         0.2216
     21 H6          2.6305   -1.1144    2.4681 H         1 <1>         0.2086
     22 H7          7.2975    0.8677    1.2737 H         1 <1>         0.3416
@<TRIPOS>BOND
     1    1   12 1
     2    1   13 3
     3    2   12 1
     4    2   14 3
     5    3    4 ar
     6    3    5 ar
     7    4    6 ar
     8    5    8 ar
     9    6   10 ar
    10    7    9 2
    11    7   15 1
    12    8    9 1
    13    8   10 ar
    14    9   11 1
    15   10   15 1
    16   11   12 2
    17    3   16 1
    18    4   17 1
    19    5   18 1
    20    6   19 1
    21    7   20 1
    22   11   21 1
    23   15   22 1
@<TRIPOS>Similarity
1.4863
@<TRIPOS>ShapeSim
0.8732
@<TRIPOS>PharmSim
0.6130
# END
# Name:		AE-473/30364030
# Created and modified by SHAFTS on Sun Jan  8 14:48:48 2012

# 

@<TRIPOS>MOLECULE
AE-473/30364030
   39    40     0
SMALL
USER_CHARGE


@<TRIPOS>ATOM
      1 C1          4.8160   -2.8498    1.1374 C.ar      1 <1>        -0.0913
      2 C2          5.7130   -3.9241    1.1203 C.ar      1 <1>        -0.0993
      3 C3          7.5964   -2.4262    1.4571 C.ar      1 <1>        -0.0769
      4 C4          5.7147    0.6658    1.5768 C.2       1 <1>        -0.0773
      5 C5          5.3120   -1.5432    1.3168 C.ar      1 <1>        -0.0809
      6 C6          7.0813   -3.7133    1.2778 C.ar      1 <1>        -0.1101
      7 C7          4.7108   -0.2552    1.3847 C.2       1 <1>        -0.0959
      8 C8          6.6880   -1.3620    1.4722 C.ar      1 <1>        -0.0701
      9 C9          8.0142   -4.8787    1.2536 C.3       1 <1>        -0.0412
     10 C10         0.9639   -2.4445   -0.3717 C.3       1 <1>        -0.0724
     11 C11        -1.0372   -1.0640    0.2176 C.3       1 <1>        -0.0715
     12 C12         3.2384    0.0560    1.2693 C.3       1 <1>        -0.0067
     13 C13         1.2009    0.0577   -0.2928 C.3       1 <1>        -0.0278
     14 C14         0.4853   -1.1658    0.3228 C.3       1 <1>        -0.0767
     15 C15         2.7316    0.0510   -0.1788 C.3       1 <1>         0.0820
     16 N1          6.9036   -0.0112    1.6280 N.pl3     1 <1>        -0.3735
     17 N2          3.2373    1.2997   -0.7996 N.pl3     1 <1>        -0.0800
     18 O1          4.4631    1.4763   -0.8037 O.3       1 <1>        -0.1728
     19 O2          2.3964    2.0683   -1.2860 O.2       1 <1>        -0.2608
     20 H1          3.7520   -3.0290    1.0119 H         1 <1>         0.1330
     21 H2          5.3260   -4.9309    0.9805 H         1 <1>         0.1156
     22 H3          8.6612   -2.2550    1.5791 H         1 <1>         0.1195
     23 H4          5.6919    1.7416    1.6824 H         1 <1>         0.1925
     24 H5          8.3534   -5.0732    0.2293 H         1 <1>         0.0577
     25 H6          8.8935   -4.6964    1.8840 H         1 <1>         0.0535
     26 H7          7.5281   -5.7841    1.6385 H         1 <1>         0.0567
     27 H8          0.7280   -2.4288   -1.4413 H         1 <1>         0.0309
     28 H9          2.0472   -2.5636   -0.2643 H         1 <1>         0.0342
     29 H10         0.4875   -3.3276    0.0674 H         1 <1>         0.0360
     30 H11        -1.3583   -0.9784   -0.8261 H         1 <1>         0.0351
     31 H12        -1.4184   -0.1968    0.7647 H         1 <1>         0.0364
     32 H13        -1.5164   -1.9511    0.6463 H         1 <1>         0.0350
     33 H14         2.6578   -0.6504    1.8786 H         1 <1>         0.0998
     34 H15         3.0677    1.0398    1.7293 H         1 <1>         0.0925
     35 H16         0.8094    0.9603    0.1933 H         1 <1>         0.0787
     36 H17         0.9173    0.1330   -1.3518 H         1 <1>         0.0714
     37 H18         0.7523   -1.2492    1.3831 H         1 <1>         0.0433
     38 H19         3.1828   -0.7662   -0.7482 H         1 <1>         0.1536
     39 H20         7.8088    0.4183    1.7603 H         1 <1>         0.3279
@<TRIPOS>BOND
     1    1    2 ar
     2    1    5 ar
     3    2    6 ar
     4    3    6 ar
     5    3    8 ar
     6    4    7 2
     7    4   16 1
     8    5    7 1
     9    5    8 ar
    10    6    9 1
    11    7   12 1
    12    8   16 1
    13   10   14 1
    14   11   14 1
    15   12   15 1
    16   13   14 1
    17   13   15 1
    18   15   17 1
    19   17   18 1
    20   17   19 2
    21    1   20 1
    22    2   21 1
    23    3   22 1
    24    4   23 1
    25    9   24 1
    26    9   25 1
    27    9   26 1
    28   10   27 1
    29   10   28 1
    30   10   29 1
    31   11   30 1
    32   11   31 1
    33   11   32 1
    34   12   33 1
    35   12   34 1
    36   13   35 1
    37   13   36 1
    38   14   37 1
    39   15   38 1
    40   16   39 1
@<TRIPOS>Similarity
1.4840
@<TRIPOS>ShapeSim
0.8768
@<TRIPOS>PharmSim
0.6072
# END
# Name:		Building
# Created and modified by SHAFTS on Sun Jan  8 14:48:48 2012

# 

@<TRIPOS>MOLECULE
Building
   22    22     0
SMALL
USER_CHARGE


@<TRIPOS>ATOM
      1 C1          7.1095   -3.0775    1.3147 C.ar      1 <1>        -0.1373
      2 C2          5.8360   -3.6447    1.3565 C.ar      1 <1>        -0.1155
      3 C3          7.2542   -1.6910    1.2641 C.ar      1 <1>        -0.1756
      4 C4          4.7069   -2.8257    1.3477 C.ar      1 <1>        -0.1856
      5 C5          6.1251   -0.8719    1.2553 C.ar      1 <1>         0.0883
      6 C6          4.8515   -1.4392    1.2971 C.ar      1 <1>         0.1135
      7 C7          3.2326    1.1952   -0.1175 C.2       1 <1>         0.5012
      8 C8          6.3747    1.1693    2.4498 C.3       1 <1>         0.0282
      9 C9          3.1922   -0.3187    0.0138 C.3       1 <1>        -0.0082
     10 O1          2.7938    1.6502   -1.2115 O.co2     1 <1>        -0.5000
     11 O2          3.6929    1.8081    0.8861 O.co2     1 <1>        -0.5000
     12 O3          6.2796    0.4806    1.2045 O.3       1 <1>        -0.2990
     13 O4          3.7412   -0.6501    1.2877 O.3       1 <1>        -0.2705
     14 H1          7.9888   -3.7154    1.3217 H         1 <1>         0.1200
     15 H2          5.7234   -4.7241    1.3958 H         1 <1>         0.1212
     16 H3          8.2492   -1.2553    1.2318 H         1 <1>         0.1289
     17 H4          3.7178   -3.2742    1.3788 H         1 <1>         0.1345
     18 H5          6.4951    2.2399    2.2667 H         1 <1>         0.0499
     19 H6          7.2289    0.7870    3.0143 H         1 <1>         0.0973
     20 H7          5.4584    1.0004    3.0203 H         1 <1>         0.0499
     21 H8          3.7948   -0.7838   -0.7723 H         1 <1>         0.0585
     22 H9          2.1678   -0.6991   -0.0442 H         1 <1>         0.0585
@<TRIPOS>BOND
     1    1    2 ar
     2    1    3 ar
     3    2    4 ar
     4    3    5 ar
     5    4    6 ar
     6    5    6 ar
     7    5   12 1
     8    6   13 1
     9    7    9 1
    10    7   10 1
    11    7   11 2
    12    8   12 1
    13    9   13 1
    14    1   14 1
    15    2   15 1
    16    3   16 1
    17    4   17 1
    18    8   18 1
    19    8   19 1
    20    8   20 1
    21    9   21 1
    22    9   22 1
@<TRIPOS>Similarity
1.4809
@<TRIPOS>ShapeSim
0.9078
@<TRIPOS>PharmSim
0.5731
# END
# Name:		AQ-086/11638134
# Created and modified by SHAFTS on Sun Jan  8 14:48:48 2012

# 

@<TRIPOS>MOLECULE
AQ-086/11638134
   23    24     0
SMALL
USER_CHARGE


@<TRIPOS>ATOM
      1 C1          7.0208   -3.6170    1.1572 C.ar      1 <1>        -0.1329
      2 C2          5.6512   -3.8526    1.0170 C.ar      1 <1>        -0.1110
      3 C3          7.5079   -2.3318    1.4266 C.ar      1 <1>        -0.0699
      4 C4          4.7199   -2.8162    1.1406 C.ar      1 <1>        -0.1027
      5 C5          5.6005    0.5958    1.8266 C.2       1 <1>         0.2608
      6 C6          6.5864   -1.2786    1.5538 C.ar      1 <1>         0.0410
      7 C7          5.2277   -1.5446    1.4090 C.ar      1 <1>         0.0472
      8 C8          3.3359    1.0732   -0.7753 C.2       1 <1>         0.4663
      9 C9          2.6816    0.0056    0.1068 C.3       1 <1>        -0.1729
     10 C10         3.2040   -0.0560    1.5372 C.3       1 <1>         0.1253
     11 N1          6.7987    0.0560    1.8129 N.2       1 <1>        -0.5087
     12 N2          4.6211   -0.3279    1.5884 N.pl3     1 <1>        -0.4820
     13 O1          4.5771    0.9042   -0.9540 O.co2     1 <1>        -0.5000
     14 O2          2.5816    1.9822   -1.2176 O.co2     1 <1>        -0.5000
     15 H1          7.7203   -4.4430    1.0558 H         1 <1>         0.1244
     16 H2          5.3011   -4.8605    0.8078 H         1 <1>         0.1264
     17 H3          8.5740   -2.1593    1.5343 H         1 <1>         0.1239
     18 H4          3.6569   -2.9999    1.0317 H         1 <1>         0.1230
     19 H5          5.3818    1.6403    2.0020 H         1 <1>         0.2113
     20 H6          2.8272   -0.9661   -0.3824 H         1 <1>         0.0722
     21 H7          1.6009    0.1968    0.1153 H         1 <1>         0.0710
     22 H8          2.6941   -0.8394    2.1112 H         1 <1>         0.0913
     23 H9          3.0274    0.8901    2.0635 H         1 <1>         0.0987
@<TRIPOS>BOND
     1    1    2 ar
     2    1    3 ar
     3    2    4 ar
     4    3    6 ar
     5    4    7 ar
     6    5   11 2
     7    5   12 1
     8    6    7 ar
     9    6   11 1
    10    7   12 1
    11    8    9 1
    12    8   13 1
    13    8   14 2
    14    9   10 1
    15   10   12 1
    16    1   15 1
    17    2   16 1
    18    3   17 1
    19    4   18 1
    20    5   19 1
    21    9   20 1
    22    9   21 1
    23   10   22 1
    24   10   23 1
@<TRIPOS>Similarity
1.4761
@<TRIPOS>ShapeSim
0.9110
@<TRIPOS>PharmSim
0.5651
# END
# Name:		AG-690/11081038
# Created and modified by SHAFTS on Sun Jan  8 14:48:48 2012

# 

@<TRIPOS>MOLECULE
AG-690/11081038
   22    24     0
SMALL
USER_CHARGE


@<TRIPOS>ATOM
      1 C1          6.3988   -4.0728    1.5455 C.ar      1 <1>        -0.0964
      2 C2          7.6112   -3.4272    1.7994 C.ar      1 <1>        -0.1012
      3 C3          5.2488   -3.3444    1.2161 C.ar      1 <1>        -0.0639
      4 C4          7.7195   -2.0341    1.7337 C.ar      1 <1>        -0.0791
      5 C5          5.3394   -1.9440    1.1459 C.ar      1 <1>        -0.0227
      6 C6          6.5613   -1.3293    1.4040 C.ar      1 <1>        -0.0437
      7 C7          3.0128    1.4512    0.0512 C.2       1 <1>         0.0338
      8 C8          4.9889    0.1505    0.9217 C.2       1 <1>         0.0199
      9 C9          4.3953    1.4801    0.6878 C.3       1 <1>         0.0807
     10 N1          2.7135    2.1027   -1.0886 N.2       1 <1>        -0.3178
     11 N2          4.3747   -1.0090    0.8481 N.2       1 <1>        -0.3683
     12 N3          1.9753    0.7715    0.5755 N.2       1 <1>        -0.3191
     13 N4          1.4039    1.8127   -1.2916 N.2       1 <1>        -0.2509
     14 N5          0.9602    1.0131   -0.2919 N.2       1 <1>        -0.2545
     15 N6          6.3079    0.0100    1.2535 N.pl3     1 <1>        -0.3344
     16 H1          6.3464   -5.1570    1.6038 H         1 <1>         0.1142
     17 H2          8.4877   -4.0181    2.0541 H         1 <1>         0.1170
     18 H3          4.3120   -3.8559    1.0198 H         1 <1>         0.1370
     19 H4          8.6598   -1.5315    1.9293 H         1 <1>         0.1204
     20 H5          5.0533    2.1096    0.0528 H         1 <1>         0.1376
     21 H6          4.3284    2.0633    1.6300 H         1 <1>         0.1524
     22 H7          6.9792    0.7579    1.3672 H         1 <1>         0.3392
@<TRIPOS>BOND
     1    1    2 ar
     2    1    3 ar
     3    2    4 ar
     4    3    5 ar
     5    4    6 ar
     6    5    6 ar
     7    5   11 1
     8    6   15 1
     9    7    9 1
    10    7   10 1
    11    7   12 2
    12    8    9 1
    13    8   11 2
    14    8   15 1
    15   10   13 1
    16   12   14 1
    17   13   14 2
    18    1   16 1
    19    2   17 1
    20    3   18 1
    21    4   19 1
    22    9   20 1
    23    9   21 1
    24   15   22 1
@<TRIPOS>Similarity
1.4689
@<TRIPOS>ShapeSim
0.8997
@<TRIPOS>PharmSim
0.5691
# END
# Name:		AG-205/05987063
# Created and modified by SHAFTS on Sun Jan  8 14:48:48 2012

# 

@<TRIPOS>MOLECULE
AG-205/05987063
   32    33     0
SMALL
USER_CHARGE


@<TRIPOS>ATOM
      1 C1          7.1198   -0.2695    1.7858 C.ar      1 <1>        -0.0995
      2 C2          6.1475    0.7191    1.6379 C.ar      1 <1>        -0.0771
      3 C3          4.5067   -0.9753    1.1311 C.ar      1 <1>        -0.0600
      4 C4          6.7977   -1.6225    1.6001 C.ar      1 <1>        -0.1059
      5 C5          5.4731   -1.9804    1.2873 C.ar      1 <1>        -0.0988
      6 C6          4.8421    0.3666    1.3083 C.ar      1 <1>        -0.0240
      7 C7          7.8691   -2.6647    1.8020 C.3       1 <1>        -0.0450
      8 C8          5.0790   -3.4178    1.0548 C.3       1 <1>        -0.0397
      9 C9          7.5048   -4.0263    1.2132 C.3       1 <1>        -0.0631
     10 C10         6.0886   -4.4181    1.6145 C.3       1 <1>        -0.0614
     11 C11         1.6977    0.3695    0.9623 C.3       1 <1>        -0.0840
     12 C12         2.8352    1.0639    0.2397 C.3       1 <1>         0.0075
     13 N1          0.6166    0.0613   -0.0075 N.4       1 <1>         0.4490
     14 O1          3.8932    1.3306    1.1593 O.3       1 <1>        -0.4277
     15 H1          8.1345    0.0208    2.0478 H         1 <1>         0.1281
     16 H2          6.4155    1.7623    1.7813 H         1 <1>         0.1081
     17 H3          3.4848   -1.2419    0.8696 H         1 <1>         0.1282
     18 H4          8.8094   -2.3264    1.3504 H         1 <1>         0.0652
     19 H5          8.0391   -2.7715    2.8809 H         1 <1>         0.0670
     20 H6          4.0999   -3.6148    1.5081 H         1 <1>         0.0708
     21 H7          4.9794   -3.5713   -0.0272 H         1 <1>         0.0688
     22 H8          7.5802   -3.9921    0.1189 H         1 <1>         0.0450
     23 H9          8.2190   -4.7812    1.5612 H         1 <1>         0.0499
     24 H10         6.0130   -4.4515    2.7088 H         1 <1>         0.0504
     25 H11         5.8546   -5.4226    1.2449 H         1 <1>         0.0462
     26 H12         1.2497    1.0046    1.7318 H         1 <1>         0.1133
     27 H13         2.0143   -0.5841    1.3928 H         1 <1>         0.1054
     28 H14         3.2281    0.4126   -0.5471 H         1 <1>         0.1255
     29 H15         2.5112    2.0067   -0.2131 H         1 <1>         0.1098
     30 H16        -0.1430   -0.4579    0.4443 H         1 <1>         0.1456
     31 H17         0.9726   -0.5080   -0.7824 H         1 <1>         0.1495
     32 H18         0.2223    0.9219   -0.4013 H         1 <1>         0.1529
@<TRIPOS>BOND
     1    1    2 ar
     2    1    4 ar
     3    2    6 ar
     4    3    5 ar
     5    3    6 ar
     6    4    5 ar
     7    4    7 1
     8    5    8 1
     9    6   14 1
    10    7    9 1
    11    8   10 1
    12    9   10 1
    13   11   12 1
    14   11   13 1
    15   12   14 1
    16    1   15 1
    17    2   16 1
    18    3   17 1
    19    7   18 1
    20    7   19 1
    21    8   20 1
    22    8   21 1
    23    9   22 1
    24    9   23 1
    25   10   24 1
    26   10   25 1
    27   11   26 1
    28   11   27 1
    29   12   28 1
    30   12   29 1
    31   13   30 1
    32   13   31 1
    33   13   32 1
@<TRIPOS>Similarity
1.4650
@<TRIPOS>ShapeSim
0.9140
@<TRIPOS>PharmSim
0.5510
# END
# Name:		AN-967/15488286
# Created and modified by SHAFTS on Sun Jan  8 14:48:48 2012

# 

@<TRIPOS>MOLECULE
AN-967/15488286
   32    32     0
SMALL
USER_CHARGE


@<TRIPOS>ATOM
      1 C1          2.5041    1.1140   -0.6217 C.1       1 <1>        -0.0105
      2 C2          5.1841    0.0937    1.3013 C.ar      1 <1>        -0.1013
      3 C3          6.4929   -0.3872    1.2672 C.ar      1 <1>        -0.0648
      4 C4          4.3551   -2.1717    1.4349 C.ar      1 <1>        -0.0513
      5 C5          4.1151   -0.7985    1.3853 C.ar      1 <1>        -0.0964
      6 C6          6.7329   -1.7604    1.3170 C.ar      1 <1>         0.0279
      7 C7          5.6640   -2.6526    1.4008 C.ar      1 <1>         0.0335
      8 C8          0.1275    0.9825    0.8880 C.3       1 <1>        -0.1935
      9 C9          8.6796   -2.3794    2.5347 C.3       1 <1>         0.0234
     10 C10         5.9375   -4.6894    0.2041 C.3       1 <1>         0.0236
     11 C11         2.7158   -0.2843    1.4242 C.3       1 <1>        -0.0202
     12 C12         2.0718   -0.1325    0.0298 C.3       1 <1>        -0.0594
     13 N1          2.8472    2.0957   -1.1368 N.1       1 <1>        -0.3982
     14 N2          0.6309   -0.1526    0.1179 N.3       1 <1>         0.3413
     15 O1          8.0160   -2.2172    1.2828 O.3       1 <1>        -0.4119
     16 O2          5.8858   -3.9959    1.4492 O.3       1 <1>        -0.4106
     17 H1          5.0066    1.1652    1.2638 H         1 <1>         0.1173
     18 H2          7.3208    0.3134    1.2014 H         1 <1>         0.1194
     19 H3          3.5237   -2.8693    1.5009 H         1 <1>         0.1342
     20 H4          0.4443    1.9208    0.4251 H         1 <1>         0.0443
     21 H5          0.5134    0.9466    1.9104 H         1 <1>         0.0404
     22 H6         -0.9650    0.9596    0.9249 H         1 <1>         0.0070
     23 H7          9.6939   -2.7489    2.3651 H         1 <1>         0.1210
     24 H8          8.1220   -3.0857    3.1549 H         1 <1>         0.0876
     25 H9          8.7265   -1.4118    3.0401 H         1 <1>         0.0876
     26 H10         6.1199   -5.7515    0.3851 H         1 <1>         0.1197
     27 H11         6.7363   -4.2717   -0.4139 H         1 <1>         0.0903
     28 H12         4.9809   -4.5688   -0.3099 H         1 <1>         0.0870
     29 H13         2.7058    0.6931    1.9395 H         1 <1>         0.0892
     30 H14         2.0827   -0.9363    2.0539 H         1 <1>         0.0884
     31 H15         2.3532   -0.9799   -0.6060 H         1 <1>         0.1365
     32 H16         0.3216   -1.0175    0.5703 H         1 <1>        -0.0013
@<TRIPOS>BOND
     1    1   12 1
     2    1   13 3
     3    2    3 ar
     4    2    5 ar
     5    3    6 ar
     6    4    5 ar
     7    4    7 ar
     8    5   11 1
     9    6    7 ar
    10    6   15 1
    11    7   16 1
    12    8   14 1
    13    9   15 1
    14   10   16 1
    15   11   12 1
    16   12   14 1
    17    2   17 1
    18    3   18 1
    19    4   19 1
    20    8   20 1
    21    8   21 1
    22    8   22 1
    23    9   23 1
    24    9   24 1
    25    9   25 1
    26   10   26 1
    27   10   27 1
    28   10   28 1
    29   11   29 1
    30   11   30 1
    31   12   31 1
    32   14   32 1
@<TRIPOS>Similarity
1.4590
@<TRIPOS>ShapeSim
0.9013
@<TRIPOS>PharmSim
0.5577
# END
# Name:		AI-204/31701021
# Created and modified by SHAFTS on Sun Jan  8 14:48:48 2012

# 

@<TRIPOS>MOLECULE
AI-204/31701021
   29    31     0
SMALL
USER_CHARGE


@<TRIPOS>ATOM
      1 C1          5.9187   -4.1212    1.2075 C.ar      1 <1>        -0.0928
      2 C2          7.2403   -3.7326    1.0273 C.ar      1 <1>        -0.0837
      3 C3          4.9436   -3.1549    1.4378 C.ar      1 <1>        -0.0819
      4 C4          7.5839   -2.3793    1.0776 C.ar      1 <1>        -0.0510
      5 C5          4.7018    0.5352    1.7626 C.ar      1 <1>        -0.0467
      6 C6          6.0364    0.8312    1.5729 C.ar      1 <1>        -0.0256
      7 C7          5.2896   -1.7938    1.4883 C.ar      1 <1>        -0.0381
      8 C8          4.3284   -0.8003    1.7186 C.ar      1 <1>        -0.0181
      9 C9          6.6294   -1.3920    1.3061 C.ar      1 <1>        -0.0206
     10 C10         2.0569    1.4406   -0.0114 C.2       1 <1>         0.2507
     11 C11         2.9146   -1.1035    1.9195 C.2       1 <1>         0.0453
     12 C12         3.2309   -0.3391   -0.9353 C.3       1 <1>         0.0388
     13 C13         3.5950    0.9515   -1.6321 C.3       1 <1>         0.0729
     14 N1          6.9948   -0.0968    1.3483 N.ar      1 <1>        -0.3827
     15 N2          1.9821   -0.6412    1.1394 N.2       1 <1>        -0.2885
     16 N3          2.4352    0.1316    0.1438 N.am      1 <1>        -0.2387
     17 O1          1.3090    2.0989    0.6977 O.2       1 <1>        -0.4122
     18 O2          2.6588    1.9324   -1.1445 O.3       1 <1>        -0.3081
     19 H1          5.6479   -5.1719    1.1692 H         1 <1>         0.1299
     20 H2          8.0078   -4.4796    0.8470 H         1 <1>         0.1313
     21 H3          3.9176   -3.4871    1.5757 H         1 <1>         0.1297
     22 H4          8.6263   -2.1007    0.9340 H         1 <1>         0.1486
     23 H5          3.9819    1.3271    1.9396 H         1 <1>         0.1362
     24 H6          6.3872    1.8577    1.5958 H         1 <1>         0.2135
     25 H7          2.6545   -1.7572    2.7815 H         1 <1>         0.2641
     26 H8          2.6126   -0.9812   -1.5718 H         1 <1>         0.1172
     27 H9          4.1038   -0.8968   -0.5842 H         1 <1>         0.1229
     28 H10         4.6042    1.2877   -1.3722 H         1 <1>         0.1427
     29 H11         3.5164    0.8722   -2.7202 H         1 <1>         0.1448
@<TRIPOS>BOND
     1    1    2 ar
     2    1    3 ar
     3    2    4 ar
     4    3    7 ar
     5    4    9 ar
     6    5    6 ar
     7    5    8 ar
     8    6   14 ar
     9    7    8 ar
    10    7    9 ar
    11    8   11 1
    12    9   14 ar
    13   10   16 am
    14   10   17 2
    15   10   18 1
    16   11   15 2
    17   12   13 1
    18   12   16 1
    19   13   18 1
    20   15   16 1
    21    1   19 1
    22    2   20 1
    23    3   21 1
    24    4   22 1
    25    5   23 1
    26    6   24 1
    27   11   25 1
    28   12   26 1
    29   12   27 1
    30   13   28 1
    31   13   29 1
@<TRIPOS>Similarity
1.4578
@<TRIPOS>ShapeSim
0.8978
@<TRIPOS>PharmSim
0.5600
# END
# Name:		AJ-292/13893310
# Created and modified by SHAFTS on Sun Jan  8 14:48:48 2012

# 

@<TRIPOS>MOLECULE
AJ-292/13893310
   31    33     0
SMALL
USER_CHARGE


@<TRIPOS>ATOM
      1 C1          6.4158   -1.3893    1.6272 C.2       1 <1>        -0.2407
      2 C2          5.1094   -1.5707    1.2920 C.2       1 <1>         0.0747
      3 C3          6.6178   -0.0284    1.7182 C.2       1 <1>         0.0782
      4 C4          3.2056    1.3319    0.1114 C.2       1 <1>         0.4526
      5 C5          4.6626   -2.9698    1.1310 C.3       1 <1>        -0.0205
      6 C6          7.1030   -2.7442    1.7615 C.3       1 <1>        -0.0565
      7 C7          5.9569   -3.7487    1.4668 C.3       1 <1>        -0.1580
      8 C8          7.1799   -3.6838    0.5898 C.3       1 <1>        -0.1000
      9 C9          7.8477    0.7043    2.0503 C.3       1 <1>        -0.0631
     10 C10         7.0666   -3.1368   -0.7938 C.3       1 <1>        -0.1136
     11 C11         8.1463   -4.8152    0.6942 C.3       1 <1>        -0.1082
     12 C12         3.2097    0.0040    0.8509 C.3       1 <1>         0.0823
     13 N1          5.4786    0.6398    1.4491 N.2       1 <1>        -0.2807
     14 N2          4.5679   -0.3392    1.1895 N.pl3     1 <1>        -0.3137
     15 O1          3.6825    2.3080    0.7562 O.co2     1 <1>        -0.5000
     16 O2          2.7109    1.2986   -1.0507 O.co2     1 <1>        -0.5000
     17 H1          3.8765   -3.2220    1.8486 H         1 <1>         0.0888
     18 H2          4.3241   -3.1893    0.1150 H         1 <1>         0.0806
     19 H3          7.7072   -2.9205    2.6415 H         1 <1>         0.1061
     20 H4          5.8124   -4.5860    2.1348 H         1 <1>         0.1214
     21 H5          8.4371    0.9348    1.1450 H         1 <1>         0.0683
     22 H6          7.6408    1.6626    2.5619 H         1 <1>         0.0671
     23 H7          8.5038    0.1353    2.7350 H         1 <1>         0.0706
     24 H8          7.1396   -3.9334   -1.5507 H         1 <1>         0.0575
     25 H9          7.8640   -2.4079   -1.0070 H         1 <1>         0.0532
     26 H10         6.1040   -2.6248   -0.9484 H         1 <1>         0.0584
     27 H11         8.1306   -5.4457   -0.2088 H         1 <1>         0.0569
     28 H12         7.9161   -5.4663    1.5522 H         1 <1>         0.0592
     29 H13         9.1790   -4.4549    0.8241 H         1 <1>         0.0603
     30 H14         2.6222    0.0575    1.7740 H         1 <1>         0.0987
     31 H15         2.7892   -0.7994    0.2359 H         1 <1>         0.0951
@<TRIPOS>BOND
     1    1    2 2
     2    1    3 1
     3    1    6 1
     4    2    5 1
     5    2   14 1
     6    3    9 1
     7    3   13 2
     8    4   12 1
     9    4   15 1
    10    4   16 2
    11    5    7 1
    12    6    7 1
    13    6    8 1
    14    7    8 1
    15    8   10 1
    16    8   11 1
    17   12   14 1
    18   13   14 1
    19    5   17 1
    20    5   18 1
    21    6   19 1
    22    7   20 1
    23    9   21 1
    24    9   22 1
    25    9   23 1
    26   10   24 1
    27   10   25 1
    28   10   26 1
    29   11   27 1
    30   11   28 1
    31   11   29 1
    32   12   30 1
    33   12   31 1
@<TRIPOS>Similarity
1.4573
@<TRIPOS>ShapeSim
0.8738
@<TRIPOS>PharmSim
0.5835
# END
# Name:		AG-690/36921269
# Created and modified by SHAFTS on Sun Jan  8 14:48:48 2012

# 

@<TRIPOS>MOLECULE
AG-690/36921269
   25    26     0
SMALL
USER_CHARGE


@<TRIPOS>ATOM
      1 C1          6.0293   -3.8489    0.8244 C.ar      1 <1>        -0.0912
      2 C2          7.0058   -3.4048    1.7245 C.ar      1 <1>        -0.0911
      3 C3          5.0417   -2.9767    0.3530 C.ar      1 <1>        -0.0682
      4 C4          7.0088   -2.0830    2.1657 C.ar      1 <1>        -0.0716
      5 C5          5.0330   -1.6541    0.7860 C.ar      1 <1>        -0.0411
      6 C6          6.0238   -1.2299    1.6901 C.ar      1 <1>         0.0207
      7 C7          4.3790    0.5857    1.0238 C.2       1 <1>         0.0650
      8 C8          2.6691    1.7156    0.0826 C.2       1 <1>        -0.0100
      9 C9          1.3607    1.3741    0.7363 C.3       1 <1>         0.0045
     10 C10         3.0432   -0.9119   -0.4989 C.3       1 <1>        -0.0116
     11 N1          3.7570    1.7102    0.9169 N.2       1 <1>        -0.3788
     12 N2          4.1266   -0.6415    0.4246 N.pl3     1 <1>        -0.3554
     13 O1          2.6428    1.9713   -1.1858 O.3       1 <1>        -0.4025
     14 S1          5.8092    0.4903    2.0955 S.3       1 <1>        -0.0174
     15 H1          6.0386   -4.8826    0.4891 H         1 <1>         0.1327
     16 H2          7.7652   -4.0957    2.0798 H         1 <1>         0.1248
     17 H3          4.2972   -3.3497   -0.3436 H         1 <1>         0.1231
     18 H4          7.7669   -1.7405    2.8621 H         1 <1>         0.1448
     19 H5          0.8962    2.2939    1.1006 H         1 <1>         0.0805
     20 H6          1.4971    0.6762    1.5658 H         1 <1>         0.0808
     21 H7          0.6997    0.9298   -0.0124 H         1 <1>         0.0791
     22 H8          2.1569   -1.2433    0.0483 H         1 <1>         0.1081
     23 H9          3.3345   -1.6949   -1.2042 H         1 <1>         0.1006
     24 H10         2.7921   -0.0089   -1.0619 H         1 <1>         0.0953
     25 H11         1.7372    1.9069   -1.5737 H         1 <1>         0.3792
@<TRIPOS>BOND
     1    1    2 ar
     2    1    3 ar
     3    2    4 ar
     4    3    5 ar
     5    4    6 ar
     6    5    6 ar
     7    5   12 1
     8    6   14 1
     9    7   11 2
    10    7   12 1
    11    7   14 1
    12    8    9 1
    13    8   11 1
    14    8   13 2
    15   10   12 1
    16    1   15 1
    17    2   16 1
    18    3   17 1
    19    4   18 1
    20    9   19 1
    21    9   20 1
    22    9   21 1
    23   10   22 1
    24   10   23 1
    25   10   24 1
    26   13   25 1
@<TRIPOS>Similarity
1.4564
@<TRIPOS>ShapeSim
0.8484
@<TRIPOS>PharmSim
0.6080
# END
# Name:		Building
# Created and modified by SHAFTS on Sun Jan  8 14:48:48 2012

# 

@<TRIPOS>MOLECULE
Building
   33    34     0
SMALL
USER_CHARGE


@<TRIPOS>ATOM
      1 C1          6.1948   -4.0761    1.4102 C.ar      1 <1>        -0.0968
      2 C2          7.4918   -3.5673    1.4307 C.ar      1 <1>        -0.0914
      3 C3          5.0891   -3.2183    1.3866 C.ar      1 <1>        -0.0912
      4 C4          7.7256   -2.1891    1.4281 C.ar      1 <1>        -0.0701
      5 C5          5.3000   -1.8252    1.3835 C.ar      1 <1>        -0.0632
      6 C6          4.4392   -0.6922    1.3629 C.2       1 <1>         0.0024
      7 C7          6.6107   -1.3437    1.4044 C.ar      1 <1>        -0.0578
      8 C8          5.2293    0.4342    1.3718 C.2       1 <1>        -0.0655
      9 C9          3.0030   -0.6797    1.3362 C.2       1 <1>         0.0706
     10 C10         4.8792    1.8682    1.3582 C.3       1 <1>        -0.0066
     11 C11         1.0139    1.3998    0.5876 C.3       1 <1>        -0.0887
     12 C12         0.1643   -0.0803   -1.2257 C.3       1 <1>        -0.0881
     13 C13         2.2512   -0.6784   -0.0060 C.3       1 <1>         0.0049
     14 N1          6.5375    0.0311    1.3965 N.pl3     1 <1>        -0.3582
     15 N2          0.9234   -0.0160    0.0759 N.4       1 <1>         0.4243
     16 O1          2.3248   -0.6683    2.3943 O.2       1 <1>        -0.4431
     17 H1          6.0377   -5.1515    1.4135 H         1 <1>         0.1241
     18 H2          8.3360   -4.2516    1.4486 H         1 <1>         0.1312
     19 H3          4.0844   -3.6308    1.3712 H         1 <1>         0.1204
     20 H4          8.7356   -1.7935    1.4442 H         1 <1>         0.1317
     21 H5          4.7663    2.2590    2.3827 H         1 <1>         0.0849
     22 H6          5.6467    2.4766    0.8500 H         1 <1>         0.0813
     23 H7          3.9345    2.0583    0.8207 H         1 <1>         0.0817
     24 H8          1.6105    1.9743   -0.1235 H         1 <1>         0.0790
     25 H9         -0.0011    1.7951    0.6582 H         1 <1>         0.0820
     26 H10         1.4930    1.3707    1.5681 H         1 <1>         0.0811
     27 H11         0.7421    0.4618   -1.9765 H         1 <1>         0.0805
     28 H12         0.0559   -1.1319   -1.4978 H         1 <1>         0.0832
     29 H13        -0.8097    0.3867   -1.0678 H         1 <1>         0.0820
     30 H14         2.0606   -1.7057   -0.3262 H         1 <1>         0.1231
     31 H15         2.8241   -0.1224   -0.7522 H         1 <1>         0.1378
     32 H16         7.3367    0.6499    1.4070 H         1 <1>         0.3438
     33 H17         0.3554   -0.5354    0.7659 H         1 <1>         0.1707
@<TRIPOS>BOND
     1    1    2 ar
     2    1    3 ar
     3    2    4 ar
     4    3    5 ar
     5    4    7 ar
     6    5    6 1
     7    5    7 ar
     8    6    8 2
     9    6    9 1
    10    7   14 1
    11    8   10 1
    12    8   14 1
    13    9   13 1
    14    9   16 2
    15   11   15 1
    16   12   15 1
    17   13   15 1
    18    1   17 1
    19    2   18 1
    20    3   19 1
    21    4   20 1
    22   10   21 1
    23   10   22 1
    24   10   23 1
    25   11   24 1
    26   11   25 1
    27   11   26 1
    28   12   27 1
    29   12   28 1
    30   12   29 1
    31   13   30 1
    32   13   31 1
    33   14   32 1
    34   15   33 1
@<TRIPOS>Similarity
1.4538
@<TRIPOS>ShapeSim
0.8850
@<TRIPOS>PharmSim
0.5688
# END
# Name:		AN-967/15488286
# Created and modified by SHAFTS on Sun Jan  8 14:48:48 2012

# 

@<TRIPOS>MOLECULE
AN-967/15488286
   33    33     0
SMALL
USER_CHARGE


@<TRIPOS>ATOM
      1 C1          2.5150    1.1396   -0.6521 C.1       1 <1>         0.0181
      2 C2          5.2245    0.0561    1.3152 C.ar      1 <1>        -0.1030
      3 C3          6.5229   -0.4534    1.3091 C.ar      1 <1>        -0.0525
      4 C4          4.3443   -2.1888    1.4655 C.ar      1 <1>        -0.0723
      5 C5          4.1352   -0.8117    1.3934 C.ar      1 <1>        -0.1192
      6 C6          6.7321   -1.8306    1.3813 C.ar      1 <1>         0.0405
      7 C7          5.6428   -2.6984    1.4595 C.ar      1 <1>         0.0340
      8 C8          0.0856    0.9374    0.9558 C.3       1 <1>        -0.0878
      9 C9          9.0617   -1.3612    1.2923 C.3       1 <1>         0.0293
     10 C10         5.8911   -4.7570    0.2949 C.3       1 <1>         0.0278
     11 C11         2.7469   -0.2669    1.4024 C.3       1 <1>        -0.0169
     12 C12         2.1340   -0.1222   -0.0035 C.3       1 <1>         0.0208
     13 N1          2.8148    2.1345   -1.1687 N.1       1 <1>        -0.3373
     14 N2          0.6468   -0.1551    0.1219 N.4       1 <1>         0.4431
     15 O1          8.0052   -2.3156    1.3745 O.3       1 <1>        -0.4030
     16 O2          5.8344   -4.0453    1.5295 O.3       1 <1>        -0.4049
     17 H1          5.0712    1.1304    1.2603 H         1 <1>         0.1314
     18 H2          7.3669    0.2281    1.2477 H         1 <1>         0.1347
     19 H3          3.4969   -2.8674    1.5271 H         1 <1>         0.1149
     20 H4          0.3971    1.8867    0.5161 H         1 <1>         0.0794
     21 H5         -1.0015    0.8390    0.9480 H         1 <1>         0.0847
     22 H6          0.4828    0.8240    1.9664 H         1 <1>         0.0864
     23 H7         10.0235   -1.8800    1.2958 H         1 <1>         0.0933
     24 H8          9.0022   -0.6762    2.1419 H         1 <1>         0.1284
     25 H9          8.9586   -0.7959    0.3632 H         1 <1>         0.0925
     26 H10         6.0474   -5.8202    0.4931 H         1 <1>         0.0925
     27 H11         6.7087   -4.3651   -0.3154 H         1 <1>         0.0848
     28 H12         4.9459   -4.6229   -0.2365 H         1 <1>         0.1289
     29 H13         2.0888   -0.8929    2.0326 H         1 <1>         0.0967
     30 H14         2.7562    0.7197    1.8997 H         1 <1>         0.1143
     31 H15         2.3974   -0.9756   -0.6374 H         1 <1>         0.1846
     32 H16         0.3678   -1.0624    0.5150 H         1 <1>         0.1689
     33 H17         0.2341   -0.1136   -0.8180 H         1 <1>         0.1675
@<TRIPOS>BOND
     1    1   12 1
     2    1   13 3
     3    2    3 ar
     4    2    5 ar
     5    3    6 ar
     6    4    5 ar
     7    4    7 ar
     8    5   11 1
     9    6    7 ar
    10    6   15 1
    11    7   16 1
    12    8   14 1
    13    9   15 1
    14   10   16 1
    15   11   12 1
    16   12   14 1
    17    2   17 1
    18    3   18 1
    19    4   19 1
    20    8   20 1
    21    8   21 1
    22    8   22 1
    23    9   23 1
    24    9   24 1
    25    9   25 1
    26   10   26 1
    27   10   27 1
    28   10   28 1
    29   11   29 1
    30   11   30 1
    31   12   31 1
    32   14   32 1
    33   14   33 1
@<TRIPOS>Similarity
1.4534
@<TRIPOS>ShapeSim
0.8974
@<TRIPOS>PharmSim
0.5560
# END
# Name:		ZINC13123192
# Created and modified by SHAFTS on Sun Jan  8 14:48:48 2012

# 

@<TRIPOS>MOLECULE
ZINC13123192
   29    31     0
SMALL
USER_CHARGE


@<TRIPOS>ATOM
      1 C1          6.1927   -4.0879    1.3999 C.ar      1 <1>        -0.1025
      2 C2          7.4873   -3.5930    1.5420 C.ar      1 <1>        -0.0996
      3 C3          5.1041   -3.2189    1.2659 C.ar      1 <1>        -0.0882
      4 C4          7.7360   -2.2176    1.5561 C.ar      1 <1>        -0.0743
      5 C5          5.3295   -1.8281    1.2735 C.ar      1 <1>        -0.0657
      6 C6          4.4981   -0.6826    1.1689 C.2       1 <1>        -0.0750
      7 C7          6.6395   -1.3585    1.4208 C.ar      1 <1>        -0.0604
      8 C8          5.2993    0.4349    1.2386 C.2       1 <1>        -0.0275
      9 C9          4.7581    1.7648    1.1650 C.2       1 <1>        -0.0191
     10 C10         2.7362    0.8176    0.3064 C.3       1 <1>        -0.0143
     11 C11         3.0228   -0.5226    1.0273 C.3       1 <1>        -0.0302
     12 C12         5.6224    2.9309    1.5552 C.3       1 <1>         0.0109
     13 C13         2.3242   -0.5718    2.3881 C.3       1 <1>        -0.0563
     14 N1          3.5362    1.9703    0.7917 N.2       1 <1>        -0.4224
     15 N2          6.5899    0.0205    1.4068 N.pl3     1 <1>        -0.3578
     16 H1          6.0246   -5.1616    1.3928 H         1 <1>         0.1090
     17 H2          8.3180   -4.2865    1.6460 H         1 <1>         0.1200
     18 H3          4.1003   -3.6193    1.1572 H         1 <1>         0.1334
     19 H4          8.7448   -1.8348    1.6690 H         1 <1>         0.1279
     20 H5          2.9381    0.7064   -0.7671 H         1 <1>         0.0983
     21 H6          1.6739    1.0717    0.3974 H         1 <1>         0.1112
     22 H7          2.6219   -1.3363    0.4101 H         1 <1>         0.0844
     23 H8          6.1579    3.2905    0.6808 H         1 <1>         0.0855
     24 H9          6.3316    2.6153    2.3160 H         1 <1>         0.0808
     25 H10         4.9967    3.7249    1.9548 H         1 <1>         0.0791
     26 H11         2.7030    0.2260    3.0230 H         1 <1>         0.0348
     27 H12         2.5165   -1.5310    2.8636 H         1 <1>         0.0413
     28 H13         1.2522   -0.4458    2.2538 H         1 <1>         0.0393
     29 H14         7.3934    0.6269    1.4975 H         1 <1>         0.3373
@<TRIPOS>BOND
     1    1    2 ar
     2    1    3 ar
     3    2    4 ar
     4    3    5 ar
     5    4    7 ar
     6    5    6 1
     7    5    7 ar
     8    6    8 2
     9    6   11 1
    10    7   15 1
    11    8    9 1
    12    8   15 1
    13    9   12 1
    14    9   14 2
    15   10   11 1
    16   10   14 1
    17   11   13 1
    18    1   16 1
    19    2   17 1
    20    3   18 1
    21    4   19 1
    22   10   20 1
    23   10   21 1
    24   11   22 1
    25   12   23 1
    26   12   24 1
    27   12   25 1
    28   13   26 1
    29   13   27 1
    30   13   28 1
    31   15   29 1
@<TRIPOS>Similarity
1.4517
@<TRIPOS>ShapeSim
0.9019
@<TRIPOS>PharmSim
0.5498
# END
# Name:		AK-968/40721996
# Created and modified by SHAFTS on Sun Jan  8 14:48:48 2012

# 

@<TRIPOS>MOLECULE
AK-968/40721996
   38    39     0
SMALL
USER_CHARGE


@<TRIPOS>ATOM
      1 C1          6.4562   -3.9938    1.4581 C.ar      1 <1>        -0.1017
      2 C2          7.6967   -3.3946    1.6675 C.ar      1 <1>        -0.0917
      3 C3          5.3039   -3.2165    1.2932 C.ar      1 <1>        -0.1048
      4 C4          7.8260   -2.0037    1.7185 C.ar      1 <1>        -0.0708
      5 C5          5.1743    0.4360    1.3538 C.2       1 <1>        -0.0724
      6 C6          5.4096   -1.8122    1.3409 C.ar      1 <1>        -0.0935
      7 C7          4.4785   -0.7431    1.2174 C.2       1 <1>        -0.1032
      8 C8          6.6657   -1.2394    1.5522 C.ar      1 <1>        -0.0692
      9 C9          2.9394    0.3673   -1.2581 C.2       1 <1>         0.0604
     10 C10         5.0997    3.6062   -2.1733 C.3       1 <1>        -0.0644
     11 C11         2.9977   -0.8673    0.9819 C.3       1 <1>        -0.0297
     12 C12         4.8254    2.4052   -3.0673 C.3       1 <1>        -0.0527
     13 C13         3.3567    1.9987   -3.0734 C.3       1 <1>        -0.0331
     14 C14         2.3688    0.2584    0.1472 C.3       1 <1>        -0.0071
     15 N1          6.4927    0.1264    1.5550 N.pl3     1 <1>        -0.3670
     16 N2          2.8746    1.6598   -1.7560 N.am      1 <1>        -0.3527
     17 N3          0.8878    0.0914    0.0952 N.4       1 <1>         0.4615
     18 O1          3.3995   -0.5967   -1.8665 O.2       1 <1>        -0.4874
     19 H1          6.3810   -5.0772    1.4219 H         1 <1>         0.1222
     20 H2          8.5786   -4.0175    1.7932 H         1 <1>         0.1315
     21 H3          4.3443   -3.6986    1.1299 H         1 <1>         0.1110
     22 H4          8.7919   -1.5383    1.8826 H         1 <1>         0.1314
     23 H5          4.8509    1.4673    1.3243 H         1 <1>         0.2058
     24 H6          4.5179    4.4758   -2.4953 H         1 <1>         0.0395
     25 H7          4.8217    3.3774   -1.1395 H         1 <1>         0.0353
     26 H8          6.1597    3.8774   -2.1834 H         1 <1>         0.0350
     27 H9          2.4911   -0.9197    1.9553 H         1 <1>         0.1055
     28 H10         2.7880   -1.8315    0.4985 H         1 <1>         0.0933
     29 H11         5.4253    1.5596   -2.7117 H         1 <1>         0.0521
     30 H12         5.1574    2.6323   -4.0873 H         1 <1>         0.0524
     31 H13         2.7403    2.8272   -3.4363 H         1 <1>         0.1017
     32 H14         3.1858    1.1361   -3.7251 H         1 <1>         0.1012
     33 H15         2.5270    1.2159    0.6579 H         1 <1>         0.1451
     34 H16         7.2326    0.8021    1.6869 H         1 <1>         0.3375
     35 H17         2.4754    2.3912   -1.1752 H         1 <1>         0.3076
     36 H18         0.5704   -0.0006   -0.8728 H         1 <1>         0.1563
     37 H19         0.4208    0.9005    0.5122 H         1 <1>         0.1581
     38 H20         0.6026   -0.7459    0.6090 H         1 <1>         0.1570
@<TRIPOS>BOND
     1    1    2 ar
     2    1    3 ar
     3    2    4 ar
     4    3    6 ar
     5    4    8 ar
     6    5    7 2
     7    5   15 1
     8    6    7 1
     9    6    8 ar
    10    7   11 1
    11    8   15 1
    12    9   14 1
    13    9   16 am
    14    9   18 2
    15   10   12 1
    16   11   14 1
    17   12   13 1
    18   13   16 1
    19   14   17 1
    20    1   19 1
    21    2   20 1
    22    3   21 1
    23    4   22 1
    24    5   23 1
    25   10   24 1
    26   10   25 1
    27   10   26 1
    28   11   27 1
    29   11   28 1
    30   12   29 1
    31   12   30 1
    32   13   31 1
    33   13   32 1
    34   14   33 1
    35   15   34 1
    36   16   35 1
    37   17   36 1
    38   17   37 1
    39   17   38 1
@<TRIPOS>Similarity
1.4508
@<TRIPOS>ShapeSim
0.8354
@<TRIPOS>PharmSim
0.6154
# END
# Name:		AD-341/40841539
# Created and modified by SHAFTS on Sun Jan  8 14:48:48 2012

# 

@<TRIPOS>MOLECULE
AD-341/40841539
   36    38     0
SMALL
USER_CHARGE


@<TRIPOS>ATOM
      1 C1          6.3248   -3.8813    1.7661 C.ar      1 <1>        -0.1037
      2 C2          7.5253   -3.3131    1.3449 C.ar      1 <1>        -0.1017
      3 C3          5.1550   -3.1159    1.8346 C.ar      1 <1>        -0.0926
      4 C4          7.5959   -1.9657    0.9795 C.ar      1 <1>        -0.0803
      5 C5          4.8773    0.4272    0.9802 C.2       1 <1>        -0.0773
      6 C6          5.2017   -1.7553    1.4714 C.ar      1 <1>        -0.0761
      7 C7          4.2384   -0.7091    1.4202 C.2       1 <1>        -0.0908
      8 C8          6.4187   -1.2127    1.0530 C.ar      1 <1>        -0.0718
      9 C9          2.4037    0.8395   -1.3352 C.2       1 <1>         0.0735
     10 C10         2.5095    0.4593   -2.8012 C.3       1 <1>         0.0440
     11 C11         1.5588   -0.6356   -3.2447 C.3       1 <1>        -0.0396
     12 C12         1.6780   -1.8149   -2.3001 C.3       1 <1>        -0.0453
     13 C13         1.2837   -1.3713   -0.9038 C.3       1 <1>        -0.0258
     14 C14         2.7774   -0.8143    1.7822 C.3       1 <1>        -0.0245
     15 C15         1.8929    0.1272    0.9684 C.3       1 <1>        -0.0129
     16 N1          6.1919    0.1135    0.7613 N.pl3     1 <1>        -0.3770
     17 N2          1.9508   -0.1475   -0.4609 N.am      1 <1>        -0.3626
     18 O1          2.7919    1.9551   -0.9776 O.2       1 <1>        -0.5014
     19 H1          6.2948   -4.9314    2.0444 H         1 <1>         0.1097
     20 H2          8.4218   -3.9261    1.2992 H         1 <1>         0.1202
     21 H3          4.2268   -3.5739    2.1642 H         1 <1>         0.1287
     22 H4          8.5311   -1.5240    0.6528 H         1 <1>         0.1172
     23 H5          4.5154    1.4303    0.8018 H         1 <1>         0.1870
     24 H6          2.3260    1.3710   -3.3827 H         1 <1>         0.0998
     25 H7          3.5399    0.1426   -2.9997 H         1 <1>         0.0989
     26 H8          0.5309   -0.2569   -3.2494 H         1 <1>         0.0484
     27 H9          1.7961   -0.9490   -4.2688 H         1 <1>         0.0533
     28 H10         1.0240   -2.6295   -2.6349 H         1 <1>         0.0630
     29 H11         2.7032   -2.2001   -2.2951 H         1 <1>         0.0542
     30 H12         0.2002   -1.2117   -0.8666 H         1 <1>         0.0942
     31 H13         1.5333   -2.1517   -0.1750 H         1 <1>         0.1015
     32 H14         2.6658   -0.5845    2.8495 H         1 <1>         0.0709
     33 H15         2.4384   -1.8511    1.6597 H         1 <1>         0.0747
     34 H16         0.8472    0.0104    1.2701 H         1 <1>         0.1151
     35 H17         2.1756    1.1747    1.1151 H         1 <1>         0.1049
     36 H18         6.8949    0.7612    0.4329 H         1 <1>         0.3245
@<TRIPOS>BOND
     1    1    2 ar
     2    1    3 ar
     3    2    4 ar
     4    3    6 ar
     5    4    8 ar
     6    5    7 2
     7    5   16 1
     8    6    7 1
     9    6    8 ar
    10    7   14 1
    11    8   16 1
    12    9   10 1
    13    9   17 am
    14    9   18 2
    15   10   11 1
    16   11   12 1
    17   12   13 1
    18   13   17 1
    19   14   15 1
    20   15   17 1
    21    1   19 1
    22    2   20 1
    23    3   21 1
    24    4   22 1
    25    5   23 1
    26   10   24 1
    27   10   25 1
    28   11   26 1
    29   11   27 1
    30   12   28 1
    31   12   29 1
    32   13   30 1
    33   13   31 1
    34   14   32 1
    35   14   33 1
    36   15   34 1
    37   15   35 1
    38   16   36 1
@<TRIPOS>Similarity
1.4489
@<TRIPOS>ShapeSim
0.8180
@<TRIPOS>PharmSim
0.6309
# END
# Name:		AE-641/30118009
# Created and modified by SHAFTS on Sun Jan  8 14:48:48 2012

# 

@<TRIPOS>MOLECULE
AE-641/30118009
   28    29     0
SMALL
USER_CHARGE


@<TRIPOS>ATOM
      1 C1          6.9494   -3.8487    0.7333 C.ar      1 <1>        -0.1002
      2 C2          5.6840   -4.1551    1.2249 C.ar      1 <1>        -0.0993
      3 C3          6.1007    0.8809    1.4972 C.ar      1 <1>        -0.1003
      4 C4          7.3739   -2.5209    0.6762 C.ar      1 <1>        -0.0885
      5 C5          4.8382   -3.1351    1.6612 C.ar      1 <1>        -0.0852
      6 C6          6.9466   -0.1392    1.0608 C.ar      1 <1>        -0.0878
      7 C7          4.8353    0.5744    1.9887 C.ar      1 <1>        -0.0934
      8 C8          6.5357   -1.4813    1.1111 C.ar      1 <1>        -0.0748
      9 C9          5.2489   -1.7930    1.6109 C.ar      1 <1>        -0.0643
     10 C10         4.4107   -0.7534    2.0458 C.ar      1 <1>        -0.0434
     11 C11         2.0555    0.4653    0.5419 C.2       1 <1>        -0.0054
     12 C12         1.8197   -0.8972    1.1631 C.3       1 <1>         0.0789
     13 N1          2.5927    0.4787   -0.6429 N.2       1 <1>        -0.3367
     14 N2          1.6830    1.5515    1.3004 N.pl3     1 <1>        -0.3871
     15 O1          2.7534    1.7959   -1.0832 O.3       1 <1>        -0.4071
     16 S1          2.7532   -1.0022    2.7024 S.3       1 <1>        -0.1425
     17 H1          7.6074   -4.6430    0.3932 H         1 <1>         0.1195
     18 H2          5.3553   -5.1893    1.2699 H         1 <1>         0.1199
     19 H3          6.4313    1.9146    1.4543 H         1 <1>         0.1222
     20 H4          8.3671   -2.3048    0.2878 H         1 <1>         0.1263
     21 H5          3.8623   -3.4324    2.0345 H         1 <1>         0.1286
     22 H6          7.9318    0.1230    0.6803 H         1 <1>         0.1260
     23 H7          4.1973    1.3897    2.3223 H         1 <1>         0.1121
     24 H8          0.7551   -1.0412    1.3688 H         1 <1>         0.1352
     25 H9          2.1536   -1.6842    0.4805 H         1 <1>         0.1352
     26 H10         1.2755    1.4468    2.2236 H         1 <1>         0.2587
     27 H11         1.8102    2.4967    0.9547 H         1 <1>         0.2692
     28 H12         3.1545    1.6613   -1.9583 H         1 <1>         0.3844
@<TRIPOS>BOND
     1    1    2 ar
     2    1    4 ar
     3    2    5 ar
     4    3    6 ar
     5    3    7 ar
     6    4    8 ar
     7    5    9 ar
     8    6    8 ar
     9    7   10 ar
    10    8    9 ar
    11    9   10 ar
    12   10   16 1
    13   11   12 1
    14   11   13 2
    15   11   14 1
    16   12   16 1
    17   13   15 1
    18    1   17 1
    19    2   18 1
    20    3   19 1
    21    4   20 1
    22    5   21 1
    23    6   22 1
    24    7   23 1
    25   12   24 1
    26   12   25 1
    27   14   26 1
    28   14   27 1
    29   15   28 1
@<TRIPOS>Similarity
1.4489
@<TRIPOS>ShapeSim
0.8676
@<TRIPOS>PharmSim
0.5812
# END
# Name:		AA-516/30131054
# Created and modified by SHAFTS on Sun Jan  8 14:48:48 2012

# 

@<TRIPOS>MOLECULE
AA-516/30131054
   22    23     0
SMALL
USER_CHARGE


@<TRIPOS>ATOM
      1 C1          2.5068    1.1664   -0.3948 C.1       1 <1>         0.0172
      2 C2          4.8470    0.3348    0.8717 C.ar      1 <1>        -0.0809
      3 C3          6.1259   -0.1334    1.1790 C.ar      1 <1>        -0.0755
      4 C4          3.9583   -1.9065    1.0245 C.ar      1 <1>        -0.0810
      5 C5          7.0234   -3.8361    1.8762 C.2       1 <1>        -0.0492
      6 C6          5.2430   -2.4125    1.3383 C.ar      1 <1>        -0.0837
      7 C7          3.7730   -0.5406    0.7948 C.ar      1 <1>        -0.0624
      8 C8          5.6771   -3.7532    1.6113 C.2       1 <1>        -0.1086
      9 C9          6.3093   -1.5109    1.4101 C.ar      1 <1>        -0.0396
     10 C10         4.7777   -4.9341    1.6108 C.3       1 <1>        -0.0438
     11 C11         2.4132   -0.0234    0.4646 C.3       1 <1>         0.0922
     12 N1          2.5796    2.1059   -1.0719 N.1       1 <1>        -0.3992
     13 S1          7.7846   -2.3128    1.8021 S.3       1 <1>        -0.1450
     14 H1          4.7030    1.3976    0.6926 H         1 <1>         0.1393
     15 H2          6.9609    0.5592    1.2371 H         1 <1>         0.1386
     16 H3          3.1100   -2.5845    0.9617 H         1 <1>         0.1370
     17 H4          7.5989   -4.7207    2.1115 H         1 <1>         0.1696
     18 H5          4.3539   -5.1006    2.6115 H         1 <1>         0.0594
     19 H6          3.9447   -4.8091    0.9029 H         1 <1>         0.0561
     20 H7          5.3096   -5.8486    1.3079 H         1 <1>         0.0584
     21 H8          1.8636    0.2275    1.3819 H         1 <1>         0.1498
     22 H9          1.8189   -0.7966   -0.0404 H         1 <1>         0.1514
@<TRIPOS>BOND
     1    1   11 1
     2    1   12 3
     3    2    3 ar
     4    2    7 ar
     5    3    9 ar
     6    4    6 ar
     7    4    7 ar
     8    5    8 2
     9    5   13 1
    10    6    8 1
    11    6    9 ar
    12    7   11 1
    13    8   10 1
    14    9   13 1
    15    2   14 1
    16    3   15 1
    17    4   16 1
    18    5   17 1
    19   10   18 1
    20   10   19 1
    21   10   20 1
    22   11   21 1
    23   11   22 1
@<TRIPOS>Similarity
1.4483
@<TRIPOS>ShapeSim
0.9117
@<TRIPOS>PharmSim
0.5366
# END
# Name:		AF-399/13479018
# Created and modified by SHAFTS on Sun Jan  8 14:48:48 2012

# 

@<TRIPOS>MOLECULE
AF-399/13479018
   29    31     0
SMALL
USER_CHARGE


@<TRIPOS>ATOM
      1 C1          6.1472   -4.0369    1.3977 C.ar      1 <1>        -0.1063
      2 C2          7.4487   -3.5403    1.3957 C.ar      1 <1>        -0.1038
      3 C3          5.0495   -3.1688    1.3979 C.ar      1 <1>        -0.0932
      4 C4          7.6951   -2.1645    1.3944 C.ar      1 <1>        -0.0790
      5 C5          5.2711   -1.7767    1.3955 C.ar      1 <1>        -0.0755
      6 C6          4.4224   -0.6336    1.3946 C.2       1 <1>        -0.0964
      7 C7          6.5891   -1.3068    1.3953 C.ar      1 <1>        -0.0695
      8 C8          5.2343    0.4813    1.3998 C.2       1 <1>        -0.0929
      9 C9          2.9330   -0.5413    1.4112 C.3       1 <1>        -0.0471
     10 C10         4.7895    1.8985    1.3753 C.3       1 <1>        -0.0261
     11 C11         3.2889    1.9772    1.7153 C.3       1 <1>        -0.0530
     12 C12         2.4365    0.8777    1.0316 C.3       1 <1>        -0.0661
     13 C13         2.3940    1.0646   -0.4889 C.3       1 <1>        -0.0685
     14 N1          6.5362    0.0707    1.3965 N.pl3     1 <1>        -0.3760
     15 H1          5.9809   -5.1109    1.3992 H         1 <1>         0.1052
     16 H2          8.2869   -4.2326    1.3945 H         1 <1>         0.1157
     17 H3          4.0403   -3.5709    1.4004 H         1 <1>         0.1310
     18 H4          8.7094   -1.7798    1.3920 H         1 <1>         0.1231
     19 H5          2.5335   -1.2808    0.7017 H         1 <1>         0.0678
     20 H6          2.5490   -0.8104    2.4054 H         1 <1>         0.0677
     21 H7          5.3622    2.4664    2.1177 H         1 <1>         0.0802
     22 H8          4.9721    2.3515    0.3951 H         1 <1>         0.0770
     23 H9          3.1687    1.9261    2.8105 H         1 <1>         0.0518
     24 H10         2.9029    2.9679    1.4147 H         1 <1>         0.0551
     25 H11         1.3985    0.9853    1.4090 H         1 <1>         0.0537
     26 H12         3.3969    0.9662   -0.9012 H         1 <1>         0.0336
     27 H13         2.0053    2.0530   -0.7286 H         1 <1>         0.0331
     28 H14         1.7491    0.3097   -0.9358 H         1 <1>         0.0331
     29 H15         7.3425    0.6808    1.3972 H         1 <1>         0.3253
@<TRIPOS>BOND
     1    1    2 ar
     2    1    3 ar
     3    2    4 ar
     4    3    5 ar
     5    4    7 ar
     6    5    6 1
     7    5    7 ar
     8    6    8 2
     9    6    9 1
    10    7   14 1
    11    8   10 1
    12    8   14 1
    13    9   12 1
    14   10   11 1
    15   11   12 1
    16   12   13 1
    17    1   15 1
    18    2   16 1
    19    3   17 1
    20    4   18 1
    21    9   19 1
    22    9   20 1
    23   10   21 1
    24   10   22 1
    25   11   23 1
    26   11   24 1
    27   12   25 1
    28   13   26 1
    29   13   27 1
    30   13   28 1
    31   14   29 1
@<TRIPOS>Similarity
1.4478
@<TRIPOS>ShapeSim
0.9250
@<TRIPOS>PharmSim
0.5228
# END
# Name:		AS-662/43412967
# Created and modified by SHAFTS on Sun Jan  8 14:48:48 2012

# 

@<TRIPOS>MOLECULE
AS-662/43412967
   28    29     0
SMALL
USER_CHARGE


@<TRIPOS>ATOM
      1 C1          6.4119   -4.1264    1.6055 C.ar      1 <1>        -0.1483
      2 C2          7.5934   -3.5529    1.1399 C.ar      1 <1>        -0.1002
      3 C3          5.3187   -3.3273    1.9594 C.ar      1 <1>        -0.0630
      4 C4          7.7207   -2.1667    1.0131 C.ar      1 <1>        -0.1334
      5 C5          5.2072    0.3223    1.7895 C.2       1 <1>         0.0704
      6 C6          5.4236   -1.9272    1.8400 C.ar      1 <1>        -0.0925
      7 C7          4.5416   -0.8411    2.1000 C.2       1 <1>        -0.1501
      8 C8          6.6198   -1.3803    1.3706 C.ar      1 <1>         0.0939
      9 C9          1.9637    2.4821   -0.1047 C.2       1 <1>         0.4671
     10 C10         3.1594   -0.9337    2.6126 C.3       1 <1>        -0.0069
     11 C11         1.8282    1.2438    0.7899 C.3       1 <1>        -0.1421
     12 C12         2.2150   -0.0962    0.1789 C.3       1 <1>        -0.0513
     13 N1          6.4597   -0.0131    1.3502 N.pl3     1 <1>        -0.5943
     14 O1          1.5353    3.5682    0.3738 O.co2     1 <1>        -0.5000
     15 O2          2.5110    2.2582   -1.2227 O.co2     1 <1>        -0.5000
     16 S1          1.9622   -1.4569    1.3393 S.3       1 <1>        -0.2868
     17 H1          6.3368   -5.2068    1.6950 H         1 <1>         0.1216
     18 H2          8.4302   -4.1924    0.8708 H         1 <1>         0.1228
     19 H3          4.4041   -3.7896    2.3198 H         1 <1>         0.1233
     20 H4          8.6413   -1.7211    0.6516 H         1 <1>         0.1175
     21 H5          4.9023    1.3586    1.8399 H         1 <1>         0.1730
     22 H6          3.0856   -1.6446    3.4555 H         1 <1>         0.0846
     23 H7          2.8140    0.0346    3.0180 H         1 <1>         0.0846
     24 H8          2.3871    1.4086    1.7203 H         1 <1>         0.0731
     25 H9          0.7684    1.1954    1.0729 H         1 <1>         0.0726
     26 H10         3.2626   -0.1004   -0.1380 H         1 <1>         0.0788
     27 H11         1.5995   -0.2901   -0.7053 H         1 <1>         0.0790
     28 H12         7.1653    0.6469    1.0537 H         1 <1>         0.4156
@<TRIPOS>BOND
     1    1    2 ar
     2    1    3 ar
     3    2    4 ar
     4    3    6 ar
     5    4    8 ar
     6    5    7 2
     7    5   13 1
     8    6    7 1
     9    6    8 ar
    10    7   10 1
    11    8   13 1
    12    9   11 1
    13    9   14 1
    14    9   15 2
    15   10   16 1
    16   11   12 1
    17   12   16 1
    18    1   17 1
    19    2   18 1
    20    3   19 1
    21    4   20 1
    22    5   21 1
    23   10   22 1
    24   10   23 1
    25   11   24 1
    26   11   25 1
    27   12   26 1
    28   12   27 1
    29   13   28 1
@<TRIPOS>Similarity
1.4453
@<TRIPOS>ShapeSim
0.8488
@<TRIPOS>PharmSim
0.5965
# END
# Name:		AN-858/37395001
# Created and modified by SHAFTS on Sun Jan  8 14:48:48 2012

# 

@<TRIPOS>MOLECULE
AN-858/37395001
   38    40     0
SMALL
USER_CHARGE


@<TRIPOS>ATOM
      1 C1          6.1551   -4.1439    1.4095 C.ar      1 <1>        -0.1052
      2 C2          7.4659   -3.7128    1.5846 C.ar      1 <1>        -0.1028
      3 C3          5.1100   -3.2221    1.2708 C.ar      1 <1>        -0.0913
      4 C4          7.7706   -2.3515    1.6329 C.ar      1 <1>        -0.0777
      5 C5          5.3865   -1.8379    1.3027 C.ar      1 <1>        -0.0710
      6 C6          4.6025   -0.6436    1.1929 C.2       1 <1>        -0.0876
      7 C7          6.7158   -1.4411    1.4946 C.ar      1 <1>        -0.0668
      8 C8          5.4694    0.4177    1.3764 C.2       1 <1>        -0.0877
      9 C9          2.9866    1.4229   -0.7455 C.2       1 <1>         0.1484
     10 C10         5.1270    1.8629    1.3989 C.3       1 <1>        -0.0181
     11 C11         3.6086    2.0361    1.5723 C.3       1 <1>        -0.0173
     12 C12         3.1186   -0.4343    1.0081 C.3       1 <1>        -0.0202
     13 C13         2.7885    1.0603    0.7022 C.3       1 <1>         0.0640
     14 C14         2.4795   -1.3620   -0.0281 C.3       1 <1>        -0.0539
     15 C15         3.4368   -0.0064   -3.5057 C.3       1 <1>        -0.0342
     16 C16         4.2868    0.9089   -2.6506 C.3       1 <1>         0.0225
     17 N1          6.7358   -0.0658    1.5250 N.pl3     1 <1>        -0.3734
     18 O1          2.3314    2.2714   -1.3353 O.2       1 <1>        -0.4618
     19 O2          3.9913    0.6660   -1.2716 O.3       1 <1>        -0.3644
     20 H1          5.9361   -5.2082    1.3795 H         1 <1>         0.1061
     21 H2          8.2633   -4.4433    1.6856 H         1 <1>         0.1165
     22 H3          4.0897   -3.5795    1.1389 H         1 <1>         0.1315
     23 H4          8.7929   -2.0131    1.7735 H         1 <1>         0.1241
     24 H5          5.6434    2.3366    2.2404 H         1 <1>         0.0855
     25 H6          5.4559    2.3598    0.4816 H         1 <1>         0.0851
     26 H7          3.3500    1.9114    2.6358 H         1 <1>         0.0668
     27 H8          3.3303    3.0739    1.3260 H         1 <1>         0.0703
     28 H9          2.6093   -0.6661    1.9870 H         1 <1>         0.0889
     29 H10         1.7279    1.2359    0.9115 H         1 <1>         0.1191
     30 H11         2.9321   -1.1845   -0.9992 H         1 <1>         0.0427
     31 H12         1.4135   -1.1622   -0.0824 H         1 <1>         0.0354
     32 H13         2.6411   -2.3954    0.2645 H         1 <1>         0.0427
     33 H14         3.6484   -1.0560   -3.2832 H         1 <1>         0.0482
     34 H15         2.3722    0.1836   -3.3344 H         1 <1>         0.0580
     35 H16         3.6253    0.1741   -4.5692 H         1 <1>         0.0486
     36 H17         4.0704    1.9570   -2.8781 H         1 <1>         0.1007
     37 H18         5.3502    0.7171   -2.8224 H         1 <1>         0.1008
     38 H19         7.5657    0.4981    1.6537 H         1 <1>         0.3275
@<TRIPOS>BOND
     1    1    2 ar
     2    1    3 ar
     3    2    4 ar
     4    3    5 ar
     5    4    7 ar
     6    5    6 1
     7    5    7 ar
     8    6    8 2
     9    6   12 1
    10    7   17 1
    11    8   10 1
    12    8   17 1
    13    9   13 1
    14    9   18 2
    15    9   19 1
    16   10   11 1
    17   11   13 1
    18   12   13 1
    19   12   14 1
    20   15   16 1
    21   16   19 1
    22    1   20 1
    23    2   21 1
    24    3   22 1
    25    4   23 1
    26   10   24 1
    27   10   25 1
    28   11   26 1
    29   11   27 1
    30   12   28 1
    31   13   29 1
    32   14   30 1
    33   14   31 1
    34   14   32 1
    35   15   33 1
    36   15   34 1
    37   15   35 1
    38   16   36 1
    39   16   37 1
    40   17   38 1
@<TRIPOS>Similarity
1.4442
@<TRIPOS>ShapeSim
0.8790
@<TRIPOS>PharmSim
0.5652
# END
# Name:		AP-124/43383762
# Created and modified by SHAFTS on Sun Jan  8 14:48:48 2012

# 

@<TRIPOS>MOLECULE
AP-124/43383762
   28    29     0
SMALL
USER_CHARGE


@<TRIPOS>ATOM
      1 C1          6.5675   -3.7183    1.7163 C.ar      1 <1>        -0.0866
      2 C2          6.0170   -3.5807    0.4399 C.ar      1 <1>        -0.0932
      3 C3          6.6743   -2.6196    2.5782 C.ar      1 <1>        -0.0580
      4 C4          5.5542   -2.3440   -0.0213 C.ar      1 <1>        -0.0750
      5 C5          5.6668    0.6822    1.9067 C.2       1 <1>         0.0176
      6 C6          6.2144   -1.3695    2.1311 C.ar      1 <1>        -0.0211
      7 C7          5.6707   -1.2637    0.8540 C.ar      1 <1>        -0.0354
      8 C8          4.7133    0.7033   -0.4242 C.3       1 <1>         0.0122
      9 C9          2.3643   -0.3035   -0.4715 C.3       1 <1>        -0.0911
     10 C10         3.2128    0.9434   -0.2263 C.3       1 <1>        -0.0154
     11 N1          6.2036   -0.1508    2.7699 N.2       1 <1>        -0.3757
     12 N2          5.3291    0.0593    0.7375 N.pl3     1 <1>        -0.3486
     13 N3          1.0265   -0.1659    0.1565 N.4       1 <1>         0.4487
     14 O1          2.7891    1.9816   -1.1101 O.3       1 <1>        -0.4805
     15 H1          6.9187   -4.6927    2.0467 H         1 <1>         0.1269
     16 H2          5.9467   -4.4507   -0.2083 H         1 <1>         0.1302
     17 H3          7.1031   -2.7374    3.5684 H         1 <1>         0.1469
     18 H4          5.1270   -2.2378   -1.0123 H         1 <1>         0.1175
     19 H5          5.4991    1.7380    2.0704 H         1 <1>         0.2895
     20 H6          5.2545    1.6421   -0.5921 H         1 <1>         0.1352
     21 H7          4.8994    0.0481   -1.2836 H         1 <1>         0.1331
     22 H8          2.1965   -0.4791   -1.5380 H         1 <1>         0.0966
     23 H9          2.8190   -1.1897   -0.0187 H         1 <1>         0.0986
     24 H10         3.0216    1.2943    0.7950 H         1 <1>         0.1415
     25 H11         0.3902   -0.8993   -0.1730 H         1 <1>         0.1492
     26 H12         0.6077    0.7422   -0.0704 H         1 <1>         0.1501
     27 H13         1.0920   -0.2385    1.1773 H         1 <1>         0.1490
     28 H14         1.8402    2.1026   -0.9551 H         1 <1>         0.3376
@<TRIPOS>BOND
     1    1    2 ar
     2    1    3 ar
     3    2    4 ar
     4    3    6 ar
     5    4    7 ar
     6    5   11 2
     7    5   12 1
     8    6    7 ar
     9    6   11 1
    10    7   12 1
    11    8   10 1
    12    8   12 1
    13    9   10 1
    14    9   13 1
    15   10   14 1
    16    1   15 1
    17    2   16 1
    18    3   17 1
    19    4   18 1
    20    5   19 1
    21    8   20 1
    22    8   21 1
    23    9   22 1
    24    9   23 1
    25   10   24 1
    26   13   25 1
    27   13   26 1
    28   13   27 1
    29   14   28 1
@<TRIPOS>Similarity
1.4440
@<TRIPOS>ShapeSim
0.7782
@<TRIPOS>PharmSim
0.6658
# END
# Name:		AN-648/41701062
# Created and modified by SHAFTS on Sun Jan  8 14:48:48 2012

# 

@<TRIPOS>MOLECULE
AN-648/41701062
   29    31     0
SMALL
USER_CHARGE


@<TRIPOS>ATOM
      1 C1          7.7473   -3.3461    1.5617 C.ar      1 <1>        -0.1016
      2 C2          6.6577   -4.2083    1.4822 C.ar      1 <1>        -0.1014
      3 C3          7.5494   -1.9655    1.5280 C.ar      1 <1>        -0.0910
      4 C4          5.3661   -3.6931    1.3686 C.ar      1 <1>        -0.0906
      5 C5          6.0388   -0.0425    1.3787 C.ar      1 <1>        -0.0875
      6 C6          4.7472    0.4728    1.2652 C.ar      1 <1>        -0.0922
      7 C7          3.8554   -1.7701    1.2192 C.ar      1 <1>        -0.0802
      8 C8          6.2565   -1.4295    1.4141 C.ar      1 <1>        -0.0802
      9 C9          5.1485   -2.3062    1.3332 C.ar      1 <1>        -0.0769
     10 C10         3.6577   -0.3894    1.1856 C.ar      1 <1>        -0.0793
     11 C11         0.9936   -1.0672   -0.6524 C.2       1 <1>         0.1444
     12 C12         1.9843    1.0139   -1.2286 C.2       1 <1>         0.1974
     13 C13         0.5454   -0.9787   -2.0845 C.3       1 <1>         0.1299
     14 C14         2.2776    0.1633    1.0644 C.3       1 <1>         0.0320
     15 N1          1.7534    0.0392   -0.2720 N.am      1 <1>        -0.2337
     16 O1          0.7044   -2.0205    0.0652 O.2       1 <1>        -0.4392
     17 O2          2.6249    2.0482   -1.1085 O.2       1 <1>        -0.3948
     18 S1          1.2049    0.5674   -2.7339 S.3       1 <1>        -0.0408
     19 H1          8.7523   -3.7481    1.6498 H         1 <1>         0.1190
     20 H2          6.8126   -5.2830    1.5079 H         1 <1>         0.1179
     21 H3          8.4162   -1.3107    1.5921 H         1 <1>         0.1247
     22 H4          4.5292   -4.3859    1.3076 H         1 <1>         0.1262
     23 H5          6.8759    0.6502    1.4393 H         1 <1>         0.1274
     24 H6          4.6020    1.5495    1.2394 H         1 <1>         0.1266
     25 H7          2.9943   -2.4336    1.1564 H         1 <1>         0.1358
     26 H8          0.9437   -1.8265   -2.6472 H         1 <1>         0.1630
     27 H9         -0.5465   -0.9727   -2.1277 H         1 <1>         0.1637
     28 H10         1.5830   -0.3544    1.7408 H         1 <1>         0.1423
     29 H11         2.2453    1.2284    1.3313 H         1 <1>         0.1392
@<TRIPOS>BOND
     1    1    2 ar
     2    1    3 ar
     3    2    4 ar
     4    3    8 ar
     5    4    9 ar
     6    5    6 ar
     7    5    8 ar
     8    6   10 ar
     9    7    9 ar
    10    7   10 ar
    11    8    9 ar
    12   10   14 1
    13   11   13 1
    14   11   15 am
    15   11   16 2
    16   12   15 am
    17   12   17 2
    18   12   18 1
    19   13   18 1
    20   14   15 1
    21    1   19 1
    22    2   20 1
    23    3   21 1
    24    4   22 1
    25    5   23 1
    26    6   24 1
    27    7   25 1
    28   13   26 1
    29   13   27 1
    30   14   28 1
    31   14   29 1
@<TRIPOS>Similarity
1.4411
@<TRIPOS>ShapeSim
0.8512
@<TRIPOS>PharmSim
0.5899
# END
# Name:		AI-204/31682043
# Created and modified by SHAFTS on Sun Jan  8 14:48:48 2012

# 

@<TRIPOS>MOLECULE
AI-204/31682043
   30    31     0
SMALL
USER_CHARGE


@<TRIPOS>ATOM
      1 C1          7.4971   -3.6497    1.4502 C.ar      1 <1>        -0.0899
      2 C2          6.2140   -4.1840    1.3641 C.ar      1 <1>        -0.0914
      3 C3          7.6733   -2.2677    1.5102 C.ar      1 <1>        -0.0653
      4 C4          5.1049   -3.3376    1.3435 C.ar      1 <1>        -0.0773
      5 C5          6.5652   -1.4127    1.4663 C.ar      1 <1>        -0.0434
      6 C6          5.2743   -1.9483    1.3920 C.ar      1 <1>        -0.0285
      7 C7          5.8579    0.9686    1.3676 C.2       1 <1>         0.1180
      8 C8          2.5206    1.4733   -0.4167 C.2       1 <1>         0.1534
      9 C9          4.5627    0.5666    0.6788 C.3       1 <1>         0.1220
     10 C10         2.8468    1.7875    2.0488 C.3       1 <1>        -0.0274
     11 C11         0.9021   -0.0649   -1.2010 C.3       1 <1>         0.0329
     12 C12         3.5360    1.6940    0.6904 C.3       1 <1>         0.0887
     13 N1          6.7956   -0.0266    1.5610 N.am      1 <1>        -0.3067
     14 O1          6.1112    2.1455    1.6356 O.2       1 <1>        -0.4520
     15 O2          2.3174    2.2472   -1.3431 O.2       1 <1>        -0.4455
     16 O3          1.8854    0.2797   -0.2197 O.3       1 <1>        -0.3643
     17 S1          3.8395   -0.8992    1.4570 S.3       1 <1>        -0.1557
     18 H1          8.3596   -4.3090    1.4762 H         1 <1>         0.1332
     19 H2          6.0758   -5.2605    1.3241 H         1 <1>         0.1261
     20 H3          8.6813   -1.8666    1.5847 H         1 <1>         0.1303
     21 H4          4.1115   -3.7777    1.2954 H         1 <1>         0.1431
     22 H5          4.8050    0.3248   -0.3633 H         1 <1>         0.1697
     23 H6          2.3286    0.8529    2.2873 H         1 <1>         0.0471
     24 H7          2.1072    2.5958    2.0545 H         1 <1>         0.0638
     25 H8          3.5653    1.9913    2.8507 H         1 <1>         0.0567
     26 H9          0.4585   -1.0313   -0.9496 H         1 <1>         0.0930
     27 H10         1.3712   -0.1127   -2.1869 H         1 <1>         0.0944
     28 H11         0.1227    0.7007   -1.2072 H         1 <1>         0.1247
     29 H12         4.0360    2.6523    0.5040 H         1 <1>         0.1228
     30 H13         7.7322    0.2643    1.8289 H         1 <1>         0.3276
@<TRIPOS>BOND
     1    1    2 ar
     2    1    3 ar
     3    2    4 ar
     4    3    5 ar
     5    4    6 ar
     6    5    6 ar
     7    5   13 1
     8    6   17 1
     9    7    9 1
    10    7   13 am
    11    7   14 2
    12    8   12 1
    13    8   15 2
    14    8   16 1
    15    9   12 1
    16    9   17 1
    17   10   12 1
    18   11   16 1
    19    1   18 1
    20    2   19 1
    21    3   20 1
    22    4   21 1
    23    9   22 1
    24   10   23 1
    25   10   24 1
    26   10   25 1
    27   11   26 1
    28   11   27 1
    29   11   28 1
    30   12   29 1
    31   13   30 1
@<TRIPOS>Similarity
1.4399
@<TRIPOS>ShapeSim
0.9106
@<TRIPOS>PharmSim
0.5293
# END
# Name:		AQ-360/14045179
# Created and modified by SHAFTS on Sun Jan  8 14:48:48 2012

# 

@<TRIPOS>MOLECULE
AQ-360/14045179
   28    29     0
SMALL
USER_CHARGE


@<TRIPOS>ATOM
      1 C1          7.6111   -3.6927    1.6879 C.ar      1 <1>        -0.0910
      2 C2          6.3548   -4.2506    1.4653 C.ar      1 <1>        -0.0924
      3 C3          7.7457   -2.3113    1.8221 C.ar      1 <1>        -0.0667
      4 C4          5.2304   -3.4285    1.3821 C.ar      1 <1>        -0.0783
      5 C5          6.6242   -1.4796    1.7162 C.ar      1 <1>        -0.0435
      6 C6          5.3590   -2.0395    1.5045 C.ar      1 <1>        -0.0271
      7 C7          5.8673    0.8878    1.6562 C.2       1 <1>         0.1113
      8 C8          2.6197    1.4242   -0.3395 C.2       1 <1>         0.0735
      9 C9          4.6484    0.4887    0.8384 C.3       1 <1>         0.1241
     10 C10         0.9668   -0.2140   -1.2272 C.3       1 <1>        -0.0322
     11 C11         3.5960    1.5917    0.8066 C.3       1 <1>         0.0861
     12 N1          6.8097   -0.0944    1.8898 N.am      1 <1>        -0.3055
     13 N2          1.9578    0.2074   -0.2634 N.am      1 <1>        -0.3618
     14 O1          6.0657    2.0568    1.9955 O.2       1 <1>        -0.4702
     15 O2          2.4498    2.2710   -1.2124 O.2       1 <1>        -0.4853
     16 S1          3.8975   -1.0259    1.4861 S.3       1 <1>        -0.1496
     17 H1          8.4847   -4.3336    1.7625 H         1 <1>         0.1317
     18 H2          6.2483   -5.3270    1.3674 H         1 <1>         0.1255
     19 H3          8.7326   -1.8919    2.0030 H         1 <1>         0.1298
     20 H4          4.2567   -3.8877    1.2271 H         1 <1>         0.1409
     21 H5          4.9876    0.2990   -0.1873 H         1 <1>         0.1695
     22 H6         -0.0273    0.1124   -0.9112 H         1 <1>         0.0954
     23 H7          0.9671   -1.3037   -1.3177 H         1 <1>         0.0845
     24 H8          1.1846    0.2190   -2.2072 H         1 <1>         0.0852
     25 H9          4.0931    2.5609    0.7064 H         1 <1>         0.1076
     26 H10         3.0394    1.5857    1.7478 H         1 <1>         0.1155
     27 H11         7.7113    0.2047    2.2522 H         1 <1>         0.3295
     28 H12         2.1802   -0.4170    0.5063 H         1 <1>         0.2937
@<TRIPOS>BOND
     1    1    2 ar
     2    1    3 ar
     3    2    4 ar
     4    3    5 ar
     5    4    6 ar
     6    5    6 ar
     7    5   12 1
     8    6   16 1
     9    7    9 1
    10    7   12 am
    11    7   14 2
    12    8   11 1
    13    8   13 am
    14    8   15 2
    15    9   11 1
    16    9   16 1
    17   10   13 1
    18    1   17 1
    19    2   18 1
    20    3   19 1
    21    4   20 1
    22    9   21 1
    23   10   22 1
    24   10   23 1
    25   10   24 1
    26   11   25 1
    27   11   26 1
    28   12   27 1
    29   13   28 1
@<TRIPOS>Similarity
1.4360
@<TRIPOS>ShapeSim
0.9118
@<TRIPOS>PharmSim
0.5242
# END
# Name:		AI-942/13331527
# Created and modified by SHAFTS on Sun Jan  8 14:48:48 2012

# 

@<TRIPOS>MOLECULE
AI-942/13331527
   23    24     0
SMALL
USER_CHARGE


@<TRIPOS>ATOM
      1 C1          7.7509   -3.0581    1.8434 C.ar      1 <1>        -0.1286
      2 C2          6.8323   -4.0932    1.7409 C.ar      1 <1>        -0.1167
      3 C3          7.3413   -1.7324    1.6778 C.ar      1 <1>        -0.0869
      4 C4          5.4883   -3.8276    1.4718 C.ar      1 <1>        -0.0733
      5 C5          5.3335   -0.1682    1.1974 C.2       1 <1>        -0.1932
      6 C6          5.9854   -1.4302    1.4039 C.ar      1 <1>        -0.0699
      7 C7          5.0787   -2.4901    1.3055 C.ar      1 <1>        -0.1363
      8 C8          3.9866   -0.2952    0.9540 C.2       1 <1>        -0.0381
      9 C9          3.4638    1.6479   -0.4947 C.2       1 <1>         0.4683
     10 C10         1.5628    0.2315    0.5207 C.3       1 <1>        -0.1218
     11 C11         2.9948    0.7718    0.6979 C.3       1 <1>        -0.0721
     12 O1          2.5210    2.1805   -1.1503 O.co2     1 <1>        -0.5000
     13 O2          4.7101    1.7442   -0.6739 O.co2     1 <1>        -0.5000
     14 S1          3.4849   -1.9241    0.9696 S.3       1 <1>         0.0642
     15 H1          8.7939   -3.2769    2.0542 H         1 <1>         0.1194
     16 H2          7.1603   -5.1208    1.8707 H         1 <1>         0.1264
     17 H3          8.0728   -0.9325    1.7601 H         1 <1>         0.1186
     18 H4          4.7762   -4.6443    1.3940 H         1 <1>         0.1255
     19 H5          5.8419    0.7881    1.2287 H         1 <1>         0.1302
     20 H6          1.5260   -0.4777   -0.3138 H         1 <1>         0.0509
     21 H7          1.2094   -0.2870    1.4188 H         1 <1>         0.0476
     22 H8          0.8492    1.0343    0.3046 H         1 <1>         0.0718
     23 H9          2.9359    1.4753    1.5566 H         1 <1>         0.0942
@<TRIPOS>BOND
     1    1    2 ar
     2    1    3 ar
     3    2    4 ar
     4    3    6 ar
     5    4    7 ar
     6    5    6 1
     7    5    8 2
     8    6    7 ar
     9    7   14 1
    10    8   11 1
    11    8   14 1
    12    9   11 1
    13    9   12 1
    14    9   13 2
    15   10   11 1
    16    1   15 1
    17    2   16 1
    18    3   17 1
    19    4   18 1
    20    5   19 1
    21   10   20 1
    22   10   21 1
    23   10   22 1
    24   11   23 1
@<TRIPOS>Similarity
1.4321
@<TRIPOS>ShapeSim
0.9181
@<TRIPOS>PharmSim
0.5140
# END
# Name:		AP-124/43383562
# Created and modified by SHAFTS on Sun Jan  8 14:48:48 2012

# 

@<TRIPOS>MOLECULE
AP-124/43383562
   27    28     0
SMALL
USER_CHARGE


@<TRIPOS>ATOM
      1 C1          6.8589   -3.8103    1.0824 C.ar      1 <1>        -0.1533
      2 C2          5.4777   -3.9434    0.9557 C.ar      1 <1>        -0.1102
      3 C3          7.4358   -2.5667    1.3646 C.ar      1 <1>        -0.0784
      4 C4          4.6305   -2.8418    1.1065 C.ar      1 <1>        -0.1210
      5 C5          6.8345   -0.0665    1.8032 C.2       1 <1>        -0.2239
      6 C6          6.6018   -1.4417    1.5208 C.ar      1 <1>        -0.1099
      7 C7          5.2212   -1.6049    1.3884 C.ar      1 <1>         0.0989
      8 C8          5.6134    0.5667    1.8358 C.2       1 <1>         0.0896
      9 C9          3.3565    1.0517   -0.7675 C.2       1 <1>         0.4963
     10 C10         5.2911    1.9869    2.0853 C.3       1 <1>        -0.0972
     11 C11         2.7039   -0.0262    0.1030 C.3       1 <1>        -0.1974
     12 C12         3.2239   -0.1001    1.5337 C.3       1 <1>         0.1274
     13 N1          4.6464   -0.3694    1.5848 N.pl3     1 <1>        -0.4714
     14 O1          4.5985    0.8878   -0.9459 O.co2     1 <1>        -0.5000
     15 O2          2.6004    1.9629   -1.2024 O.co2     1 <1>        -0.5000
     16 H1          7.4970   -4.6818    0.9613 H         1 <1>         0.1159
     17 H2          5.0507   -4.9187    0.7360 H         1 <1>         0.1201
     18 H3          8.5140   -2.4764    1.4602 H         1 <1>         0.1156
     19 H4          3.5558   -2.9521    1.0074 H         1 <1>         0.1191
     20 H5          7.7940    0.4063    1.9642 H         1 <1>         0.1409
     21 H6          5.2781    2.5609    1.1449 H         1 <1>         0.0754
     22 H7          4.3062    2.1078    2.5667 H         1 <1>         0.0808
     23 H8          6.0219    2.4632    2.7602 H         1 <1>         0.0733
     24 H9          2.8529   -0.9927   -0.3953 H         1 <1>         0.0630
     25 H10         1.6225    0.1621    0.1116 H         1 <1>         0.0632
     26 H11         2.7154   -0.8904    2.0992 H         1 <1>         0.0870
     27 H12         3.0440    0.8403    2.0689 H         1 <1>         0.0893
@<TRIPOS>BOND
     1    1    2 ar
     2    1    3 ar
     3    2    4 ar
     4    3    6 ar
     5    4    7 ar
     6    5    6 1
     7    5    8 2
     8    6    7 ar
     9    7   13 1
    10    8   10 1
    11    8   13 1
    12    9   11 1
    13    9   14 1
    14    9   15 2
    15   11   12 1
    16   12   13 1
    17    1   16 1
    18    2   17 1
    19    3   18 1
    20    4   19 1
    21    5   20 1
    22   10   21 1
    23   10   22 1
    24   10   23 1
    25   11   24 1
    26   11   25 1
    27   12   26 1
    28   12   27 1
@<TRIPOS>Similarity
1.4321
@<TRIPOS>ShapeSim
0.8926
@<TRIPOS>PharmSim
0.5394
# END
# Name:		AN-652/40071745
# Created and modified by SHAFTS on Sun Jan  8 14:48:48 2012

# 

@<TRIPOS>MOLECULE
AN-652/40071745
   28    29     0
SMALL
USER_CHARGE


@<TRIPOS>ATOM
      1 C1          7.6353   -3.2211    1.7499 C.ar      1 <1>        -0.0969
      2 C2          6.6871   -4.0709    1.1883 C.ar      1 <1>        -0.0959
      3 C3          7.3289   -1.8769    1.9642 C.ar      1 <1>        -0.0866
      4 C4          5.4289   -3.5801    0.8388 C.ar      1 <1>        -0.0834
      5 C5          5.7418   -0.0155    1.8270 C.ar      1 <1>        -0.0774
      6 C6          4.4835    0.4755    1.4775 C.ar      1 <1>        -0.0615
      7 C7          3.8416   -1.7186    0.7015 C.ar      1 <1>        -0.0400
      8 C8          6.0674   -1.3656    1.6184 C.ar      1 <1>        -0.0720
      9 C9          5.1032   -2.2299    1.0472 C.ar      1 <1>        -0.0623
     10 C10         3.5353   -0.3744    0.9158 C.ar      1 <1>         0.0582
     11 C11        -0.5597   -0.1367   -0.3835 C.3       1 <1>         0.0303
     12 C12         0.2654    1.1152   -0.5815 C.3       1 <1>         0.2628
     13 O1          2.6792    1.9791   -1.0768 O.2       1 <1>        -0.0721
     14 O2          2.0027   -0.3267   -1.8933 O.2       1 <1>        -0.0721
     15 O3          2.3082    0.1061    0.5756 O.3       1 <1>        -0.1305
     16 S1          1.9676    0.7289   -0.9009 S.o2      1 <1>         0.0363
     17 H1          8.6148   -3.6038    2.0211 H         1 <1>         0.1244
     18 H2          6.9259   -5.1175    1.0219 H         1 <1>         0.1241
     19 H3          8.0851   -1.2300    2.4040 H         1 <1>         0.1297
     20 H4          4.7035   -4.2625    0.4005 H         1 <1>         0.1331
     21 H5          6.4678    0.6672    2.2640 H         1 <1>         0.1446
     22 H6          4.2505    1.5233    1.6460 H         1 <1>         0.1331
     23 H7          3.0886   -2.3700    0.2615 H         1 <1>         0.1586
     24 H8         -0.5287   -0.7613   -1.2811 H         1 <1>         0.0533
     25 H9         -0.1821   -0.7264    0.4583 H         1 <1>         0.0462
     26 H10        -1.6051    0.1112   -0.1734 H         1 <1>         0.0461
     27 H11         0.2401    1.7458    0.3114 H         1 <1>         0.1710
     28 H12        -0.0995    1.6936   -1.4345 H         1 <1>         0.1734
@<TRIPOS>BOND
     1    1    2 ar
     2    1    3 ar
     3    2    4 ar
     4    3    8 ar
     5    4    9 ar
     6    5    6 ar
     7    5    8 ar
     8    6   10 ar
     9    7    9 ar
    10    7   10 ar
    11    8    9 ar
    12   10   15 1
    13   11   12 1
    14   12   16 1
    15   13   16 2
    16   14   16 2
    17   15   16 1
    18    1   17 1
    19    2   18 1
    20    3   19 1
    21    4   20 1
    22    5   21 1
    23    6   22 1
    24    7   23 1
    25   11   24 1
    26   11   25 1
    27   11   26 1
    28   12   27 1
    29   12   28 1
@<TRIPOS>Similarity
1.4315
@<TRIPOS>ShapeSim
0.8642
@<TRIPOS>PharmSim
0.5673
# END
# Name:		AN-465/42796187
# Created and modified by SHAFTS on Sun Jan  8 14:48:48 2012

# 

@<TRIPOS>MOLECULE
AN-465/42796187
   24    24     0
SMALL
USER_CHARGE


@<TRIPOS>ATOM
      1 C1          7.2432   -3.7000    1.6502 C.ar      1 <1>        -0.1324
      2 C2          7.6940   -2.4179    1.3362 C.ar      1 <1>        -0.0676
      3 C3          5.8762   -3.9776    1.6530 C.ar      1 <1>        -0.0682
      4 C4          6.7777   -1.4132    1.0251 C.ar      1 <1>        -0.1506
      5 C5          4.9599   -2.9729    1.3419 C.ar      1 <1>        -0.1754
      6 C6          5.4107   -1.6906    1.0280 C.ar      1 <1>         0.1626
      7 C7          2.2285    0.1718    0.3710 C.cat     1 <1>         0.4795
      8 C8          2.8841    1.4262    0.0744 C.2       1 <1>         0.5656
      9 N1          2.6622    1.9428   -1.1837 N.am      1 <1>        -0.8053
     10 N2          4.4897   -0.6815    0.7154 N.pl3     1 <1>        -0.5405
     11 N3          3.0494   -0.8307    0.6786 N.pl3     1 <1>        -0.3912
     12 N4          0.9030    0.1244    0.3368 N.pl3     1 <1>        -0.7462
     13 O1          3.6126    1.9712    0.9003 O.2       1 <1>        -0.4607
     14 H1          7.9568   -4.4823    1.8926 H         1 <1>         0.1367
     15 H2          8.7581   -2.2020    1.3341 H         1 <1>         0.1410
     16 H3          5.5253   -4.9761    1.8975 H         1 <1>         0.1383
     17 H4          7.1392   -0.4174    0.7820 H         1 <1>         0.1347
     18 H5          3.8970   -3.2008    1.3471 H         1 <1>         0.1189
     19 H6          2.0684    1.4459   -1.8377 H         1 <1>         0.4110
     20 H7          3.0930    2.8206   -1.4559 H         1 <1>         0.4417
     21 H8          4.8556    0.2363    0.4928 H         1 <1>         0.4335
     22 H9          2.6340   -1.7312    0.8945 H         1 <1>         0.4697
     23 H10         0.3627    0.9478    0.0980 H         1 <1>         0.4602
     24 H11         0.3918   -0.7290    0.5258 H         1 <1>         0.4446
@<TRIPOS>BOND
     1    1    2 ar
     2    1    3 ar
     3    2    4 ar
     4    3    5 ar
     5    4    6 ar
     6    5    6 ar
     7    6   10 1
     8    7    8 1
     9    7   11 1
    10    7   12 2
    11    8    9 am
    12    8   13 2
    13   10   11 1
    14    1   14 1
    15    2   15 1
    16    3   16 1
    17    4   17 1
    18    5   18 1
    19    9   19 1
    20    9   20 1
    21   10   21 1
    22   11   22 1
    23   12   23 1
    24   12   24 1
@<TRIPOS>Similarity
1.4314
@<TRIPOS>ShapeSim
0.9115
@<TRIPOS>PharmSim
0.5199
# END
# Name:		AI-981/34479008
# Created and modified by SHAFTS on Sun Jan  8 14:48:48 2012

# 

@<TRIPOS>MOLECULE
AI-981/34479008
   26    27     0
SMALL
USER_CHARGE


@<TRIPOS>ATOM
      1 C1          5.5320   -3.7488    1.2730 C.ar      1 <1>        -0.1003
      2 C2          6.9208   -3.6570    1.3401 C.ar      1 <1>        -0.0965
      3 C3          4.7366   -2.5972    1.2849 C.ar      1 <1>        -0.0900
      4 C4          7.5581   -2.4155    1.4209 C.ar      1 <1>        -0.0745
      5 C5          5.9689    0.8383    1.4849 C.2       1 <1>        -0.0349
      6 C6          5.3566   -1.3344    1.3659 C.ar      1 <1>        -0.0523
      7 C7          4.8774    0.0050    1.4000 C.2       1 <1>         0.0155
      8 C8          6.7502   -1.2729    1.4319 C.ar      1 <1>        -0.0613
      9 C9          3.5168    0.4606    1.3562 C.2       1 <1>         0.0418
     10 C10         1.9809    1.0947   -1.0910 C.3       1 <1>        -0.0330
     11 C11         2.1877    2.0594    0.0572 C.3       1 <1>         0.0269
     12 N1          2.4824   -0.2088    1.8219 N.2       1 <1>        -0.4526
     13 N2          7.0940    0.0583    1.5032 N.pl3     1 <1>        -0.3596
     14 O1          3.3812    1.6939    0.7658 O.3       1 <1>        -0.3761
     15 H1          5.0597   -4.7257    1.2099 H         1 <1>         0.1183
     16 H2          7.5194   -4.5643    1.3298 H         1 <1>         0.1253
     17 H3          3.6554   -2.6855    1.2316 H         1 <1>         0.1251
     18 H4          8.6393   -2.3457    1.4733 H         1 <1>         0.1257
     19 H5          6.0492    1.9155    1.5338 H         1 <1>         0.2223
     20 H6          2.8240    1.1292   -1.7864 H         1 <1>         0.0463
     21 H7          1.8707    0.0705   -0.7195 H         1 <1>         0.0569
     22 H8          1.0627    1.3357   -1.6368 H         1 <1>         0.0463
     23 H9          1.3410    2.0199    0.7489 H         1 <1>         0.1021
     24 H10         2.2985    3.0820   -0.3158 H         1 <1>         0.1020
     25 H11         2.7342   -1.1105    2.2316 H         1 <1>         0.2410
     26 H12         8.0402    0.4087    1.5612 H         1 <1>         0.3358
@<TRIPOS>BOND
     1    1    2 ar
     2    1    3 ar
     3    2    4 ar
     4    3    6 ar
     5    4    8 ar
     6    5    7 2
     7    5   13 1
     8    6    7 1
     9    6    8 ar
    10    7    9 1
    11    8   13 1
    12    9   12 2
    13    9   14 1
    14   10   11 1
    15   11   14 1
    16    1   15 1
    17    2   16 1
    18    3   17 1
    19    4   18 1
    20    5   19 1
    21   10   20 1
    22   10   21 1
    23   10   22 1
    24   11   23 1
    25   11   24 1
    26   12   25 1
    27   13   26 1
@<TRIPOS>Similarity
1.4298
@<TRIPOS>ShapeSim
0.9170
@<TRIPOS>PharmSim
0.5128
# END
# Name:		AL-182/12304024
# Created and modified by SHAFTS on Sun Jan  8 14:48:48 2012

# 

@<TRIPOS>MOLECULE
AL-182/12304024
   33    35     0
SMALL
USER_CHARGE


@<TRIPOS>ATOM
      1 C1          6.0995   -4.0118    1.3960 C.ar      1 <1>        -0.0966
      2 C2          7.4218   -3.5720    1.3961 C.ar      1 <1>        -0.0971
      3 C3          5.0404   -3.0970    1.3960 C.ar      1 <1>        -0.0790
      4 C4          7.7277   -2.2082    1.3963 C.ar      1 <1>        -0.0769
      5 C5          5.3725    0.5431    1.3967 C.2       1 <1>        -0.0268
      6 C6          5.3243   -1.7168    1.3962 C.ar      1 <1>        -0.0471
      7 C7          4.5241   -0.5401    1.3963 C.2       1 <1>         0.0073
      8 C8          6.6588   -1.3051    1.3963 C.ar      1 <1>        -0.0591
      9 C9          3.0701   -0.4410    1.3953 C.2       1 <1>        -0.0458
     10 C10         2.3564    3.1185   -0.6632 C.3       1 <1>        -0.0614
     11 C11         2.8275    3.0834    0.7912 C.3       1 <1>        -0.0476
     12 C12         2.6715    1.8012   -1.3727 C.3       1 <1>        -0.0475
     13 C13         2.2586    1.8741    1.5275 C.3       1 <1>        -0.0354
     14 C14         2.1057    0.6100   -0.6049 C.3       1 <1>        -0.0355
     15 N1          6.6579    0.0716    1.3965 N.pl3     1 <1>        -0.3532
     16 N2          2.5243    0.6437    0.7915 N.pl3     1 <1>        -0.4024
     17 S1          2.1136   -1.6282    2.0856 S.2       1 <1>        -0.2861
     18 H1          5.8871   -5.0779    1.3953 H         1 <1>         0.1180
     19 H2          8.2293   -4.3000    1.3965 H         1 <1>         0.1246
     20 H3          4.0152   -3.4557    1.3957 H         1 <1>         0.1520
     21 H4          8.7575   -1.8672    1.3965 H         1 <1>         0.1226
     22 H5          5.1803    1.6073    1.3972 H         1 <1>         0.2298
     23 H6          1.2757    3.3029   -0.6946 H         1 <1>         0.0434
     24 H7          2.8403    3.9485   -1.1899 H         1 <1>         0.0410
     25 H8          3.9235    3.0376    0.8104 H         1 <1>         0.0545
     26 H9          2.5318    4.0057    1.3029 H         1 <1>         0.0555
     27 H10         2.2655    1.8171   -2.3899 H         1 <1>         0.0550
     28 H11         3.7600    1.6935   -1.4586 H         1 <1>         0.0552
     29 H12         2.6831    1.8091    2.5352 H         1 <1>         0.0958
     30 H13         1.1710    1.9651    1.6305 H         1 <1>         0.1036
     31 H14         1.0096    0.6314   -0.6182 H         1 <1>         0.0949
     32 H15         2.4250   -0.3285   -1.0711 H         1 <1>         0.1033
     33 H16         7.4865    0.6502    1.3969 H         1 <1>         0.3406
@<TRIPOS>BOND
     1    1    2 ar
     2    1    3 ar
     3    2    4 ar
     4    3    6 ar
     5    4    8 ar
     6    5    7 2
     7    5   15 1
     8    6    7 1
     9    6    8 ar
    10    7    9 1
    11    8   15 1
    12    9   16 1
    13    9   17 2
    14   10   11 1
    15   10   12 1
    16   11   13 1
    17   12   14 1
    18   13   16 1
    19   14   16 1
    20    1   18 1
    21    2   19 1
    22    3   20 1
    23    4   21 1
    24    5   22 1
    25   10   23 1
    26   10   24 1
    27   11   25 1
    28   11   26 1
    29   12   27 1
    30   12   28 1
    31   13   29 1
    32   13   30 1
    33   14   31 1
    34   14   32 1
    35   15   33 1
@<TRIPOS>Similarity
1.4270
@<TRIPOS>ShapeSim
0.9036
@<TRIPOS>PharmSim
0.5234
# END
# Name:		ZINC00054337
# Created and modified by SHAFTS on Sun Jan  8 14:48:48 2012

# 

@<TRIPOS>MOLECULE
ZINC00054337
   35    37     0
SMALL
USER_CHARGE


@<TRIPOS>ATOM
      1 C1          6.2392   -4.2001    1.3907 C.ar      1 <1>        -0.1026
      2 C2          7.5460   -3.7191    1.4442 C.ar      1 <1>        -0.0991
      3 C3          5.1519   -3.3191    1.3698 C.ar      1 <1>        -0.0941
      4 C4          7.8080   -2.3465    1.4786 C.ar      1 <1>        -0.0775
      5 C5          5.3674    0.3291    1.4454 C.2       1 <1>        -0.0747
      6 C6          5.3914   -1.9309    1.4038 C.ar      1 <1>        -0.0782
      7 C7          4.5545   -0.7800    1.3967 C.2       1 <1>        -0.0881
      8 C8          6.7112   -1.4776    1.4574 C.ar      1 <1>        -0.0697
      9 C9          2.4372    1.5047    0.4516 C.2       1 <1>         0.1620
     10 C10         0.3262    0.8380   -0.0246 C.2       1 <1>        -0.0023
     11 C11        -0.9428    3.7757    2.3975 C.2       1 <1>        -0.1212
     12 C12         0.2786    3.4330    1.9730 C.2       1 <1>        -0.1093
     13 C13         2.5244    0.0132    0.1573 C.3       1 <1>         0.1003
     14 C14         3.0469   -0.7657    1.3467 C.3       1 <1>         0.0045
     15 C15         0.6447    3.2676    0.5344 C.3       1 <1>         0.0239
     16 N1          6.6664   -0.1018    1.4815 N.pl3     1 <1>        -0.3733
     17 N2          1.1440   -0.2812   -0.1245 N.pl3     1 <1>        -0.3160
     18 N3          1.1220    1.9082    0.3262 N.am      1 <1>        -0.2589
     19 O1          3.4042    2.1937    0.7514 O.2       1 <1>        -0.4218
     20 S1         -1.3144    0.7970   -0.3033 S.2       1 <1>        -0.3037
     21 H1          6.0608   -5.2717    1.3641 H         1 <1>         0.1129
     22 H2          8.3756   -4.4213    1.4596 H         1 <1>         0.1228
     23 H3          4.1392   -3.7097    1.3270 H         1 <1>         0.1258
     24 H4          8.8255   -1.9730    1.5215 H         1 <1>         0.1208
     25 H5          5.1390    1.3859    1.4561 H         1 <1>         0.1925
     26 H6         -1.1446    3.8863    3.4573 H         1 <1>         0.0969
     27 H7         -1.7572    3.9499    1.7028 H         1 <1>         0.0943
     28 H8          1.0606    3.2762    2.7120 H         1 <1>         0.0915
     29 H9          3.1123   -0.1592   -0.7485 H         1 <1>         0.1791
     30 H10         2.6731   -1.7986    1.3141 H         1 <1>         0.0900
     31 H11         2.6550   -0.3366    2.2795 H         1 <1>         0.1029
     32 H12         1.4443    3.9674    0.2729 H         1 <1>         0.1471
     33 H13        -0.2025    3.4501   -0.1346 H         1 <1>         0.1385
     34 H14         7.4758    0.5020    1.5204 H         1 <1>         0.3291
     35 H15         0.8056   -1.1979   -0.3997 H         1 <1>         0.3555
@<TRIPOS>BOND
     1    1    2 ar
     2    1    3 ar
     3    2    4 ar
     4    3    6 ar
     5    4    8 ar
     6    5    7 2
     7    5   16 1
     8    6    7 1
     9    6    8 ar
    10    7   14 1
    11    8   16 1
    12    9   13 1
    13    9   18 am
    14    9   19 2
    15   10   17 1
    16   10   18 1
    17   10   20 2
    18   11   12 2
    19   12   15 1
    20   13   14 1
    21   13   17 1
    22   15   18 1
    23    1   21 1
    24    2   22 1
    25    3   23 1
    26    4   24 1
    27    5   25 1
    28   11   26 1
    29   11   27 1
    30   12   28 1
    31   13   29 1
    32   14   30 1
    33   14   31 1
    34   15   32 1
    35   15   33 1
    36   16   34 1
    37   17   35 1
@<TRIPOS>Similarity
1.4260
@<TRIPOS>ShapeSim
0.8333
@<TRIPOS>PharmSim
0.5927
# END
# Name:		AN-652/42476886
# Created and modified by SHAFTS on Sun Jan  8 14:48:48 2012

# 

@<TRIPOS>MOLECULE
AN-652/42476886
   28    29     0
SMALL
USER_CHARGE


@<TRIPOS>ATOM
      1 C1          6.6344   -0.0642    0.8068 C.ar      1 <1>        -0.0722
      2 C2          5.2934   -3.3455    1.9096 C.ar      1 <1>        -0.0719
      3 C3          5.4718    0.7063    0.7694 C.ar      1 <1>        -0.0573
      4 C4          6.4560   -4.1159    1.9470 C.ar      1 <1>        -0.0726
      5 C5          4.1815   -1.2033    1.4876 C.ar      1 <1>        -0.0358
      6 C6          7.7463   -2.2063    1.2287 C.ar      1 <1>        -0.0613
      7 C7          5.3415   -1.9939    1.5310 C.ar      1 <1>        -0.0547
      8 C8          6.5863   -1.4158    1.1855 C.ar      1 <1>        -0.0604
      9 C9          4.2479    0.1378    1.1091 C.ar      1 <1>         0.0617
     10 C10         7.6800   -3.5475    1.6072 C.ar      1 <1>        -0.0318
     11 C11         0.1332    0.4891    1.4611 C.3       1 <1>         0.0305
     12 C12         0.7037    1.5751    0.5766 C.3       1 <1>         0.2629
     13 O1          2.6470    2.1269   -1.0776 O.2       1 <1>        -0.0722
     14 O2          1.9071   -0.2853   -0.8049 O.2       1 <1>        -0.0722
     15 O3          3.1148    0.8916    1.0744 O.3       1 <1>        -0.1292
     16 S1          2.1718    1.0303   -0.2579 S.o2      1 <1>         0.0366
     17 Br1         9.2530   -4.5940    1.6584 Br        1 <1>        -0.1033
     18 H1          7.5803    0.4010    0.5370 H         1 <1>         0.1496
     19 H2          4.3476   -3.8105    2.1799 H         1 <1>         0.1452
     20 H3          5.5292    1.7504    0.4739 H         1 <1>         0.1372
     21 H4          6.3871   -5.1593    2.2442 H         1 <1>         0.1394
     22 H5          3.2163   -1.6325    1.7508 H         1 <1>         0.1619
     23 H6          8.7068   -1.7664    0.9643 H         1 <1>         0.1493
     24 H7         -0.1355   -0.3880    0.8649 H         1 <1>         0.0464
     25 H8          0.8593    0.1792    2.2198 H         1 <1>         0.0463
     26 H9         -0.7641    0.8381    1.9823 H         1 <1>         0.0537
     27 H10         0.9752    2.4562    1.1645 H         1 <1>         0.1711
     28 H11        -0.0143    1.8702   -0.1934 H         1 <1>         0.1740
@<TRIPOS>BOND
     1    1    3 ar
     2    1    8 ar
     3    2    4 ar
     4    2    7 ar
     5    3    9 ar
     6    4   10 ar
     7    5    7 ar
     8    5    9 ar
     9    6    8 ar
    10    6   10 ar
    11    7    8 ar
    12    9   15 1
    13   10   17 1
    14   11   12 1
    15   12   16 1
    16   13   16 2
    17   14   16 2
    18   15   16 1
    19    1   18 1
    20    2   19 1
    21    3   20 1
    22    4   21 1
    23    5   22 1
    24    6   23 1
    25   11   24 1
    26   11   25 1
    27   11   26 1
    28   12   27 1
    29   12   28 1
@<TRIPOS>Similarity
1.4225
@<TRIPOS>ShapeSim
0.8713
@<TRIPOS>PharmSim
0.5512
# END
# Name:		AI-204/31682040
# Created and modified by SHAFTS on Sun Jan  8 14:48:48 2012

# 

@<TRIPOS>MOLECULE
AI-204/31682040
   30    31     0
SMALL
USER_CHARGE


@<TRIPOS>ATOM
      1 C1          6.1733   -4.1235    1.3328 C.ar      1 <1>        -0.0903
      2 C2          5.0504   -3.2988    1.4096 C.ar      1 <1>        -0.0768
      3 C3          7.6024   -2.1793    1.3592 C.ar      1 <1>        -0.0646
      4 C4          7.4484   -3.5643    1.3106 C.ar      1 <1>        -0.1030
      5 C5          6.4783   -1.3460    1.4127 C.ar      1 <1>        -0.0419
      6 C6          5.1964   -1.9066    1.4474 C.ar      1 <1>        -0.0275
      7 C7          5.7193    1.0213    1.3816 C.2       1 <1>         0.1132
      8 C8          2.1910    1.4880   -0.0527 C.2       1 <1>         0.1530
      9 C9          4.3779    0.5949    0.8049 C.3       1 <1>         0.1263
     10 C10         8.6488   -4.4463    1.2408 C.3       1 <1>        -0.0376
     11 C11         1.4927    2.0010   -2.2544 C.3       1 <1>         0.0338
     12 C12         3.3345    1.7021    0.9074 C.3       1 <1>         0.1042
     13 N1          6.6892    0.0442    1.4912 N.am      1 <1>        -0.3038
     14 O1          5.9719    2.2025    1.6303 O.2       1 <1>        -0.4678
     15 O2          1.1707    0.8579    0.1888 O.2       1 <1>        -0.4536
     16 O3          2.4871    2.1128   -1.2310 O.3       1 <1>        -0.3640
     17 S1          3.7524   -0.8856    1.6378 S.3       1 <1>        -0.1525
     18 H1          6.0434   -5.2020    1.3013 H         1 <1>         0.1270
     19 H2          4.0652   -3.7582    1.4456 H         1 <1>         0.1431
     20 H3          8.6018   -1.7490    1.3492 H         1 <1>         0.1316
     21 H4          4.5349    0.3598   -0.2547 H         1 <1>         0.1709
     22 H5          8.9229   -4.6367    0.1958 H         1 <1>         0.0619
     23 H6          9.5088   -3.9902    1.7483 H         1 <1>         0.0568
     24 H7          8.4644   -5.4102    1.7331 H         1 <1>         0.0587
     25 H8          1.8276    2.5328   -3.1484 H         1 <1>         0.1249
     26 H9          0.5510    2.4249   -1.8967 H         1 <1>         0.0969
     27 H10         1.3469    0.9452   -2.4945 H         1 <1>         0.0978
     28 H11         3.8088    2.6605    0.6804 H         1 <1>         0.1222
     29 H12         2.9384    1.7243    1.9259 H         1 <1>         0.1306
     30 H13         7.6394    0.3533    1.6793 H         1 <1>         0.3313
@<TRIPOS>BOND
     1    1    2 ar
     2    1    4 ar
     3    2    6 ar
     4    3    4 ar
     5    3    5 ar
     6    4   10 1
     7    5    6 ar
     8    5   13 1
     9    6   17 1
    10    7    9 1
    11    7   13 am
    12    7   14 2
    13    8   12 1
    14    8   15 2
    15    8   16 1
    16    9   12 1
    17    9   17 1
    18   11   16 1
    19    1   18 1
    20    2   19 1
    21    3   20 1
    22    9   21 1
    23   10   22 1
    24   10   23 1
    25   10   24 1
    26   11   25 1
    27   11   26 1
    28   11   27 1
    29   12   28 1
    30   12   29 1
    31   13   30 1
@<TRIPOS>Similarity
1.4214
@<TRIPOS>ShapeSim
0.8840
@<TRIPOS>PharmSim
0.5374
# END
# Name:		AI-204/42879130
# Created and modified by SHAFTS on Sun Jan  8 14:48:48 2012

# 

@<TRIPOS>MOLECULE
AI-204/42879130
   27    28     0
SMALL
USER_CHARGE


@<TRIPOS>ATOM
      1 C1          5.9134   -3.9833    1.6229 C.ar      1 <1>        -0.1660
      2 C2          7.2685   -3.6686    1.7024 C.ar      1 <1>        -0.1096
      3 C3          4.9565   -2.9827    1.4176 C.ar      1 <1>        -0.0558
      4 C4          7.7102   -2.3481    1.5797 C.ar      1 <1>        -0.1405
      5 C5          5.6553    0.5855    1.0434 C.2       1 <1>         0.0409
      6 C6          5.3780   -1.6442    1.2909 C.ar      1 <1>        -0.0788
      7 C7          6.7424   -1.3583    1.3747 C.ar      1 <1>         0.1002
      8 C8          4.7045   -0.4082    1.0815 C.2       1 <1>        -0.1607
      9 C9          0.3367    0.4082   -0.8191 C.2       1 <1>         0.4601
     10 C10         3.3420    0.9959   -1.3977 C.2       1 <1>         0.4759
     11 C11         1.3527   -0.6627   -1.2406 C.3       1 <1>        -0.1240
     12 C12         2.8031   -0.3523   -0.8920 C.3       1 <1>        -0.0877
     13 N1          6.8814    0.0027    1.2209 N.pl3     1 <1>        -0.5933
     14 O1          0.2500    0.5723    0.4325 O.co2     1 <1>        -0.5000
     15 O2          2.6604    2.0030   -1.0455 O.co2     1 <1>        -0.5000
     16 O3         -0.2913    0.9894   -1.7459 O.co2     1 <1>        -0.5000
     17 O4          4.4031    0.9534   -2.0823 O.co2     1 <1>        -0.5000
     18 S1          2.9836   -0.1815    0.9037 S.3       1 <1>        -0.0416
     19 H1          5.5944   -5.0176    1.7211 H         1 <1>         0.1143
     20 H2          7.9946   -4.4614    1.8632 H         1 <1>         0.1145
     21 H3          3.9048   -3.2481    1.3578 H         1 <1>         0.1215
     22 H4          8.7654   -2.1040    1.6430 H         1 <1>         0.1112
     23 H5          5.5747    1.6551    0.9049 H         1 <1>         0.1920
     24 H6          1.0355   -1.6124   -0.7899 H         1 <1>         0.0778
     25 H7          1.2463   -0.7711   -2.3284 H         1 <1>         0.0714
     26 H8          3.4606   -1.1629   -1.2255 H         1 <1>         0.0797
     27 H9          7.7614    0.4993    1.2360 H         1 <1>         0.4092
@<TRIPOS>BOND
     1    1    2 ar
     2    1    3 ar
     3    2    4 ar
     4    3    6 ar
     5    4    7 ar
     6    5    8 2
     7    5   13 1
     8    6    7 ar
     9    6    8 1
    10    7   13 1
    11    8   18 1
    12    9   11 1
    13    9   14 1
    14    9   16 2
    15   10   12 1
    16   10   15 1
    17   10   17 2
    18   11   12 1
    19   12   18 1
    20    1   19 1
    21    2   20 1
    22    3   21 1
    23    4   22 1
    24    5   23 1
    25   11   24 1
    26   11   25 1
    27   12   26 1
    28   13   27 1
@<TRIPOS>Similarity
1.4213
@<TRIPOS>ShapeSim
0.8343
@<TRIPOS>PharmSim
0.5869
# END
# Name:		AI-204/31682043
# Created and modified by SHAFTS on Sun Jan  8 14:48:48 2012

# 

@<TRIPOS>MOLECULE
AI-204/31682043
   30    31     0
SMALL
USER_CHARGE


@<TRIPOS>ATOM
      1 C1          7.2555   -3.5840    1.0621 C.ar      1 <1>        -0.0889
      2 C2          5.9463   -4.0423    1.1785 C.ar      1 <1>        -0.0905
      3 C3          7.5307   -2.2237    1.1956 C.ar      1 <1>        -0.0645
      4 C4          4.9120   -3.1414    1.4342 C.ar      1 <1>        -0.0771
      5 C5          6.4933   -1.3128    1.4312 C.ar      1 <1>        -0.0421
      6 C6          5.1787   -1.7717    1.5597 C.ar      1 <1>        -0.0300
      7 C7          5.9500    1.1004    1.6581 C.2       1 <1>         0.1145
      8 C8          2.8793    1.1128   -0.5973 C.2       1 <1>         0.1549
      9 C9          4.5048    0.8636    1.2708 C.3       1 <1>         0.1232
     10 C10         5.2161    1.9800   -0.8653 C.3       1 <1>        -0.0273
     11 C11         0.7254    0.1650   -0.3464 C.3       1 <1>         0.0351
     12 C12         4.3402    0.8947   -0.2454 C.3       1 <1>         0.0914
     13 N1          6.8305    0.0450    1.5799 N.am      1 <1>        -0.3037
     14 O1          6.3361    2.2415    1.9293 O.2       1 <1>        -0.4660
     15 O2          2.4512    2.0549   -1.2511 O.2       1 <1>        -0.4539
     16 O3          2.1299    0.0937   -0.0808 O.3       1 <1>        -0.3595
     17 S1          3.8466   -0.6690    1.9717 S.3       1 <1>        -0.1589
     18 H1          8.0610   -4.2844    0.8622 H         1 <1>         0.1339
     19 H2          5.7280   -5.0992    1.0591 H         1 <1>         0.1275
     20 H3          8.5612   -1.8836    1.1206 H         1 <1>         0.1326
     21 H4          3.8972   -3.5229    1.5278 H         1 <1>         0.1423
     22 H5          3.9253    1.7187    1.6873 H         1 <1>         0.1740
     23 H6          4.9483    2.9668   -0.4734 H         1 <1>         0.0535
     24 H7          5.0941    2.0033   -1.9537 H         1 <1>         0.0561
     25 H8          6.2777    1.8080   -0.6550 H         1 <1>         0.0543
     26 H9          0.2238   -0.6927    0.1085 H         1 <1>         0.0960
     27 H10         0.5576    0.1682   -1.4263 H         1 <1>         0.0945
     28 H11         0.3285    1.0871    0.0847 H         1 <1>         0.1251
     29 H12         4.6502   -0.0672   -0.6715 H         1 <1>         0.1215
     30 H13         7.8238    0.2679    1.6348 H         1 <1>         0.3319
@<TRIPOS>BOND
     1    1    2 ar
     2    1    3 ar
     3    2    4 ar
     4    3    5 ar
     5    4    6 ar
     6    5    6 ar
     7    5   13 1
     8    6   17 1
     9    7    9 1
    10    7   13 am
    11    7   14 2
    12    8   12 1
    13    8   15 2
    14    8   16 1
    15    9   12 1
    16    9   17 1
    17   10   12 1
    18   11   16 1
    19    1   18 1
    20    2   19 1
    21    3   20 1
    22    4   21 1
    23    9   22 1
    24   10   23 1
    25   10   24 1
    26   10   25 1
    27   11   26 1
    28   11   27 1
    29   11   28 1
    30   12   29 1
    31   13   30 1
@<TRIPOS>Similarity
1.4212
@<TRIPOS>ShapeSim
0.8805
@<TRIPOS>PharmSim
0.5407
# END
# Name:		AE-473/30364041
# Created and modified by SHAFTS on Sun Jan  8 14:48:48 2012

# 

@<TRIPOS>MOLECULE
AE-473/30364041
   29    31     0
SMALL
USER_CHARGE


@<TRIPOS>ATOM
      1 C1          6.1470   -4.0371    1.3973 C.ar      1 <1>        -0.0969
      2 C2          7.4485   -3.5403    1.3962 C.ar      1 <1>        -0.0924
      3 C3          5.0490   -3.1694    1.3970 C.ar      1 <1>        -0.0891
      4 C4          7.6949   -2.1644    1.3954 C.ar      1 <1>        -0.0693
      5 C5          5.2707   -1.7774    1.3952 C.ar      1 <1>        -0.0774
      6 C6          4.4242   -0.6352    1.3946 C.2       1 <1>        -0.1105
      7 C7          6.5889   -1.3067    1.3956 C.ar      1 <1>        -0.0615
      8 C8          5.2342    0.4796    1.3997 C.2       1 <1>        -0.0936
      9 C9          2.9445   -0.5247    1.4090 C.3       1 <1>        -0.0798
     10 C10         4.7734    1.8920    1.3778 C.3       1 <1>        -0.0240
     11 C11         3.2908    1.9683    1.7762 C.3       1 <1>        -0.0804
     12 C12         2.3092    1.1290   -0.4034 C.3       1 <1>        -0.0862
     13 N1          6.5362    0.0716    1.3965 N.pl3     1 <1>        -0.3685
     14 N2          2.4629    0.8923    1.0753 N.4       1 <1>         0.4091
     15 H1          5.9805   -5.1111    1.3968 H         1 <1>         0.1191
     16 H2          8.2867   -4.2324    1.3949 H         1 <1>         0.1294
     17 H3          4.0399   -3.5715    1.3989 H         1 <1>         0.1344
     18 H4          8.7093   -1.7798    1.3944 H         1 <1>         0.1349
     19 H5          2.5062   -1.1967    0.6578 H         1 <1>         0.1155
     20 H6          2.5336   -0.7661    2.3982 H         1 <1>         0.1142
     21 H7          5.3746    2.4765    2.0853 H         1 <1>         0.1002
     22 H8          4.9096    2.3325    0.3837 H         1 <1>         0.1110
     23 H9          3.1757    1.8199    2.8620 H         1 <1>         0.1032
     24 H10         2.8429    2.9399    1.5052 H         1 <1>         0.1000
     25 H11         3.2988    1.0551   -0.8581 H         1 <1>         0.0823
     26 H12         1.6382    0.3630   -0.7965 H         1 <1>         0.0822
     27 H13         1.8882    2.1270   -0.5400 H         1 <1>         0.0827
     28 H14         7.3420    0.6823    1.3971 H         1 <1>         0.3403
     29 H15         1.4993    0.9702    1.4780 H         1 <1>         0.1713
@<TRIPOS>BOND
     1    1    2 ar
     2    1    3 ar
     3    2    4 ar
     4    3    5 ar
     5    4    7 ar
     6    5    6 1
     7    5    7 ar
     8    6    8 2
     9    6    9 1
    10    7   13 1
    11    8   10 1
    12    8   13 1
    13    9   14 1
    14   10   11 1
    15   11   14 1
    16   12   14 1
    17    1   15 1
    18    2   16 1
    19    3   17 1
    20    4   18 1
    21    9   19 1
    22    9   20 1
    23   10   21 1
    24   10   22 1
    25   11   23 1
    26   11   24 1
    27   12   25 1
    28   12   26 1
    29   12   27 1
    30   13   28 1
    31   14   29 1
@<TRIPOS>Similarity
1.4205
@<TRIPOS>ShapeSim
0.9205
@<TRIPOS>PharmSim
0.5000
# END
# Name:		AI-204/31683014
# Created and modified by SHAFTS on Sun Jan  8 14:48:48 2012

# 

@<TRIPOS>MOLECULE
AI-204/31683014
   27    28     0
SMALL
USER_CHARGE


@<TRIPOS>ATOM
      1 C1          5.0505   -3.2989    1.4096 C.ar      1 <1>        -0.0656
      2 C2          6.1734   -4.1236    1.3329 C.ar      1 <1>        -0.0589
      3 C3          7.6025   -2.1793    1.3594 C.ar      1 <1>        -0.0337
      4 C4          6.4784   -1.3460    1.4128 C.ar      1 <1>        -0.0322
      5 C5          5.1964   -1.9067    1.4474 C.ar      1 <1>        -0.0186
      6 C6          7.4486   -3.5644    1.3107 C.ar      1 <1>         0.0012
      7 C7          5.7194    1.0212    1.3815 C.2       1 <1>         0.1166
      8 C8          2.1912    1.4880   -0.0529 C.2       1 <1>         0.1529
      9 C9          4.3780    0.5948    0.8048 C.3       1 <1>         0.1292
     10 C10         1.4925    2.0012   -2.2545 C.3       1 <1>         0.0341
     11 C11         3.3346    1.7020    0.9073 C.3       1 <1>         0.1047
     12 N1          6.6893    0.0442    1.4913 N.am      1 <1>        -0.3008
     13 O1          5.9719    2.2025    1.6303 O.2       1 <1>        -0.4627
     14 O2          1.1708    0.8577    0.1887 O.2       1 <1>        -0.4540
     15 O3          2.4869    2.1130   -1.2311 O.3       1 <1>        -0.3638
     16 S1          3.7525   -0.8857    1.6377 S.3       1 <1>        -0.1450
     17 Cl1         8.8338   -4.5829    1.2317 Cl        1 <1>        -0.1272
     18 H1          4.0653   -3.7582    1.4456 H         1 <1>         0.1545
     19 H2          6.0374   -5.2017    1.3021 H         1 <1>         0.1427
     20 H3          8.5999   -1.7435    1.3496 H         1 <1>         0.1466
     21 H4          4.5350    0.3591   -0.2549 H         1 <1>         0.1728
     22 H5          1.8272    2.5331   -3.1485 H         1 <1>         0.0972
     23 H6          0.5507    2.4249   -1.8965 H         1 <1>         0.1252
     24 H7          1.3467    0.9454   -2.4946 H         1 <1>         0.0980
     25 H8          3.8087    2.6605    0.6803 H         1 <1>         0.1315
     26 H9          2.9383    1.7243    1.9258 H         1 <1>         0.1224
     27 H10         7.6394    0.3532    1.6792 H         1 <1>         0.3329
@<TRIPOS>BOND
     1    1    2 ar
     2    1    5 ar
     3    2    6 ar
     4    3    4 ar
     5    3    6 ar
     6    4    5 ar
     7    4   12 1
     8    5   16 1
     9    6   17 1
    10    7    9 1
    11    7   12 am
    12    7   13 2
    13    8   11 1
    14    8   14 2
    15    8   15 1
    16    9   11 1
    17    9   16 1
    18   10   15 1
    19    1   18 1
    20    2   19 1
    21    3   20 1
    22    9   21 1
    23   10   22 1
    24   10   23 1
    25   10   24 1
    26   11   25 1
    27   11   26 1
    28   12   27 1
@<TRIPOS>Similarity
1.4198
@<TRIPOS>ShapeSim
0.8824
@<TRIPOS>PharmSim
0.5374
# END
# Name:		AE-848/00990055
# Created and modified by SHAFTS on Sun Jan  8 14:48:48 2012

# 

@<TRIPOS>MOLECULE
AE-848/00990055
   27    27     0
SMALL
USER_CHARGE


@<TRIPOS>ATOM
      1 C1          2.8625    1.6269   -0.0094 C.2       1 <1>         0.4672
      2 C2          7.2302   -4.0661    0.8954 C.3       1 <1>        -0.1199
      3 C3          5.7099   -4.1673    0.8158 C.3       1 <1>        -0.1142
      4 C4          7.7047   -2.6161    0.8837 C.3       1 <1>        -0.1171
      5 C5          5.0311   -3.3468    1.9135 C.3       1 <1>        -0.0967
      6 C6          7.0293   -1.7916    1.9809 C.3       1 <1>        -0.1162
      7 C7          5.4988   -1.8870    1.9634 C.3       1 <1>        -0.0479
      8 C8          2.3134    0.2368    0.3346 C.3       1 <1>        -0.1430
      9 C9          3.1603   -0.6329    1.2539 C.3       1 <1>        -0.0446
     10 O1          3.4924    2.2225    0.9074 O.co2     1 <1>        -0.5000
     11 O2          2.6238    2.0017   -1.1935 O.co2     1 <1>        -0.5000
     12 S1          4.8044   -0.9271    0.5666 S.3       1 <1>        -0.2982
     13 H1          7.5857   -4.5632    1.8061 H         1 <1>         0.0601
     14 H2          7.6756   -4.6015    0.0468 H         1 <1>         0.0623
     15 H3          5.3682   -3.8214   -0.1662 H         1 <1>         0.0622
     16 H4          5.4085   -5.2181    0.9075 H         1 <1>         0.0643
     17 H5          8.7921   -2.5866    1.0238 H         1 <1>         0.0614
     18 H6          7.4964   -2.1676   -0.0941 H         1 <1>         0.0637
     19 H7          3.9349   -3.3922    1.7572 H         1 <1>         0.0693
     20 H8          5.2152   -3.8394    2.8877 H         1 <1>         0.0696
     21 H9          7.4211   -2.1218    2.9625 H         1 <1>         0.0727
     22 H10         7.3475   -0.7356    1.8709 H         1 <1>         0.0669
     23 H11         5.1101   -1.4259    2.8940 H         1 <1>         0.0822
     24 H12         1.2999    0.3408    0.7434 H         1 <1>         0.0732
     25 H13         2.2053   -0.2865   -0.6244 H         1 <1>         0.0730
     26 H14         2.6823   -1.6003    1.4367 H         1 <1>         0.0798
     27 H15         3.2846   -0.1356    2.2212 H         1 <1>         0.0782
@<TRIPOS>BOND
     1    1    8 1
     2    1   10 1
     3    1   11 2
     4    2    3 1
     5    2    4 1
     6    3    5 1
     7    4    6 1
     8    5    7 1
     9    6    7 1
    10    7   12 1
    11    8    9 1
    12    9   12 1
    13    2   13 1
    14    2   14 1
    15    3   15 1
    16    3   16 1
    17    4   17 1
    18    4   18 1
    19    5   19 1
    20    5   20 1
    21    6   21 1
    22    6   22 1
    23    7   23 1
    24    8   24 1
    25    8   25 1
    26    9   26 1
    27    9   27 1
@<TRIPOS>Similarity
1.4190
@<TRIPOS>ShapeSim
0.8768
@<TRIPOS>PharmSim
0.5422
# END
# Name:		AK-928/13228049
# Created and modified by SHAFTS on Sun Jan  8 14:48:48 2012

# 

@<TRIPOS>MOLECULE
AK-928/13228049
   20    21     0
SMALL
USER_CHARGE


@<TRIPOS>ATOM
      1 C1          7.4559   -3.0976    1.5649 C.ar      1 <1>        -0.1546
      2 C2          6.5430   -4.1472    1.6498 C.ar      1 <1>        -0.0955
      3 C3          7.0185   -1.8156    1.2279 C.ar      1 <1>        -0.0777
      4 C4          5.1914   -3.9175    1.3958 C.ar      1 <1>        -0.1492
      5 C5          5.6633   -1.5789    0.9679 C.ar      1 <1>        -0.1180
      6 C6          4.7523   -2.6372    1.0492 C.ar      1 <1>         0.1290
      7 C7          5.1931   -0.2413    0.6347 C.2       1 <1>        -0.0894
      8 C8          3.9071   -0.1104    0.3017 C.2       1 <1>        -0.1704
      9 C9          3.4223    1.2268   -0.0459 C.2       1 <1>         0.4849
     10 C10         2.9486   -1.2576    0.2636 C.3       1 <1>         0.1125
     11 O1          3.5388    2.0932    0.8660 O.co2     1 <1>        -0.5000
     12 O2          2.9510    1.3398   -1.2125 O.co2     1 <1>        -0.5000
     13 O3          3.4089   -2.4933    0.8337 O.3       1 <1>        -0.3182
     14 H1          8.5082   -3.2763    1.7659 H         1 <1>         0.1216
     15 H2          6.8834   -5.1435    1.9163 H         1 <1>         0.1243
     16 H3          7.7448   -1.0081    1.1735 H         1 <1>         0.1273
     17 H4          4.4862   -4.7413    1.4677 H         1 <1>         0.1291
     18 H5          5.8876    0.5905    0.6552 H         1 <1>         0.1396
     19 H6          2.0368   -0.9874    0.8079 H         1 <1>         0.1300
     20 H7          2.6606   -1.4617   -0.7740 H         1 <1>         0.0641
@<TRIPOS>BOND
     1    1    2 ar
     2    1    3 ar
     3    2    4 ar
     4    3    5 ar
     5    4    6 ar
     6    5    6 ar
     7    5    7 1
     8    6   13 1
     9    7    8 2
    10    8    9 1
    11    8   10 1
    12    9   11 1
    13    9   12 2
    14   10   13 1
    15    1   14 1
    16    2   15 1
    17    3   16 1
    18    4   17 1
    19    7   18 1
    20   10   19 1
    21   10   20 1
@<TRIPOS>Similarity
1.4188
@<TRIPOS>ShapeSim
0.8275
@<TRIPOS>PharmSim
0.5913
# END
# Name:		AA-516/12432447
# Created and modified by SHAFTS on Sun Jan  8 14:48:48 2012

# 

@<TRIPOS>MOLECULE
AA-516/12432447
   30    31     0
SMALL
USER_CHARGE


@<TRIPOS>ATOM
      1 C1          7.7038   -2.4009    1.7262 C.ar      1 <1>        -0.0638
      2 C2          7.4638   -3.7696    1.5916 C.ar      1 <1>        -0.0551
      3 C3          5.1314   -3.3443    1.1279 C.ar      1 <1>        -0.0649
      4 C4          5.0251    0.3691    1.3342 C.2       1 <1>        -0.0341
      5 C5          5.3423   -1.9503    1.2580 C.ar      1 <1>        -0.0823
      6 C6          4.4266   -0.8520    1.1333 C.2       1 <1>        -0.1047
      7 C7          6.6325   -1.5019    1.5565 C.ar      1 <1>        -0.0263
      8 C8          6.1920   -4.2387    1.2955 C.ar      1 <1>        -0.0028
      9 C9          0.7190   -0.8786   -1.1381 C.3       1 <1>        -0.0926
     10 C10         0.0755   -0.4981    1.2371 C.3       1 <1>        -0.0921
     11 C11         2.9833   -1.0047    0.8216 C.3       1 <1>        -0.0524
     12 C12         2.2845    0.2933    0.4037 C.3       1 <1>        -0.0967
     13 N1          0.8659    0.0238    0.0624 N.4       1 <1>         0.4093
     14 S1          6.6885    0.2176    1.6741 S.3       1 <1>        -0.1187
     15 Cl1         5.9165   -5.9307    1.1333 Cl        1 <1>        -0.1325
     16 H1          8.7029   -2.0425    1.9580 H         1 <1>         0.1533
     17 H2          8.2930   -4.4611    1.7233 H         1 <1>         0.1536
     18 H3          4.1359   -3.7167    0.8958 H         1 <1>         0.1358
     19 H4          4.5645    1.3467    1.2969 H         1 <1>         0.1824
     20 H5          1.1740   -1.8396   -0.8911 H         1 <1>         0.0791
     21 H6         -0.3473   -0.9903   -1.3437 H         1 <1>         0.0798
     22 H7          1.2330   -0.4052   -1.9769 H         1 <1>         0.0778
     23 H8          0.5155   -1.4503    1.5391 H         1 <1>         0.0792
     24 H9          0.1444    0.2384    2.0399 H         1 <1>         0.0805
     25 H10        -0.9585   -0.6292    0.9123 H         1 <1>         0.0800
     26 H11         2.8615   -1.7289   -0.0023 H         1 <1>         0.0814
     27 H12         2.4373   -1.4498    1.6714 H         1 <1>         0.0790
     28 H13         2.7410    0.7202   -0.4942 H         1 <1>         0.0920
     29 H14         2.2833    1.0428    1.2010 H         1 <1>         0.0924
     30 H15         0.4275    0.9231   -0.2005 H         1 <1>         0.1636
@<TRIPOS>BOND
     1    1    2 ar
     2    1    7 ar
     3    2    8 ar
     4    3    5 ar
     5    3    8 ar
     6    4    6 2
     7    4   14 1
     8    5    6 1
     9    5    7 ar
    10    6   11 1
    11    7   14 1
    12    8   15 1
    13    9   13 1
    14   10   13 1
    15   11   12 1
    16   12   13 1
    17    1   16 1
    18    2   17 1
    19    3   18 1
    20    4   19 1
    21    9   20 1
    22    9   21 1
    23    9   22 1
    24   10   23 1
    25   10   24 1
    26   10   25 1
    27   11   26 1
    28   11   27 1
    29   12   28 1
    30   12   29 1
    31   13   30 1
@<TRIPOS>Similarity
1.4172
@<TRIPOS>ShapeSim
0.8660
@<TRIPOS>PharmSim
0.5512
# END
# Name:		AE-473/30364030
# Created and modified by SHAFTS on Sun Jan  8 14:48:48 2012

# 

@<TRIPOS>MOLECULE
AE-473/30364030
   39    40     0
SMALL
USER_CHARGE


@<TRIPOS>ATOM
      1 C1          5.0484   -3.1644    1.3959 C.ar      1 <1>        -0.0937
      2 C2          6.1443   -4.0350    1.3961 C.ar      1 <1>        -0.1011
      3 C3          7.6970   -2.1660    1.3965 C.ar      1 <1>        -0.0756
      4 C4          5.2309    0.4863    1.3966 C.2       1 <1>        -0.0755
      5 C5          5.2754   -1.7737    1.3961 C.ar      1 <1>        -0.0802
      6 C6          7.4474   -3.5413    1.3965 C.ar      1 <1>        -0.1104
      7 C7          4.4277   -0.6307    1.3960 C.2       1 <1>        -0.0943
      8 C8          6.5918   -1.3075    1.3964 C.ar      1 <1>        -0.0678
      9 C9          8.5965   -4.4943    1.3950 C.3       1 <1>        -0.0415
     10 C10         0.8410    3.2506    2.1115 C.3       1 <1>        -0.0714
     11 C11        -1.3416    2.2099    1.4705 C.3       1 <1>        -0.0723
     12 C12         2.9183   -0.6320    1.3964 C.3       1 <1>        -0.0063
     13 C13         0.8096    0.8324    1.4225 C.3       1 <1>        -0.0277
     14 C14         0.1644    2.2193    1.2033 C.3       1 <1>        -0.0768
     15 C15         2.3130    0.7511    1.1236 C.3       1 <1>         0.0818
     16 N1          6.5345    0.0679    1.3965 N.pl3     1 <1>        -0.3715
     17 N2          2.5007    1.0079   -0.3252 N.pl3     1 <1>        -0.0815
     18 O1          3.2021    1.9776   -0.6442 O.3       1 <1>        -0.1719
     19 O2          1.9562    0.2218   -1.1124 O.2       1 <1>        -0.2647
     20 H1          4.0382   -3.5635    1.3943 H         1 <1>         0.1243
     21 H2          5.9646   -5.1076    1.3950 H         1 <1>         0.1139
     22 H3          8.7096   -1.7748    1.3954 H         1 <1>         0.1220
     23 H4          4.9940    1.5412    1.3976 H         1 <1>         0.1940
     24 H5          8.8891   -4.7359    0.3664 H         1 <1>         0.0581
     25 H6          9.4648   -4.0700    1.9145 H         1 <1>         0.0557
     26 H7          8.3395   -5.4268    1.9131 H         1 <1>         0.0537
     27 H8          0.7160    2.9928    3.1688 H         1 <1>         0.0352
     28 H9          1.9140    3.3103    1.9007 H         1 <1>         0.0365
     29 H10         0.4154    4.2473    1.9531 H         1 <1>         0.0349
     30 H11        -1.5608    1.8973    2.4972 H         1 <1>         0.0345
     31 H12        -1.8642    1.5333    0.7883 H         1 <1>         0.0312
     32 H13        -1.7684    3.2082    1.3236 H         1 <1>         0.0360
     33 H14         2.5446   -1.3623    0.6654 H         1 <1>         0.0926
     34 H15         2.5847   -1.0078    2.3742 H         1 <1>         0.1010
     35 H16         0.2794    0.1074    0.7921 H         1 <1>         0.0714
     36 H17         0.6303    0.5231    2.4617 H         1 <1>         0.0793
     37 H18         0.3280    2.5378    0.1667 H         1 <1>         0.0428
     38 H19         2.8776    1.5335    1.6383 H         1 <1>         0.1552
     39 H20         7.3387    0.6802    1.3961 H         1 <1>         0.3300
@<TRIPOS>BOND
     1    1    2 ar
     2    1    5 ar
     3    2    6 ar
     4    3    6 ar
     5    3    8 ar
     6    4    7 2
     7    4   16 1
     8    5    7 1
     9    5    8 ar
    10    6    9 1
    11    7   12 1
    12    8   16 1
    13   10   14 1
    14   11   14 1
    15   12   15 1
    16   13   14 1
    17   13   15 1
    18   15   17 1
    19   17   18 1
    20   17   19 2
    21    1   20 1
    22    2   21 1
    23    3   22 1
    24    4   23 1
    25    9   24 1
    26    9   25 1
    27    9   26 1
    28   10   27 1
    29   10   28 1
    30   10   29 1
    31   11   30 1
    32   11   31 1
    33   11   32 1
    34   12   33 1
    35   12   34 1
    36   13   35 1
    37   13   36 1
    38   14   37 1
    39   15   38 1
    40   16   39 1
@<TRIPOS>Similarity
1.4158
@<TRIPOS>ShapeSim
0.8529
@<TRIPOS>PharmSim
0.5629
# END
# Name:		AF-407/34872003
# Created and modified by SHAFTS on Sun Jan  8 14:48:48 2012

# 

@<TRIPOS>MOLECULE
AF-407/34872003
   26    26     0
SMALL
USER_CHARGE


@<TRIPOS>ATOM
      1 C1          2.5480    1.2161   -0.3811 C.1       1 <1>         0.0545
      2 C2          6.0864   -3.8653    1.5986 C.ar      1 <1>        -0.0905
      3 C3          7.6412   -2.0739    1.1398 C.ar      1 <1>        -0.0918
      4 C4          5.0208   -2.9762    1.4591 C.ar      1 <1>        -0.0684
      5 C5          6.5756   -1.1847    1.0003 C.ar      1 <1>        -0.0716
      6 C6          7.3966   -3.4141    1.4390 C.ar      1 <1>        -0.1105
      7 C7          5.2653   -1.6359    1.1600 C.ar      1 <1>        -0.0544
      8 C8          2.8959   -1.0171    0.5757 C.2       1 <1>         0.1251
      9 C9          8.5360   -4.3649    1.5882 C.3       1 <1>        -0.0401
     10 C10         2.0219    0.2263    0.5644 C.3       1 <1>         0.1277
     11 N1          2.9664    2.0007   -1.1269 N.1       1 <1>        -0.3166
     12 N2          4.1840   -0.7334    1.0181 N.am      1 <1>        -0.3032
     13 N3          0.6346   -0.1426    0.1569 N.4       1 <1>         0.4793
     14 O1          2.4578   -2.1053    0.2113 O.2       1 <1>        -0.4559
     15 H1          5.8868   -4.9074    1.8340 H         1 <1>         0.1286
     16 H2          8.6589   -1.7136    1.0144 H         1 <1>         0.1306
     17 H3          4.0037   -3.3388    1.5854 H         1 <1>         0.1386
     18 H4          6.7775   -0.1420    0.7681 H         1 <1>         0.1313
     19 H5          8.7796   -4.8237    0.6221 H         1 <1>         0.0609
     20 H6          9.4319   -3.8567    1.9677 H         1 <1>         0.0568
     21 H7          8.2974   -5.1637    2.3025 H         1 <1>         0.0564
     22 H8          1.9263    0.6533    1.5676 H         1 <1>         0.2333
     23 H9          4.3706    0.2351    1.2687 H         1 <1>         0.3389
     24 H10        -0.0371    0.5415    0.5122 H         1 <1>         0.1794
     25 H11         0.3856   -1.0627    0.5277 H         1 <1>         0.1776
     26 H12         0.5568   -0.1731   -0.8623 H         1 <1>         0.1839
@<TRIPOS>BOND
     1    1   10 1
     2    1   11 3
     3    2    4 ar
     4    2    6 ar
     5    3    5 ar
     6    3    6 ar
     7    4    7 ar
     8    5    7 ar
     9    6    9 1
    10    7   12 1
    11    8   10 1
    12    8   12 am
    13    8   14 2
    14   10   13 1
    15    2   15 1
    16    3   16 1
    17    4   17 1
    18    5   18 1
    19    9   19 1
    20    9   20 1
    21    9   21 1
    22   10   22 1
    23   12   23 1
    24   13   24 1
    25   13   25 1
    26   13   26 1
@<TRIPOS>Similarity
1.4157
@<TRIPOS>ShapeSim
0.8678
@<TRIPOS>PharmSim
0.5479
# END
# Name:		AH-262/34227019
# Created and modified by SHAFTS on Sun Jan  8 14:48:48 2012

# 

@<TRIPOS>MOLECULE
AH-262/34227019
   29    30     0
SMALL
USER_CHARGE


@<TRIPOS>ATOM
      1 C1          2.5108    1.1551   -0.1106 C.1       1 <1>         0.0698
      2 C2          6.0662   -3.8158    0.6263 C.ar      1 <1>        -0.0973
      3 C3          7.3673   -3.3236    0.5460 C.ar      1 <1>        -0.0957
      4 C4          4.9952   -2.9644    0.9216 C.ar      1 <1>        -0.0833
      5 C5          7.6400   -1.9691    0.7575 C.ar      1 <1>        -0.0738
      6 C6          5.2456   -1.5949    1.1387 C.ar      1 <1>        -0.0525
      7 C7          4.4257   -0.4743    1.4504 C.2       1 <1>         0.0068
      8 C8          6.5596   -1.1298    1.0519 C.ar      1 <1>        -0.0527
      9 C9          5.2426    0.6288    1.5452 C.2       1 <1>         0.0507
     10 C10         3.0249   -0.4577    1.6374 C.2       1 <1>         0.0043
     11 C11         2.0905    0.2759    0.9324 C.2       1 <1>         0.1614
     12 C12         0.6401    0.1410    1.3052 C.2       1 <1>         0.1142
     13 C13         4.3767    2.2272    3.0784 C.3       1 <1>         0.0415
     14 N1          2.8497    1.8714   -0.9585 N.1       1 <1>        -0.3849
     15 N2          6.5277    0.2235    1.3030 N.pl3     1 <1>        -0.3273
     16 N3         -0.0475   -0.8348    0.6193 N.am      1 <1>        -0.3428
     17 O1          0.1071    0.8466    2.1590 O.2       1 <1>        -0.4839
     18 O2          4.9864    1.9024    1.8116 O.3       1 <1>        -0.3759
     19 H1          5.8789   -4.8731    0.4579 H         1 <1>         0.1210
     20 H2          8.1841   -4.0027    0.3148 H         1 <1>         0.1245
     21 H3          3.9875   -3.3659    0.9805 H         1 <1>         0.1335
     22 H4          8.6532   -1.5868    0.6943 H         1 <1>         0.1252
     23 H5          2.6344   -1.0973    2.4591 H         1 <1>         0.2075
     24 H6          4.2309    3.3081    3.1470 H         1 <1>         0.0945
     25 H7          5.0200    1.8833    3.8923 H         1 <1>         0.0952
     26 H8          3.4082    1.7262    3.1456 H         1 <1>         0.1348
     27 H9          7.3356    0.8302    1.3076 H         1 <1>         0.3359
     28 H10         0.3701   -1.4304   -0.0877 H         1 <1>         0.2716
     29 H11        -1.0319   -0.9954    0.8074 H         1 <1>         0.2777
@<TRIPOS>BOND
     1    1   11 1
     2    1   14 3
     3    2    3 ar
     4    2    4 ar
     5    3    5 ar
     6    4    6 ar
     7    5    8 ar
     8    6    7 1
     9    6    8 ar
    10    7    9 2
    11    7   10 1
    12    8   15 1
    13    9   15 1
    14    9   18 1
    15   10   11 2
    16   11   12 1
    17   12   16 am
    18   12   17 2
    19   13   18 1
    20    2   19 1
    21    3   20 1
    22    4   21 1
    23    5   22 1
    24   10   23 1
    25   13   24 1
    26   13   25 1
    27   13   26 1
    28   15   27 1
    29   16   28 1
    30   16   29 1
@<TRIPOS>Similarity
1.4153
@<TRIPOS>ShapeSim
0.8305
@<TRIPOS>PharmSim
0.5848
# END
# Name:		AA-516/30040028
# Created and modified by SHAFTS on Sun Jan  8 14:48:48 2012

# 

@<TRIPOS>MOLECULE
AA-516/30040028
   19    19     0
SMALL
USER_CHARGE


@<TRIPOS>ATOM
      1 C1          6.7139   -3.5046    0.8105 C.2       1 <1>        -0.1833
      2 C2          5.3643   -3.0709    0.6668 C.2       1 <1>        -0.0782
      3 C3          7.4417   -2.6685    1.6284 C.2       1 <1>        -0.1972
      4 C4          5.1119   -1.9199    1.3806 C.2       1 <1>        -0.2577
      5 C5          3.8388   -1.1504    1.4955 C.2       1 <1>         0.4257
      6 C6          2.9063    1.4098   -0.0509 C.2       1 <1>         0.4601
      7 C7          2.8667   -1.1672    0.3233 C.3       1 <1>        -0.1362
      8 C8          2.0848    0.1351    0.1781 C.3       1 <1>        -0.1484
      9 O1          3.7240    1.7261    0.8559 O.co2     1 <1>        -0.5000
     10 O2          3.6108   -0.5205    2.5255 O.2       1 <1>        -0.4495
     11 O3          2.6517    1.9988   -1.1414 O.co2     1 <1>        -0.5000
     12 S1          6.4987   -1.3670    2.2192 S.3       1 <1>         0.1805
     13 H1          7.1300   -4.3843    0.3370 H         1 <1>         0.1357
     14 H2          4.6200   -3.5817    0.0687 H         1 <1>         0.1450
     15 H3          8.4822   -2.7596    1.9064 H         1 <1>         0.1882
     16 H4          2.1699   -2.0036    0.4456 H         1 <1>         0.0898
     17 H5          3.4504   -1.3214   -0.5916 H         1 <1>         0.0989
     18 H6          1.5113    0.2969    1.0995 H         1 <1>         0.0709
     19 H7          1.3576    0.0452   -0.6386 H         1 <1>         0.0707
@<TRIPOS>BOND
     1    1    2 1
     2    1    3 2
     3    2    4 2
     4    3   12 1
     5    4    5 1
     6    4   12 1
     7    5    7 1
     8    5   10 2
     9    6    8 1
    10    6    9 1
    11    6   11 2
    12    7    8 1
    13    1   13 1
    14    2   14 1
    15    3   15 1
    16    7   16 1
    17    7   17 1
    18    8   18 1
    19    8   19 1
@<TRIPOS>Similarity
1.4146
@<TRIPOS>ShapeSim
0.8599
@<TRIPOS>PharmSim
0.5547
# END
# Name:		Building
# Created and modified by SHAFTS on Sun Jan  8 14:48:48 2012

# 

@<TRIPOS>MOLECULE
Building
   25    27     0
SMALL
USER_CHARGE


@<TRIPOS>ATOM
      1 C1          6.1585   -4.0469    1.3960 C.ar      1 <1>        -0.0815
      2 C2          7.4593   -3.4991    1.3963 C.ar      1 <1>        -0.0779
      3 C3          2.5712    0.7211    1.3948 C.ar      1 <1>        -0.0214
      4 C4          5.0096   -3.2454    1.3959 C.ar      1 <1>        -0.0727
      5 C5          3.0337   -0.6024    1.3953 C.ar      1 <1>        -0.0297
      6 C6          7.6958   -2.1173    1.3967 C.ar      1 <1>        -0.0566
      7 C7          3.4334    1.8269    1.3950 C.ar      1 <1>         0.0135
      8 C8          5.2323   -1.8764    1.3962 C.ar      1 <1>        -0.0315
      9 C9          4.4089   -0.7710    1.3960 C.ar      1 <1>         0.0162
     10 C10         6.5709   -1.2891    1.3966 C.ar      1 <1>        -0.0378
     11 C11         5.2724    0.4798    1.3962 C.ar      1 <1>         0.0459
     12 C12         5.6256    2.8571    1.3944 C.3       1 <1>         0.0324
     13 N1          6.5509    0.1239    1.3965 N.pl3     1 <1>        -0.3149
     14 N2          4.7641    1.6831    1.3956 N.ar      1 <1>        -0.3443
     15 H1          6.0457   -5.1291    1.3965 H         1 <1>         0.1379
     16 H2          8.3109   -4.1770    1.3969 H         1 <1>         0.1496
     17 H3          1.4974    0.8982    1.3941 H         1 <1>         0.1757
     18 H4          4.0123   -3.6680    1.3961 H         1 <1>         0.1480
     19 H5          2.3522   -1.4446    1.3944 H         1 <1>         0.2011
     20 H6          8.6970   -1.7046    1.3967 H         1 <1>         0.1412
     21 H7          3.0576    2.8438    1.3937 H         1 <1>         0.2612
     22 H8          5.8346    3.1438    2.4287 H         1 <1>         0.1303
     23 H9          6.5657    2.6402    0.8795 H         1 <1>         0.1384
     24 H10         5.1253    3.6809    0.8773 H         1 <1>         0.1215
     25 H11         7.3667    0.7300    1.3960 H         1 <1>         0.3553
@<TRIPOS>BOND
     1    1    2 ar
     2    1    4 ar
     3    2    6 ar
     4    3    5 ar
     5    3    7 ar
     6    4    8 ar
     7    5    9 ar
     8    6   10 ar
     9    7   14 ar
    10    8    9 1
    11    8   10 ar
    12    9   11 ar
    13   10   13 1
    14   11   13 1
    15   11   14 ar
    16   12   14 1
    17    1   15 1
    18    2   16 1
    19    3   17 1
    20    4   18 1
    21    5   19 1
    22    6   20 1
    23    7   21 1
    24   12   22 1
    25   12   23 1
    26   12   24 1
    27   13   25 1
@<TRIPOS>Similarity
1.4130
@<TRIPOS>ShapeSim
0.8601
@<TRIPOS>PharmSim
0.5529
# END
# Name:		AF-407/34872003
# Created and modified by SHAFTS on Sun Jan  8 14:48:48 2012

# 

@<TRIPOS>MOLECULE
AF-407/34872003
   25    25     0
SMALL
USER_CHARGE


@<TRIPOS>ATOM
      1 C1          2.5411    1.2392   -0.3805 C.1       1 <1>         0.0243
      2 C2          6.1091   -3.8653    1.0199 C.ar      1 <1>        -0.0949
      3 C3          7.5512   -2.0526    1.7065 C.ar      1 <1>        -0.0982
      4 C4          5.0497   -2.9690    0.8786 C.ar      1 <1>        -0.0676
      5 C5          6.4919   -1.1563    1.5651 C.ar      1 <1>        -0.0728
      6 C6          7.3598   -3.4072    1.4339 C.ar      1 <1>        -0.1165
      7 C7          5.2411   -1.6145    1.1513 C.ar      1 <1>        -0.0549
      8 C8          2.8633   -0.9871    0.6079 C.2       1 <1>         0.1235
      9 C9          8.4924   -4.3656    1.5849 C.3       1 <1>        -0.0449
     10 C10         1.9941    0.2665    0.5763 C.3       1 <1>         0.0359
     11 N1          2.9720    2.0108   -1.1328 N.1       1 <1>        -0.3787
     12 N2          0.6595   -0.1669    0.1697 N.3       1 <1>         0.3248
     13 N3          4.1818   -0.7177    1.0098 N.am      1 <1>        -0.3054
     14 O1          2.4073   -2.0856    0.2974 O.2       1 <1>        -0.4508
     15 H1          5.9504   -4.9193    0.8074 H         1 <1>         0.1233
     16 H2          8.5222   -1.6871    2.0302 H         1 <1>         0.1232
     17 H3          4.0793   -3.3370    0.5550 H         1 <1>         0.1340
     18 H4          6.6517   -0.1029    1.7813 H         1 <1>         0.1252
     19 H5          9.0485   -4.4513    0.6433 H         1 <1>         0.0562
     20 H6          9.1869   -4.0411    2.3706 H         1 <1>         0.0528
     21 H7          8.1345   -5.3636    1.8697 H         1 <1>         0.0529
     22 H8          1.9324    0.7302    1.5663 H         1 <1>         0.1926
     23 H9          0.0541    0.5074   -0.2452 H         1 <1>        -0.0050
     24 H10         0.3321   -1.0482    0.5008 H         1 <1>        -0.0041
     25 H11         4.3926    0.2631    1.2268 H         1 <1>         0.3253
@<TRIPOS>BOND
     1    1   10 1
     2    1   11 3
     3    2    4 ar
     4    2    6 ar
     5    3    5 ar
     6    3    6 ar
     7    4    7 ar
     8    5    7 ar
     9    6    9 1
    10    7   13 1
    11    8   10 1
    12    8   13 am
    13    8   14 2
    14   10   12 1
    15    2   15 1
    16    3   16 1
    17    4   17 1
    18    5   18 1
    19    9   19 1
    20    9   20 1
    21    9   21 1
    22   10   22 1
    23   12   23 1
    24   12   24 1
    25   13   25 1
@<TRIPOS>Similarity
1.4124
@<TRIPOS>ShapeSim
0.8668
@<TRIPOS>PharmSim
0.5456
# END
# Name:		AI-204/31682059
# Created and modified by SHAFTS on Sun Jan  8 14:48:48 2012

# 

@<TRIPOS>MOLECULE
AI-204/31682059
   23    24     0
SMALL
USER_CHARGE


@<TRIPOS>ATOM
      1 C1          7.7804   -3.5230    1.1615 C.ar      1 <1>        -0.0991
      2 C2          6.6128   -4.2434    1.3981 C.ar      1 <1>        -0.1150
      3 C3          7.7500   -2.1291    1.1616 C.ar      1 <1>        -0.1245
      4 C4          5.4144   -3.5709    1.6407 C.ar      1 <1>        -0.0647
      5 C5          6.5457   -1.4496    1.3827 C.ar      1 <1>         0.1146
      6 C6          5.3726   -2.1707    1.6322 C.ar      1 <1>        -0.1174
      7 C7          5.4819    0.7825    1.4421 C.2       1 <1>         0.2822
      8 C8          3.5564    1.2969   -1.1201 C.2       1 <1>         0.4726
      9 C9          4.1037    0.2132    1.1513 C.3       1 <1>        -0.0375
     10 C10         3.8914    0.0224   -0.3513 C.3       1 <1>        -0.1485
     11 N1          6.5757   -0.0422    1.3965 N.pl3     1 <1>        -0.5813
     12 O1          2.4963    1.8998   -0.7977 O.co2     1 <1>        -0.5000
     13 O2          4.4097    1.5935   -2.0059 O.co2     1 <1>        -0.5000
     14 S1          5.6871    2.4330    1.6942 S.2       1 <1>        -0.4276
     15 S2          3.8425   -1.3535    2.0313 S.3       1 <1>        -0.0407
     16 H1          8.7150   -4.0459    0.9813 H         1 <1>         0.1314
     17 H2          6.6366   -5.3292    1.4042 H         1 <1>         0.1328
     18 H3          8.6720   -1.5811    0.9823 H         1 <1>         0.1308
     19 H4          4.5193   -4.1553    1.8415 H         1 <1>         0.1390
     20 H5          3.3336    0.9018    1.5185 H         1 <1>         0.1606
     21 H6          3.0793   -0.6936   -0.4960 H         1 <1>         0.0862
     22 H7          4.8003   -0.4100   -0.7754 H         1 <1>         0.0676
     23 H8          7.4927    0.3967    1.4122 H         1 <1>         0.4208
@<TRIPOS>BOND
     1    1    2 ar
     2    1    3 ar
     3    2    4 ar
     4    3    5 ar
     5    4    6 ar
     6    5    6 ar
     7    5   11 1
     8    6   15 1
     9    7    9 1
    10    7   11 1
    11    7   14 2
    12    8   10 1
    13    8   12 1
    14    8   13 2
    15    9   10 1
    16    9   15 1
    17    1   16 1
    18    2   17 1
    19    3   18 1
    20    4   19 1
    21    9   20 1
    22   10   21 1
    23   10   22 1
    24   11   23 1
@<TRIPOS>Similarity
1.4120
@<TRIPOS>ShapeSim
0.8405
@<TRIPOS>PharmSim
0.5714
# END
# Name:		AI-204/31682052
# Created and modified by SHAFTS on Sun Jan  8 14:48:48 2012

# 

@<TRIPOS>MOLECULE
AI-204/31682052
   31    32     0
SMALL
USER_CHARGE


@<TRIPOS>ATOM
      1 C1          7.9452   -3.1959    1.6776 C.ar      1 <1>        -0.0911
      2 C2          6.9054   -4.1126    1.8112 C.ar      1 <1>        -0.0924
      3 C3          7.6617   -1.8503    1.4467 C.ar      1 <1>        -0.0665
      4 C4          5.5806   -3.6842    1.7197 C.ar      1 <1>        -0.0782
      5 C5          6.3346   -1.4187    1.3307 C.ar      1 <1>        -0.0434
      6 C6          5.2881   -2.3365    1.4767 C.ar      1 <1>        -0.0269
      7 C7          4.8873    0.5380    0.8234 C.2       1 <1>         0.1118
      8 C8          2.3271    1.1261   -1.0702 C.2       1 <1>         0.0870
      9 C9          3.7820   -0.3904    0.3434 C.3       1 <1>         0.1245
     10 C10         1.6265    1.0665   -3.4731 C.3       1 <1>        -0.0216
     11 C11         1.3799   -0.9582   -2.0906 C.3       1 <1>        -0.0226
     12 C12         2.4440    0.3306    0.2204 C.3       1 <1>         0.0896
     13 N1          6.1018   -0.0446    1.1280 N.am      1 <1>        -0.3057
     14 N2          1.7988    0.4394   -2.1684 N.am      1 <1>        -0.3684
     15 O1          4.7473    1.7633    0.8295 O.2       1 <1>        -0.4689
     16 O2          2.6864    2.3055   -1.1154 O.2       1 <1>        -0.4805
     17 S1          3.5909   -1.8049    1.4568 S.3       1 <1>        -0.1500
     18 H1          8.9760   -3.5280    1.7587 H         1 <1>         0.1316
     19 H2          7.1254   -5.1597    1.9977 H         1 <1>         0.1253
     20 H3          8.4848   -1.1459    1.3522 H         1 <1>         0.1298
     21 H4          4.7846   -4.4144    1.8464 H         1 <1>         0.1410
     22 H5          4.0713   -0.7625   -0.6471 H         1 <1>         0.1691
     23 H6          2.5269    0.9300   -4.0775 H         1 <1>         0.0906
     24 H7          1.4402    2.1375   -3.3560 H         1 <1>         0.0898
     25 H8          0.7786    0.6188   -3.9987 H         1 <1>         0.0996
     26 H9          0.3272   -1.0195   -1.8025 H         1 <1>         0.0844
     27 H10         1.9796   -1.4919   -1.3482 H         1 <1>         0.0926
     28 H11         1.5081   -1.4458   -3.0608 H         1 <1>         0.0969
     29 H12         2.3381    1.0126    1.0691 H         1 <1>         0.1156
     30 H13         1.6440   -0.4148    0.2522 H         1 <1>         0.1082
     31 H14         6.8968    0.5772    1.2504 H         1 <1>         0.3287
@<TRIPOS>BOND
     1    1    2 ar
     2    1    3 ar
     3    2    4 ar
     4    3    5 ar
     5    4    6 ar
     6    5    6 ar
     7    5   13 1
     8    6   17 1
     9    7    9 1
    10    7   13 am
    11    7   15 2
    12    8   12 1
    13    8   14 am
    14    8   16 2
    15    9   12 1
    16    9   17 1
    17   10   14 1
    18   11   14 1
    19    1   18 1
    20    2   19 1
    21    3   20 1
    22    4   21 1
    23    9   22 1
    24   10   23 1
    25   10   24 1
    26   10   25 1
    27   11   26 1
    28   11   27 1
    29   11   28 1
    30   12   29 1
    31   12   30 1
    32   13   31 1
@<TRIPOS>Similarity
1.4109
@<TRIPOS>ShapeSim
0.8429
@<TRIPOS>PharmSim
0.5680
# END
# Name:		ZINC13123191
# Created and modified by SHAFTS on Sun Jan  8 14:48:48 2012

# 

@<TRIPOS>MOLECULE
ZINC13123191
   29    31     0
SMALL
USER_CHARGE


@<TRIPOS>ATOM
      1 C1          6.1967   -4.0882    1.3788 C.ar      1 <1>        -0.1025
      2 C2          7.4541   -3.5906    1.7145 C.ar      1 <1>        -0.0997
      3 C3          5.1409   -3.2214    1.0747 C.ar      1 <1>        -0.0882
      4 C4          7.6974   -2.2148    1.7561 C.ar      1 <1>        -0.0744
      5 C5          5.3604   -1.8302    1.1132 C.ar      1 <1>        -0.0657
      6 C6          4.5557   -0.6868    0.8701 C.2       1 <1>        -0.0750
      7 C7          6.6338   -1.3580    1.4505 C.ar      1 <1>        -0.0604
      8 C8          5.3314    0.4326    1.0723 C.2       1 <1>        -0.0275
      9 C9          4.8084    1.7612    0.9033 C.2       1 <1>        -0.0191
     10 C10         2.6075    0.8268    0.9776 C.3       1 <1>        -0.0143
     11 C11         3.1339   -0.5306    0.4504 C.3       1 <1>        -0.0302
     12 C12         5.7617    2.9210    0.8306 C.3       1 <1>         0.0109
     13 C13         2.9888   -0.6201   -1.0704 C.3       1 <1>        -0.0563
     14 N1          3.5362    1.9703    0.7917 N.2       1 <1>        -0.4224
     15 N2          6.5899    0.0205    1.4068 N.pl3     1 <1>        -0.3578
     16 H1          6.0325   -5.1622    1.3511 H         1 <1>         0.1090
     17 H2          8.2604   -4.2824    1.9452 H         1 <1>         0.1200
     18 H3          4.1666   -3.6239    0.8129 H         1 <1>         0.1334
     19 H4          8.6781   -1.8296    2.0147 H         1 <1>         0.1279
     20 H5          1.6555    1.0728    0.4930 H         1 <1>         0.1112
     21 H6          2.3974    0.7458    2.0521 H         1 <1>         0.0983
     22 H7          2.5287   -1.3295    0.8969 H         1 <1>         0.0844
     23 H8          6.0440    3.0904   -0.2050 H         1 <1>         0.0855
     24 H9          6.6469    2.6975    1.4205 H         1 <1>         0.0791
     25 H10         5.2791    3.8093    1.2297 H         1 <1>         0.0808
     26 H11         3.5798    0.1622   -1.5413 H         1 <1>         0.0393
     27 H12         1.9439   -0.4960   -1.3464 H         1 <1>         0.0413
     28 H13         3.3383   -1.5909   -1.4151 H         1 <1>         0.0348
     29 H14         7.3727    0.6286    1.6043 H         1 <1>         0.3373
@<TRIPOS>BOND
     1    1    2 ar
     2    1    3 ar
     3    2    4 ar
     4    3    5 ar
     5    4    7 ar
     6    5    6 1
     7    5    7 ar
     8    6    8 2
     9    6   11 1
    10    7   15 1
    11    8    9 1
    12    8   15 1
    13    9   12 1
    14    9   14 2
    15   10   11 1
    16   10   14 1
    17   11   13 1
    18    1   16 1
    19    2   17 1
    20    3   18 1
    21    4   19 1
    22   10   20 1
    23   10   21 1
    24   11   22 1
    25   12   23 1
    26   12   24 1
    27   12   25 1
    28   13   26 1
    29   13   27 1
    30   13   28 1
    31   15   29 1
@<TRIPOS>Similarity
1.4098
@<TRIPOS>ShapeSim
0.8682
@<TRIPOS>PharmSim
0.5416
# END
# Name:		AQ-776/42801706
# Created and modified by SHAFTS on Sun Jan  8 14:48:48 2012

# 

@<TRIPOS>MOLECULE
AQ-776/42801706
   27    29     0
SMALL
USER_CHARGE


@<TRIPOS>ATOM
      1 C1          1.6911    3.2422   -0.8439 C.ar      1 <1>        -0.1017
      2 C2          6.1443   -4.0350    1.3961 C.ar      1 <1>        -0.1009
      3 C3          7.4473   -3.5413    1.3964 C.ar      1 <1>        -0.0988
      4 C4          2.8641    2.5473   -1.1382 C.ar      1 <1>        -0.0982
      5 C5          0.8198    2.7580    0.1319 C.ar      1 <1>        -0.0985
      6 C6          5.0484   -3.1644    1.3960 C.ar      1 <1>        -0.0880
      7 C7          7.6970   -2.1660    1.3964 C.ar      1 <1>        -0.0755
      8 C8          3.1660    1.3683   -0.4566 C.ar      1 <1>        -0.0878
      9 C9          1.1216    1.5790    0.8134 C.ar      1 <1>        -0.0883
     10 C10         5.2309    0.4863    1.3966 C.2       1 <1>        -0.0648
     11 C11         5.2754   -1.7738    1.3961 C.ar      1 <1>        -0.0595
     12 C12         6.5918   -1.3076    1.3964 C.ar      1 <1>        -0.0635
     13 C13         2.2947    0.8841    0.5191 C.ar      1 <1>        -0.0497
     14 C14         4.4277   -0.6308    1.3960 C.2       1 <1>        -0.0338
     15 N1          6.5345    0.0680    1.3965 N.pl3     1 <1>        -0.3716
     16 S1          2.6829   -0.6332    1.3953 S.3       1 <1>        -0.1544
     17 H1          1.4566    4.1601   -1.3749 H         1 <1>         0.1244
     18 H2          5.9755   -5.1087    1.3959 H         1 <1>         0.1130
     19 H3          8.2839   -4.2355    1.3974 H         1 <1>         0.1234
     20 H4          3.5426    2.9239   -1.8981 H         1 <1>         0.1197
     21 H5         -0.0934    3.2997    0.3606 H         1 <1>         0.1194
     22 H6          4.0401   -3.5686    1.3952 H         1 <1>         0.1294
     23 H7          8.7120   -1.7826    1.3979 H         1 <1>         0.1209
     24 H8          4.0849    0.8404   -0.7001 H         1 <1>         0.1350
     25 H9          0.4301    1.2173    1.5704 H         1 <1>         0.1338
     26 H10         4.9969    1.5422    1.3956 H         1 <1>         0.1879
     27 H11         7.3386    0.6801    1.3959 H         1 <1>         0.3281
@<TRIPOS>BOND
     1    1    4 ar
     2    1    5 ar
     3    2    3 ar
     4    2    6 ar
     5    3    7 ar
     6    4    8 ar
     7    5    9 ar
     8    6   11 ar
     9    7   12 ar
    10    8   13 ar
    11    9   13 ar
    12   10   14 2
    13   10   15 1
    14   11   12 ar
    15   11   14 1
    16   12   15 1
    17   13   16 1
    18   14   16 1
    19    1   17 1
    20    2   18 1
    21    3   19 1
    22    4   20 1
    23    5   21 1
    24    6   22 1
    25    7   23 1
    26    8   24 1
    27    9   25 1
    28   10   26 1
    29   15   27 1
@<TRIPOS>Similarity
1.4093
@<TRIPOS>ShapeSim
0.8863
@<TRIPOS>PharmSim
0.5230
# END
# Name:		AA-516/30012046
# Created and modified by SHAFTS on Sun Jan  8 14:48:48 2012

# 

@<TRIPOS>MOLECULE
AA-516/30012046
   42    43     0
SMALL
USER_CHARGE


@<TRIPOS>ATOM
      1 C1          2.9914    1.6543   -0.0178 C.2       1 <1>         0.4631
      2 C2          5.0294    0.3145    1.5246 C.3       1 <1>        -0.1185
      3 C3          4.8806   -0.9430   -0.6331 C.3       1 <1>        -0.1103
      4 C4          3.8056   -1.8657    1.4290 C.3       1 <1>        -0.1185
      5 C5          6.3279   -0.4287    1.8674 C.3       1 <1>        -0.1013
      6 C6          6.1777   -1.6880   -0.2893 C.3       1 <1>        -0.1011
      7 C7          5.1037   -2.6086    1.7743 C.3       1 <1>        -0.1013
      8 C8          4.1102   -0.5668    0.6513 C.3       1 <1>        -0.0302
      9 C9          6.3315   -1.8396    1.2398 C.3       1 <1>        -0.0537
     10 C10         9.9058   -7.0639    1.8516 C.3       1 <1>        -0.1519
     11 C11         2.8169    0.1741    0.3083 C.3       1 <1>        -0.1515
     12 C12         7.6250   -2.5804    1.5820 C.3       1 <1>        -0.1052
     13 C13         8.6189   -6.3281    1.5138 C.3       1 <1>        -0.1269
     14 C14         7.4699   -4.0837    1.3762 C.3       1 <1>        -0.1250
     15 C15         8.7554   -4.8241    1.7494 C.3       1 <1>        -0.1185
     16 O1          3.4617    2.3910    0.8917 O.co2     1 <1>        -0.5000
     17 O2          2.6327    1.9602   -1.1919 O.co2     1 <1>        -0.5000
     18 H1          4.5174    0.6000    2.4523 H         1 <1>         0.1011
     19 H2          5.2711    1.2506    1.0053 H         1 <1>         0.0407
     20 H3          5.1201   -0.0430   -1.2137 H         1 <1>         0.0534
     21 H4          4.2597   -1.5728   -1.2828 H         1 <1>         0.0534
     22 H5          3.1553   -2.5230    0.8381 H         1 <1>         0.0407
     23 H6          3.2581   -1.6403    2.3529 H         1 <1>         0.1011
     24 H7          7.1862    0.1526    1.5075 H         1 <1>         0.0472
     25 H8          6.4347   -0.4929    2.9577 H         1 <1>         0.0586
     26 H9          6.1720   -2.6727   -0.7735 H         1 <1>         0.0531
     27 H10         7.0330   -1.1434   -0.7090 H         1 <1>         0.0531
     28 H11         5.1737   -2.7339    2.8622 H         1 <1>         0.0586
     29 H12         5.0690   -3.6196    1.3491 H         1 <1>         0.0472
     30 H13        10.7420   -6.6868    1.2542 H         1 <1>         0.0509
     31 H14        10.1587   -6.9461    2.9102 H         1 <1>         0.0515
     32 H15         9.7960   -8.1332    1.6457 H         1 <1>         0.0515
     33 H16         2.1335    0.0839    1.1556 H         1 <1>         0.0594
     34 H17         2.3550   -0.3184   -0.5502 H         1 <1>         0.0594
     35 H18         7.8873   -2.3655    2.6213 H         1 <1>         0.0555
     36 H19         8.4286   -2.1926    0.9504 H         1 <1>         0.0555
     37 H20         7.8040   -6.7289    2.1278 H         1 <1>         0.0607
     38 H21         8.3600   -6.5191    0.4658 H         1 <1>         0.0607
     39 H22         7.2177   -4.2902    0.3289 H         1 <1>         0.0657
     40 H23         6.6397   -4.4575    1.9880 H         1 <1>         0.0656
     41 H24         8.9942   -4.6373    2.8034 H         1 <1>         0.0571
     42 H25         9.5901   -4.4333    1.1548 H         1 <1>         0.0571
@<TRIPOS>BOND
     1    1   11 1
     2    1   16 1
     3    1   17 2
     4    2    5 1
     5    2    8 1
     6    3    6 1
     7    3    8 1
     8    4    7 1
     9    4    8 1
    10    5    9 1
    11    6    9 1
    12    7    9 1
    13    8   11 1
    14    9   12 1
    15   10   13 1
    16   12   14 1
    17   13   15 1
    18   14   15 1
    19    2   18 1
    20    2   19 1
    21    3   20 1
    22    3   21 1
    23    4   22 1
    24    4   23 1
    25    5   24 1
    26    5   25 1
    27    6   26 1
    28    6   27 1
    29    7   28 1
    30    7   29 1
    31   10   30 1
    32   10   31 1
    33   10   32 1
    34   11   33 1
    35   11   34 1
    36   12   35 1
    37   12   36 1
    38   13   37 1
    39   13   38 1
    40   14   39 1
    41   14   40 1
    42   15   41 1
    43   15   42 1
@<TRIPOS>Similarity
1.4081
@<TRIPOS>ShapeSim
0.8038
@<TRIPOS>PharmSim
0.6044
# END
# Name:		AK-968/41170120
# Created and modified by SHAFTS on Sun Jan  8 14:48:48 2012

# 

@<TRIPOS>MOLECULE
AK-968/41170120
   34    35     0
SMALL
USER_CHARGE


@<TRIPOS>ATOM
      1 C1          7.4109   -4.0313    1.3084 C.ar      1 <1>        -0.1029
      2 C2          6.0903   -4.4198    1.5135 C.ar      1 <1>        -0.1014
      3 C3          7.7382   -2.6769    1.2412 C.ar      1 <1>        -0.0933
      4 C4          5.0921   -3.4551    1.6526 C.ar      1 <1>        -0.0880
      5 C5          7.0578   -0.3243    1.3142 C.ar      1 <1>        -0.0861
      6 C6          6.0595    0.6404    1.4531 C.ar      1 <1>        -0.0639
      7 C7          4.4115   -1.1026    1.7253 C.ar      1 <1>        -0.0465
      8 C8          6.7464   -1.6922    1.3790 C.ar      1 <1>        -0.0783
      9 C9          5.4034   -2.0872    1.5876 C.ar      1 <1>        -0.0738
     10 C10         4.7389    0.2520    1.6583 C.ar      1 <1>        -0.0002
     11 C11         2.5742    1.4706   -0.2599 C.2       1 <1>         0.1882
     12 C12         0.0691    2.3652   -1.9349 C.3       1 <1>        -0.0329
     13 C13         3.0633    3.4083    1.2527 C.3       1 <1>        -0.0019
     14 C14         1.4437    1.8493   -2.3036 C.3       1 <1>         0.0251
     15 C15         3.5713    2.0885    0.6993 C.3       1 <1>         0.1382
     16 O1          2.0099    0.3993   -0.0791 O.2       1 <1>        -0.4411
     17 O2          3.7663    1.1943    1.7940 O.3       1 <1>        -0.3776
     18 O3          2.3883    2.3010   -1.3278 O.3       1 <1>        -0.3569
     19 H1          8.1873   -4.7829    1.1996 H         1 <1>         0.1150
     20 H2          5.8358   -5.4745    1.5660 H         1 <1>         0.1198
     21 H3          8.7767   -2.3953    1.0797 H         1 <1>         0.1257
     22 H4          4.0664   -3.7818    1.8115 H         1 <1>         0.1254
     23 H5          8.0834    0.0021    1.1538 H         1 <1>         0.1371
     24 H6          6.3200    1.6940    1.3995 H         1 <1>         0.1177
     25 H7          3.3739   -1.3895    1.8866 H         1 <1>         0.1348
     26 H8         -0.2375    1.9923   -0.9538 H         1 <1>         0.0495
     27 H9          0.0600    3.4600   -1.9158 H         1 <1>         0.0603
     28 H10        -0.6720    2.0538   -2.6786 H         1 <1>         0.0496
     29 H11         2.1027    3.2897    1.7636 H         1 <1>         0.0552
     30 H12         3.7847    3.8320    1.9597 H         1 <1>         0.0595
     31 H13         2.9334    4.1446    0.4512 H         1 <1>         0.0644
     32 H14         1.7443    2.2260   -3.2859 H         1 <1>         0.1036
     33 H15         1.4512    0.7554   -2.3215 H         1 <1>         0.1039
     34 H16         4.5320    2.2178    0.1905 H         1 <1>         0.1722
@<TRIPOS>BOND
     1    1    2 ar
     2    1    3 ar
     3    2    4 ar
     4    3    8 ar
     5    4    9 ar
     6    5    6 ar
     7    5    8 ar
     8    6   10 ar
     9    7    9 ar
    10    7   10 ar
    11    8    9 ar
    12   10   17 1
    13   11   15 1
    14   11   16 2
    15   11   18 1
    16   12   14 1
    17   13   15 1
    18   14   18 1
    19   15   17 1
    20    1   19 1
    21    2   20 1
    22    3   21 1
    23    4   22 1
    24    5   23 1
    25    6   24 1
    26    7   25 1
    27   12   26 1
    28   12   27 1
    29   12   28 1
    30   13   29 1
    31   13   30 1
    32   13   31 1
    33   14   32 1
    34   14   33 1
    35   15   34 1
@<TRIPOS>Similarity
1.4081
@<TRIPOS>ShapeSim
0.8664
@<TRIPOS>PharmSim
0.5417
# END
# Name:		AA-516/31408010
# Created and modified by SHAFTS on Sun Jan  8 14:48:48 2012

# 

@<TRIPOS>MOLECULE
AA-516/31408010
   22    22     0
SMALL
USER_CHARGE


@<TRIPOS>ATOM
      1 C1          7.2353   -3.6374    1.3587 C.ar      1 <1>        -0.0952
      2 C2          7.5953   -2.3810    0.8716 C.ar      1 <1>        -0.0923
      3 C3          5.9413   -3.8580    1.8306 C.ar      1 <1>        -0.0923
      4 C4          6.6614   -1.3450    0.8563 C.ar      1 <1>        -0.0214
      5 C5          5.0073   -2.8221    1.8153 C.ar      1 <1>        -0.0214
      6 C6          5.3674   -1.5656    1.3282 C.ar      1 <1>         0.2383
      7 C7          2.3354    0.6334   -0.4727 C.2       1 <1>         0.1459
      8 C8          3.4070   -0.4067   -0.2743 C.3       1 <1>         0.3094
      9 N1          1.0993    0.1944   -0.0483 N.am      1 <1>        -0.3484
     10 O1          2.5313    1.7402   -0.9657 O.2       1 <1>        -0.4938
     11 O2          3.2033   -0.5479    2.3360 O.2       1 <1>        -0.1348
     12 O3          4.9082    1.0048    1.3219 O.2       1 <1>        -0.1348
     13 S1          4.1996   -0.2676    1.3119 S.o2      1 <1>        -0.1154
     14 H1          7.9622   -4.4443    1.3716 H         1 <1>         0.1352
     15 H2          8.6030   -2.2086    0.5051 H         1 <1>         0.1240
     16 H3          5.6616   -4.8361    2.2104 H         1 <1>         0.1240
     17 H4          6.9526   -0.3698    0.4754 H         1 <1>         0.1464
     18 H5          4.0026   -3.0046    2.1865 H         1 <1>         0.1464
     19 H6          4.1787   -0.2909   -1.0399 H         1 <1>         0.2267
     20 H7          2.9772   -1.4104   -0.3337 H         1 <1>         0.2267
     21 H8          1.0065   -0.7379    0.3422 H         1 <1>         0.2782
     22 H9          0.2812    0.7902   -0.1208 H         1 <1>         0.2821
@<TRIPOS>BOND
     1    1    2 ar
     2    1    3 ar
     3    2    4 ar
     4    3    5 ar
     5    4    6 ar
     6    5    6 ar
     7    6   13 1
     8    7    8 1
     9    7    9 am
    10    7   10 2
    11    8   13 1
    12   11   13 2
    13   12   13 2
    14    1   14 1
    15    2   15 1
    16    3   16 1
    17    4   17 1
    18    5   18 1
    19    8   19 1
    20    8   20 1
    21    9   21 1
    22    9   22 1
@<TRIPOS>Similarity
1.4080
@<TRIPOS>ShapeSim
0.8970
@<TRIPOS>PharmSim
0.5111
# END
# Name:		ZINC00287726
# Created and modified by SHAFTS on Sun Jan  8 14:48:48 2012

# 

@<TRIPOS>MOLECULE
ZINC00287726
   34    35     0
SMALL
USER_CHARGE


@<TRIPOS>ATOM
      1 C1          7.7457   -2.4388    1.3916 C.ar      1 <1>        -0.0502
      2 C2          7.5083   -3.8025    1.5862 C.ar      1 <1>        -0.0399
      3 C3          5.1126   -3.4265    1.7133 C.ar      1 <1>        -0.0302
      4 C4          5.2637    0.1938    1.2324 C.2       1 <1>        -0.0643
      5 C5          5.3273   -2.0476    1.5184 C.ar      1 <1>        -0.0484
      6 C6          4.4721   -0.9133    1.4339 C.2       1 <1>        -0.0793
      7 C7          6.6362   -1.5865    1.3625 C.ar      1 <1>        -0.0497
      8 C8          6.2130   -4.2910    1.7448 C.ar      1 <1>         0.0709
      9 C9          2.6306    1.1326   -1.5692 C.2       1 <1>         0.0580
     10 C10         2.9643    1.8555   -3.9659 C.3       1 <1>        -0.0432
     11 C11         2.9991   -0.9130    1.5420 C.3       1 <1>        -0.0218
     12 C12         2.9408    0.6944   -2.9885 C.3       1 <1>         0.0371
     13 C13         2.3092    0.1844    0.7114 C.3       1 <1>        -0.0283
     14 N1          6.5674   -0.2223    1.1904 N.pl3     1 <1>        -0.3619
     15 N2          2.5819    0.0521   -0.6947 N.am      1 <1>        -0.3615
     16 N3          6.0046   -5.6827    1.9409 N.pl3     1 <1>        -0.0543
     17 O1          6.9984   -6.4475    1.9673 O.3       1 <1>        -0.1637
     18 O2          2.4503    2.3054   -1.2524 O.2       1 <1>        -0.5000
     19 O3          4.8327   -6.1072    2.0822 O.2       1 <1>        -0.2511
     20 H1          8.7545   -2.0594    1.2683 H         1 <1>         0.1464
     21 H2          8.3588   -4.4810    1.6119 H         1 <1>         0.1635
     22 H3          4.1027   -3.8094    1.8371 H         1 <1>         0.1751
     23 H4          5.0183    1.2401    1.1148 H         1 <1>         0.2030
     24 H5          2.0006    2.3754   -3.9824 H         1 <1>         0.0406
     25 H6          3.7370    2.5766   -3.6826 H         1 <1>         0.0400
     26 H7          3.1765    1.5093   -4.9829 H         1 <1>         0.0409
     27 H8          2.6957   -0.7794    2.5992 H         1 <1>         0.0826
     28 H9          2.5735   -1.8953    1.2534 H         1 <1>         0.0815
     29 H10         3.9150    0.1922   -2.9915 H         1 <1>         0.0916
     30 H11         2.1833   -0.0333   -3.3012 H         1 <1>         0.0923
     31 H12         1.2217    0.1393    0.8276 H         1 <1>         0.0965
     32 H13         2.6446    1.1798    1.0208 H         1 <1>         0.0968
     33 H14         7.3645    0.3836    1.0533 H         1 <1>         0.3380
     34 H15         2.7479   -0.8808   -1.0693 H         1 <1>         0.2933
@<TRIPOS>BOND
     1    1    2 ar
     2    1    7 ar
     3    2    8 ar
     4    3    5 ar
     5    3    8 ar
     6    4    6 2
     7    4   14 1
     8    5    6 1
     9    5    7 ar
    10    6   11 1
    11    7   14 1
    12    8   16 1
    13    9   12 1
    14    9   15 am
    15    9   18 2
    16   10   12 1
    17   11   13 1
    18   13   15 1
    19   16   17 1
    20   16   19 2
    21    1   20 1
    22    2   21 1
    23    3   22 1
    24    4   23 1
    25   10   24 1
    26   10   25 1
    27   10   26 1
    28   11   27 1
    29   11   28 1
    30   12   29 1
    31   12   30 1
    32   13   31 1
    33   13   32 1
    34   14   33 1
    35   15   34 1
@<TRIPOS>Similarity
1.4079
@<TRIPOS>ShapeSim
0.8203
@<TRIPOS>PharmSim
0.5876
# END
# Name:		AJ-333/36115062
# Created and modified by SHAFTS on Sun Jan  8 14:48:48 2012

# 

@<TRIPOS>MOLECULE
AJ-333/36115062
   17    17     0
SMALL
USER_CHARGE


@<TRIPOS>ATOM
      1 C1          6.0247   -3.9187    1.6123 C.ar      1 <1>        -0.1461
      2 C2          4.9778   -3.0056    1.6703 C.ar      1 <1>        -0.0907
      3 C3          7.2791   -3.4459    1.2620 C.ar      1 <1>         0.0883
      4 C4          5.2139   -1.6664    1.3803 C.ar      1 <1>        -0.1336
      5 C5          6.5046   -1.2943    1.0406 C.ar      1 <1>         0.1786
      6 C6          3.3098    1.4895   -0.1319 C.2       1 <1>         0.4821
      7 C7          3.8413    0.0672   -0.2394 C.3       1 <1>        -0.1630
      8 N1          7.5470   -2.1526    0.9737 N.ar      1 <1>        -0.4625
      9 O1          2.6935    1.9127   -1.1512 O.co2     1 <1>        -0.5000
     10 O2          3.5758    2.0838    0.9517 O.co2     1 <1>        -0.5000
     11 S1          3.8461   -0.5262    1.4664 S.3       1 <1>        -0.0061
     12 Cl1         6.9571    0.3238    0.6543 Cl        1 <1>        -0.0185
     13 H1          5.8637   -4.9674    1.8347 H         1 <1>         0.1415
     14 H2          3.9866   -3.3589    1.9439 H         1 <1>         0.1443
     15 H3          8.1292   -4.1173    1.2027 H         1 <1>         0.1627
     16 H4          4.8548    0.0502   -0.6488 H         1 <1>         0.0924
     17 H5          3.1932   -0.5588   -0.8591 H         1 <1>         0.0924
@<TRIPOS>BOND
     1    1    2 ar
     2    1    3 ar
     3    2    4 ar
     4    3    8 ar
     5    4    5 ar
     6    4   11 1
     7    5    8 ar
     8    5   12 1
     9    6    7 1
    10    6    9 1
    11    6   10 2
    12    7   11 1
    13    1   13 1
    14    2   14 1
    15    3   15 1
    16    7   16 1
    17    7   17 1
@<TRIPOS>Similarity
1.4071
@<TRIPOS>ShapeSim
0.8793
@<TRIPOS>PharmSim
0.5278
# END
# Name:		AG-205/33105041
# Created and modified by SHAFTS on Sun Jan  8 14:48:48 2012

# 

@<TRIPOS>MOLECULE
AG-205/33105041
   28    29     0
SMALL
USER_CHARGE


@<TRIPOS>ATOM
      1 C1          6.1199   -3.9201    1.2731 C.ar      1 <1>        -0.0838
      2 C2          7.3906   -3.3320    1.2804 C.ar      1 <1>        -0.0840
      3 C3          4.9561   -3.1382    1.3069 C.ar      1 <1>        -0.0589
      4 C4          7.5518   -1.9429    1.3219 C.ar      1 <1>        -0.0493
      5 C5          5.1001   -1.7440    1.3489 C.ar      1 <1>        -0.0056
      6 C6          6.3769   -1.2020    1.3549 C.ar      1 <1>         0.0478
      7 C7          4.9048    0.3549    1.4155 C.2       1 <1>         0.1439
      8 C8          2.0609    1.1733    0.0406 C.2       1 <1>         0.0751
      9 C9          1.6780    3.9607    1.1530 C.3       1 <1>        -0.0624
     10 C10         1.5606    2.6899    1.9848 C.3       1 <1>        -0.0243
     11 C11         2.4321    1.5364    1.4709 C.3       1 <1>         0.1186
     12 N1          4.1691   -0.7346    1.3881 N.2       1 <1>        -0.3524
     13 N2          1.1083    0.1800   -0.0405 N.am      1 <1>        -0.3524
     14 O1          2.5745    1.6996   -0.9444 O.2       1 <1>        -0.4860
     15 O2          6.2527    0.1571    1.3979 O.3       1 <1>        -0.3191
     16 S1          4.2064    1.9743    1.4703 S.3       1 <1>        -0.0167
     17 H1          6.0323   -5.0034    1.2415 H         1 <1>         0.1324
     18 H2          8.2721   -3.9679    1.2520 H         1 <1>         0.1390
     19 H3          3.9767   -3.6050    1.2992 H         1 <1>         0.1481
     20 H4          8.5296   -1.4781    1.3256 H         1 <1>         0.1419
     21 H5          1.3865    3.7775    0.1138 H         1 <1>         0.0374
     22 H6          1.0531    4.7657    1.5505 H         1 <1>         0.0387
     23 H7          2.7141    4.3145    1.1549 H         1 <1>         0.0414
     24 H8          1.8635    2.9307    3.0124 H         1 <1>         0.0610
     25 H9          0.5067    2.3898    2.0453 H         1 <1>         0.0707
     26 H10         2.2969    0.6601    2.1149 H         1 <1>         0.1472
     27 H11         0.7194   -0.2381    0.7982 H         1 <1>         0.2742
     28 H12         0.7576   -0.1684   -0.9269 H         1 <1>         0.2777
@<TRIPOS>BOND
     1    1    2 ar
     2    1    3 ar
     3    2    4 ar
     4    3    5 ar
     5    4    6 ar
     6    5    6 ar
     7    5   12 1
     8    6   15 1
     9    7   12 2
    10    7   15 1
    11    7   16 1
    12    8   11 1
    13    8   13 am
    14    8   14 2
    15    9   10 1
    16   10   11 1
    17   11   16 1
    18    1   17 1
    19    2   18 1
    20    3   19 1
    21    4   20 1
    22    9   21 1
    23    9   22 1
    24    9   23 1
    25   10   24 1
    26   10   25 1
    27   11   26 1
    28   13   27 1
    29   13   28 1
@<TRIPOS>Similarity
1.4065
@<TRIPOS>ShapeSim
0.8699
@<TRIPOS>PharmSim
0.5366
# END
# Name:		AG-690/08750047
# Created and modified by SHAFTS on Sun Jan  8 14:48:48 2012

# 

@<TRIPOS>MOLECULE
AG-690/08750047
   28    30     0
SMALL
USER_CHARGE


@<TRIPOS>ATOM
      1 C1          2.8954    1.2226    0.7720 C.ar      1 <1>         0.1214
      2 C2          4.3238   -1.0073    0.9889 C.ar      1 <1>         0.0447
      3 C3          5.3400   -2.0067    1.1960 C.2       1 <1>        -0.0726
      4 C4          6.5427   -1.4496    1.5887 C.2       1 <1>        -0.0041
      5 C5          4.8326    0.2620    1.2533 C.ar      1 <1>         0.0992
      6 C6          2.9877   -1.1140    0.5848 C.ar      1 <1>         0.0645
      7 C7          5.1847   -3.4867    0.9955 C.3       1 <1>        -0.0425
      8 C8          7.7887   -2.2174    1.9027 C.3       1 <1>        -0.0168
      9 C9          6.3266   -4.2792    1.6502 C.3       1 <1>        -0.0577
     10 C10         7.6940   -3.6490    1.3543 C.3       1 <1>        -0.0530
     11 N1          4.1606    1.4258    1.1626 N.ar      1 <1>        -0.2923
     12 N2          2.3339    0.0451    0.4986 N.ar      1 <1>        -0.2849
     13 N3          2.3514   -2.3265    0.2737 N.pl3     1 <1>        -0.3394
     14 N4          0.9188    0.0528    0.0806 N.pl3     1 <1>        -0.3402
     15 S1          6.4690    0.2416    1.7282 S.3       1 <1>         0.0004
     16 H1          2.2729    2.1049    0.6690 H         1 <1>         0.3623
     17 H2          4.2370   -3.8382    1.4167 H         1 <1>         0.0770
     18 H3          5.1691   -3.6945   -0.0817 H         1 <1>         0.0696
     19 H4          8.6725   -1.7244    1.4819 H         1 <1>         0.0942
     20 H5          7.9165   -2.2542    2.9918 H         1 <1>         0.0920
     21 H6          6.1747   -4.3121    2.7368 H         1 <1>         0.0522
     22 H7          6.3056   -5.3146    1.2919 H         1 <1>         0.0590
     23 H8          7.8557   -3.6386    0.2686 H         1 <1>         0.0649
     24 H9          8.4913   -4.2608    1.7912 H         1 <1>         0.0545
     25 H10         2.8782   -3.1797    0.2917 H         1 <1>         0.3119
     26 H11         1.4035   -2.3167   -0.0541 H         1 <1>         0.2957
     27 H12         0.4684    0.8318    0.5469 H         1 <1>         0.3262
     28 H13         0.5013   -0.8112    0.4064 H         1 <1>         0.3138
@<TRIPOS>BOND
     1    1   11 ar
     2    1   12 ar
     3    2    3 1
     4    2    5 ar
     5    2    6 ar
     6    3    4 2
     7    3    7 1
     8    4    8 1
     9    4   15 1
    10    5   11 ar
    11    5   15 1
    12    6   12 ar
    13    6   13 1
    14    7    9 1
    15    8   10 1
    16    9   10 1
    17   12   14 1
    18    1   16 1
    19    7   17 1
    20    7   18 1
    21    8   19 1
    22    8   20 1
    23    9   21 1
    24    9   22 1
    25   10   23 1
    26   10   24 1
    27   13   25 1
    28   13   26 1
    29   14   27 1
    30   14   28 1
@<TRIPOS>Similarity
1.4017
@<TRIPOS>ShapeSim
0.9148
@<TRIPOS>PharmSim
0.4869
# END
# Name:		AB-337/13036072
# Created and modified by SHAFTS on Sun Jan  8 14:48:48 2012

# 

@<TRIPOS>MOLECULE
AB-337/13036072
   31    33     0
SMALL
USER_CHARGE


@<TRIPOS>ATOM
      1 C1          6.0995   -4.0118    1.3960 C.ar      1 <1>        -0.1009
      2 C2          7.4218   -3.5721    1.3962 C.ar      1 <1>        -0.0983
      3 C3          5.0404   -3.0969    1.3960 C.ar      1 <1>        -0.0893
      4 C4          7.7277   -2.2082    1.3963 C.ar      1 <1>        -0.0764
      5 C5          5.3726    0.5431    1.3968 C.2       1 <1>        -0.0363
      6 C6          5.3243   -1.7168    1.3962 C.ar      1 <1>        -0.0640
      7 C7          4.5242   -0.5400    1.3963 C.2       1 <1>        -0.0346
      8 C8          6.6587   -1.3051    1.3963 C.ar      1 <1>        -0.0589
      9 C9          2.3727    0.1244    0.4243 C.2       1 <1>         0.0611
     10 C10         0.8843    0.1540    0.5488 C.2       1 <1>         0.0646
     11 C11         3.0775    0.7166   -0.7521 C.2       1 <1>         0.0625
     12 C12         3.0960   -0.4473    1.3965 C.2       1 <1>        -0.0393
     13 C13         0.1132    0.8436   -0.5546 C.3       1 <1>         0.0243
     14 C14         2.2214    1.3844   -1.8049 C.3       1 <1>         0.0245
     15 C15         0.9330    1.9401   -1.2176 C.3       1 <1>        -0.0319
     16 N1          6.6578    0.0716    1.3965 N.pl3     1 <1>        -0.3508
     17 O1          0.2960   -0.3967    1.4777 O.2       1 <1>        -0.4787
     18 O2          4.2959    0.6300   -0.8946 O.2       1 <1>        -0.4838
     19 H1          5.8868   -5.0776    1.3939 H         1 <1>         0.1174
     20 H2          8.2287   -4.3002    1.3957 H         1 <1>         0.1220
     21 H3          4.0154   -3.4574    1.3953 H         1 <1>         0.1256
     22 H4          8.7575   -1.8665    1.3952 H         1 <1>         0.1241
     23 H5          5.1830    1.6081    1.3977 H         1 <1>         0.2290
     24 H6          2.5529   -0.8929    2.2267 H         1 <1>         0.1932
     25 H7         -0.1534    0.0933   -1.3072 H         1 <1>         0.0835
     26 H8         -0.8104    1.2485   -0.1269 H         1 <1>         0.0879
     27 H9          2.8122    2.1779   -2.2755 H         1 <1>         0.0857
     28 H10         1.9727    0.6388   -2.5683 H         1 <1>         0.0882
     29 H11         0.3408    2.4134   -2.0113 H         1 <1>         0.0507
     30 H12         1.1696    2.7174   -0.4823 H         1 <1>         0.0582
     31 H13         7.4864    0.6504    1.3965 H         1 <1>         0.3406
@<TRIPOS>BOND
     1    1    2 ar
     2    1    3 ar
     3    2    4 ar
     4    3    6 ar
     5    4    8 ar
     6    5    7 2
     7    5   16 1
     8    6    7 1
     9    6    8 ar
    10    7   12 1
    11    8   16 1
    12    9   10 1
    13    9   11 1
    14    9   12 2
    15   10   13 1
    16   10   17 2
    17   11   14 1
    18   11   18 2
    19   13   15 1
    20   14   15 1
    21    1   19 1
    22    2   20 1
    23    3   21 1
    24    4   22 1
    25    5   23 1
    26   12   24 1
    27   13   25 1
    28   13   26 1
    29   14   27 1
    30   14   28 1
    31   15   29 1
    32   15   30 1
    33   16   31 1
@<TRIPOS>Similarity
1.4010
@<TRIPOS>ShapeSim
0.8776
@<TRIPOS>PharmSim
0.5234
# END
# Name:		AC-907/34124023
# Created and modified by SHAFTS on Sun Jan  8 14:48:48 2012

# 

@<TRIPOS>MOLECULE
AC-907/34124023
   19    20     0
SMALL
USER_CHARGE


@<TRIPOS>ATOM
      1 C1          6.5040   -4.3077    1.2678 C.ar      1 <1>        -0.0867
      2 C2          7.5998   -3.7309    1.8976 C.ar      1 <1>        -0.0775
      3 C3          5.4397   -3.5044    0.8682 C.ar      1 <1>        -0.0770
      4 C4          7.6292   -2.3530    2.1264 C.ar      1 <1>        -0.0447
      5 C5          4.4121   -1.2865    0.7068 C.ar      1 <1>        -0.0163
      6 C6          5.5981    0.5663    1.5791 C.ar      1 <1>         0.0259
      7 C7          5.4695   -2.1184    1.0985 C.ar      1 <1>        -0.0296
      8 C8          6.5790   -1.5261    1.7373 C.ar      1 <1>        -0.0138
      9 C9          4.4716    0.0785    0.9482 C.ar      1 <1>         0.1079
     10 N1          6.6396   -0.2017    1.9731 N.ar      1 <1>        -0.3646
     11 N2          3.4150    0.9396    0.5616 N.pl3     1 <1>        -0.0424
     12 O1          2.4079    0.4526   -0.0101 O.3       1 <1>        -0.1487
     13 O2          3.5105    2.1693    0.7999 O.2       1 <1>        -0.2462
     14 H1          6.4776   -5.3780    1.0880 H         1 <1>         0.1333
     15 H2          8.4347   -4.3501    2.2127 H         1 <1>         0.1431
     16 H3          4.5868   -3.9658    0.3758 H         1 <1>         0.1415
     17 H4          8.4993   -1.9259    2.6218 H         1 <1>         0.1521
     18 H5          3.5401   -1.7104    0.2114 H         1 <1>         0.1937
     19 H6          5.7111    1.6239    1.7997 H         1 <1>         0.2496
@<TRIPOS>BOND
     1    1    2 ar
     2    1    3 ar
     3    2    4 ar
     4    3    7 ar
     5    4    8 ar
     6    5    7 ar
     7    5    9 ar
     8    6    9 ar
     9    6   10 ar
    10    7    8 ar
    11    8   10 ar
    12    9   11 1
    13   11   12 1
    14   11   13 2
    15    1   14 1
    16    2   15 1
    17    3   16 1
    18    4   17 1
    19    5   18 1
    20    6   19 1
@<TRIPOS>Similarity
1.4007
@<TRIPOS>ShapeSim
0.8843
@<TRIPOS>PharmSim
0.5164
# END
# Name:		AI-942/13331609
# Created and modified by SHAFTS on Sun Jan  8 14:48:48 2012

# 

@<TRIPOS>MOLECULE
AI-942/13331609
   22    24     0
SMALL
USER_CHARGE


@<TRIPOS>ATOM
      1 C1          6.3238   -4.2319    1.2735 C.ar      1 <1>        -0.0936
      2 C2          7.5350   -3.6947    1.6807 C.ar      1 <1>        -0.0901
      3 C3          5.2307   -3.3966    1.0286 C.ar      1 <1>        -0.0882
      4 C4          2.7678    1.3772    0.7490 C.ar      1 <1>        -0.0541
      5 C5          7.6774   -2.3171    1.8505 C.ar      1 <1>        -0.0765
      6 C6          4.0991    1.4899    1.1511 C.ar      1 <1>        -0.0681
      7 C7          2.9970   -1.0200    0.5922 C.ar      1 <1>        -0.0530
      8 C8          5.3400   -1.9906    1.1916 C.ar      1 <1>        -0.0703
      9 C9          4.3548   -0.9423    0.9990 C.ar      1 <1>        -0.0651
     10 C10         2.2197    0.1347    0.4714 C.ar      1 <1>        -0.0296
     11 C11         6.5718   -1.4787    1.6023 C.ar      1 <1>        -0.0308
     12 C12         4.8791    0.3220    1.2716 C.ar      1 <1>        -0.0283
     13 O1          0.9194    0.0363    0.0793 O.3       1 <1>        -0.4368
     14 S1          6.5245    0.2297    1.7475 S.3       1 <1>        -0.1254
     15 H1          6.2212   -5.3055    1.1442 H         1 <1>         0.1237
     16 H2          8.3812   -4.3496    1.8694 H         1 <1>         0.1348
     17 H3          4.2892   -3.8384    0.7106 H         1 <1>         0.1299
     18 H4          2.1630    2.2755    0.6551 H         1 <1>         0.1431
     19 H5          8.6302   -1.9039    2.1697 H         1 <1>         0.1372
     20 H6          4.5213    2.4677    1.3666 H         1 <1>         0.1449
     21 H7          2.5535   -1.9884    0.3706 H         1 <1>         0.1381
     22 H8          0.6850   -0.8923   -0.0766 H         1 <1>         0.3578
@<TRIPOS>BOND
     1    1    2 ar
     2    1    3 ar
     3    2    5 ar
     4    3    8 ar
     5    4    6 ar
     6    4   10 ar
     7    5   11 ar
     8    6   12 ar
     9    7    9 ar
    10    7   10 ar
    11    8    9 1
    12    8   11 ar
    13    9   12 ar
    14   10   13 1
    15   11   14 1
    16   12   14 1
    17    1   15 1
    18    2   16 1
    19    3   17 1
    20    4   18 1
    21    5   19 1
    22    6   20 1
    23    7   21 1
    24   13   22 1
@<TRIPOS>Similarity
1.4000
@<TRIPOS>ShapeSim
0.9368
@<TRIPOS>PharmSim
0.4632
# END
# Name:		AK-968/41170120
# Created and modified by SHAFTS on Sun Jan  8 14:48:48 2012

# 

@<TRIPOS>MOLECULE
AK-968/41170120
   34    35     0
SMALL
USER_CHARGE


@<TRIPOS>ATOM
      1 C1          7.6453   -3.8224    1.6065 C.ar      1 <1>        -0.1029
      2 C2          6.4035   -4.3288    1.9786 C.ar      1 <1>        -0.1014
      3 C3          7.7705   -2.4836    1.2344 C.ar      1 <1>        -0.0933
      4 C4          5.2824   -3.4987    1.9801 C.ar      1 <1>        -0.0880
      5 C5          6.7604   -0.2834    0.8583 C.ar      1 <1>        -0.0861
      6 C6          5.6391    0.5469    0.8597 C.ar      1 <1>        -0.0639
      7 C7          4.2720   -1.2985    1.6039 C.ar      1 <1>        -0.0465
      8 C8          6.6526   -1.6335    1.2299 C.ar      1 <1>        -0.0783
      9 C9          5.3900   -2.1486    1.6083 C.ar      1 <1>        -0.0738
     10 C10         4.3974    0.0403    1.2318 C.ar      1 <1>        -0.0002
     11 C11         2.4424    1.0998   -0.9831 C.2       1 <1>         0.1882
     12 C12         2.9949   -0.6448   -4.1548 C.3       1 <1>        -0.0329
     13 C13         0.9330    0.9815    1.0143 C.3       1 <1>        -0.0020
     14 C14         2.8458    0.5606   -3.2513 C.3       1 <1>         0.0252
     15 C15         2.2204    0.4817    0.3824 C.3       1 <1>         0.1382
     16 O1          2.4954    2.3037   -1.1994 O.2       1 <1>        -0.4413
     17 O2          3.3047    0.8516    1.2327 O.3       1 <1>        -0.3775
     18 O3          2.5991    0.1134   -1.9143 O.3       1 <1>        -0.3568
     19 H1          8.5174   -4.4695    1.6050 H         1 <1>         0.1149
     20 H2          6.3064   -5.3712    2.2686 H         1 <1>         0.1197
     21 H3          8.7504   -2.1084    0.9466 H         1 <1>         0.1257
     22 H4          4.3216   -3.9164    2.2740 H         1 <1>         0.1254
     23 H5          7.7210    0.1338    0.5631 H         1 <1>         0.1371
     24 H6          5.7424    1.5886    0.5683 H         1 <1>         0.1176
     25 H7          3.2938   -1.6788    1.8924 H         1 <1>         0.1348
     26 H8          3.8333   -1.2702   -3.8358 H         1 <1>         0.0495
     27 H9          2.0811   -1.2480   -4.1477 H         1 <1>         0.0496
     28 H10         3.1617   -0.3320   -5.1910 H         1 <1>         0.0603
     29 H11         0.9265    2.0717    1.1105 H         1 <1>         0.0588
     30 H12         0.0677    0.6788    0.4149 H         1 <1>         0.0549
     31 H13         0.7946    0.5514    2.0129 H         1 <1>         0.0647
     32 H14         2.0056    1.1818   -3.5758 H         1 <1>         0.1039
     33 H15         3.7599    1.1617   -3.2589 H         1 <1>         0.1036
     34 H16         2.2170   -0.6093    0.2907 H         1 <1>         0.1726
@<TRIPOS>BOND
     1    1    2 ar
     2    1    3 ar
     3    2    4 ar
     4    3    8 ar
     5    4    9 ar
     6    5    6 ar
     7    5    8 ar
     8    6   10 ar
     9    7    9 ar
    10    7   10 ar
    11    8    9 ar
    12   10   17 1
    13   11   15 1
    14   11   16 2
    15   11   18 1
    16   12   14 1
    17   13   15 1
    18   14   18 1
    19   15   17 1
    20    1   19 1
    21    2   20 1
    22    3   21 1
    23    4   22 1
    24    5   23 1
    25    6   24 1
    26    7   25 1
    27   12   26 1
    28   12   27 1
    29   12   28 1
    30   13   29 1
    31   13   30 1
    32   13   31 1
    33   14   32 1
    34   14   33 1
    35   15   34 1
@<TRIPOS>Similarity
1.3996
@<TRIPOS>ShapeSim
0.8497
@<TRIPOS>PharmSim
0.5499
# END
# Name:		AG-690/12766202
# Created and modified by SHAFTS on Sun Jan  8 14:48:48 2012

# 

@<TRIPOS>MOLECULE
AG-690/12766202
   26    27     0
SMALL
USER_CHARGE


@<TRIPOS>ATOM
      1 C1          6.1035   -4.0564    1.3375 C.ar      1 <1>        -0.1007
      2 C2          7.4016   -3.5696    1.4778 C.ar      1 <1>        -0.0997
      3 C3          5.0147   -3.1804    1.2579 C.ar      1 <1>        -0.0844
      4 C4          7.6534   -2.1962    1.5427 C.ar      1 <1>        -0.0748
      5 C5          5.2049    0.4677    1.3844 C.2       1 <1>        -0.0318
      6 C6          5.2440   -1.7916    1.3211 C.ar      1 <1>        -0.0480
      7 C7          4.4029   -0.6447    1.2734 C.2       1 <1>        -0.0130
      8 C8          6.5553   -1.3325    1.4618 C.ar      1 <1>        -0.0506
      9 C9          2.9748   -0.5982    1.1363 C.2       1 <1>        -0.0091
     10 C10         2.0779   -1.2751    2.1924 C.3       1 <1>         0.0023
     11 C11         7.6398    0.9255    1.6338 C.3       1 <1>        -0.0085
     12 N1          2.4163    0.0143    0.1013 N.2       1 <1>        -0.3335
     13 N2          6.5015    0.0428    1.4973 N.pl3     1 <1>        -0.3729
     14 O1          1.0218   -0.0542    0.1010 O.3       1 <1>        -0.3961
     15 H1          5.9327   -5.1286    1.2894 H         1 <1>         0.1126
     16 H2          8.2325   -4.2680    1.5378 H         1 <1>         0.1218
     17 H3          4.0088   -3.5756    1.1486 H         1 <1>         0.1357
     18 H4          8.6661   -1.8229    1.6519 H         1 <1>         0.1198
     19 H5          4.9635    1.5226    1.3924 H         1 <1>         0.2148
     20 H6          1.8244   -0.5814    2.9998 H         1 <1>         0.0723
     21 H7          1.1578   -1.6320    1.7210 H         1 <1>         0.0665
     22 H8          2.6002   -2.1192    2.6492 H         1 <1>         0.0708
     23 H9          7.8051    1.1004    2.7002 H         1 <1>         0.1007
     24 H10         8.5193    0.4581    1.1824 H         1 <1>         0.1081
     25 H11         7.4307    1.8672    1.1187 H         1 <1>         0.1099
     26 H12         0.8022    0.4359   -0.7092 H         1 <1>         0.3877
@<TRIPOS>BOND
     1    1    2 ar
     2    1    3 ar
     3    2    4 ar
     4    3    6 ar
     5    4    8 ar
     6    5    7 2
     7    5   13 1
     8    6    7 1
     9    6    8 ar
    10    7    9 1
    11    8   13 1
    12    9   10 1
    13    9   12 2
    14   11   13 1
    15   12   14 1
    16    1   15 1
    17    2   16 1
    18    3   17 1
    19    4   18 1
    20    5   19 1
    21   10   20 1
    22   10   21 1
    23   10   22 1
    24   11   23 1
    25   11   24 1
    26   11   25 1
    27   14   26 1
@<TRIPOS>Similarity
1.3984
@<TRIPOS>ShapeSim
0.8996
@<TRIPOS>PharmSim
0.4988
# END
# Name:		AA-516/12432460
# Created and modified by SHAFTS on Sun Jan  8 14:48:48 2012

# 

@<TRIPOS>MOLECULE
AA-516/12432460
   35    36     0
SMALL
USER_CHARGE


@<TRIPOS>ATOM
      1 C1          5.7049   -4.1337    1.4333 C.ar      1 <1>        -0.0883
      2 C2          7.0493   -3.8377    1.2585 C.ar      1 <1>        -0.0853
      3 C3          4.7645   -3.1059    1.5423 C.ar      1 <1>        -0.0862
      4 C4          7.4827   -2.5124    1.1889 C.ar      1 <1>        -0.0730
      5 C5          5.1793    0.5905    1.4497 C.2       1 <1>        -0.0011
      6 C6          5.1722   -1.7515    1.4757 C.ar      1 <1>        -0.0723
      7 C7          4.4061   -0.5407    1.5605 C.2       1 <1>        -0.0104
      8 C8          6.5321   -1.4785    1.2991 C.ar      1 <1>        -0.0126
      9 C9          2.9780   -0.4646    1.7425 C.2       1 <1>         0.0586
     10 C10         2.6535    0.5411   -1.6712 C.3       1 <1>        -0.0697
     11 C11        -0.6573   -1.8373   -0.1086 C.3       1 <1>        -0.0687
     12 C12         2.0339   -1.0989    0.7105 C.3       1 <1>         0.0000
     13 C13         1.7998    1.0479   -0.5294 C.3       1 <1>        -0.1036
     14 C14         0.1128   -0.7576   -0.8370 C.3       1 <1>        -0.1040
     15 N1          1.0908   -0.1166    0.1155 N.4       1 <1>         0.4173
     16 O1          2.4758    0.1151    2.7348 O.2       1 <1>        -0.4600
     17 S1          6.8299    0.2189    1.2427 S.3       1 <1>        -0.0788
     18 H1          5.3801   -5.1690    1.4876 H         1 <1>         0.1309
     19 H2          7.7727   -4.6442    1.1756 H         1 <1>         0.1407
     20 H3          3.7160   -3.3586    1.6802 H         1 <1>         0.1411
     21 H4          8.5371   -2.2895    1.0528 H         1 <1>         0.1423
     22 H5          4.8561    1.6221    1.4801 H         1 <1>         0.1913
     23 H6          3.4154   -0.1490   -1.2961 H         1 <1>         0.0657
     24 H7          2.0482    0.0073   -2.4113 H         1 <1>         0.0424
     25 H8          3.1643    1.3654   -2.1798 H         1 <1>         0.0471
     26 H9          0.0258   -2.6160    0.2445 H         1 <1>         0.0467
     27 H10        -1.1843   -1.4299    0.7604 H         1 <1>         0.0464
     28 H11        -1.3966   -2.3078   -0.7654 H         1 <1>         0.0659
     29 H12         1.4168   -1.8630    1.1894 H         1 <1>         0.1199
     30 H13         2.6119   -1.5092   -0.1211 H         1 <1>         0.1339
     31 H14         1.0288    1.7409   -0.8773 H         1 <1>         0.0865
     32 H15         2.4045    1.5254    0.2466 H         1 <1>         0.0910
     33 H16        -0.5473    0.0345   -1.2010 H         1 <1>         0.0891
     34 H17         0.6944   -1.1663   -1.6679 H         1 <1>         0.0856
     35 H18         0.5251    0.2809    0.8839 H         1 <1>         0.1715
@<TRIPOS>BOND
     1    1    2 ar
     2    1    3 ar
     3    2    4 ar
     4    3    6 ar
     5    4    8 ar
     6    5    7 2
     7    5   17 1
     8    6    7 1
     9    6    8 ar
    10    7    9 1
    11    8   17 1
    12    9   12 1
    13    9   16 2
    14   10   13 1
    15   11   14 1
    16   12   15 1
    17   13   15 1
    18   14   15 1
    19    1   18 1
    20    2   19 1
    21    3   20 1
    22    4   21 1
    23    5   22 1
    24   10   23 1
    25   10   24 1
    26   10   25 1
    27   11   26 1
    28   11   27 1
    29   11   28 1
    30   12   29 1
    31   12   30 1
    32   13   31 1
    33   13   32 1
    34   14   33 1
    35   14   34 1
    36   15   35 1
@<TRIPOS>Similarity
1.3980
@<TRIPOS>ShapeSim
0.8561
@<TRIPOS>PharmSim
0.5419
# END
# Name:		AF-399/13479018
# Created and modified by SHAFTS on Sun Jan  8 14:48:48 2012

# 

@<TRIPOS>MOLECULE
AF-399/13479018
   29    31     0
SMALL
USER_CHARGE


@<TRIPOS>ATOM
      1 C1          6.1471   -4.0369    1.3982 C.ar      1 <1>        -0.1063
      2 C2          7.4488   -3.5403    1.3954 C.ar      1 <1>        -0.1038
      3 C3          5.0494   -3.1689    1.3984 C.ar      1 <1>        -0.0932
      4 C4          7.6950   -2.1646    1.3940 C.ar      1 <1>        -0.0790
      5 C5          5.2711   -1.7768    1.3951 C.ar      1 <1>        -0.0755
      6 C6          4.4227   -0.6337    1.3945 C.2       1 <1>        -0.0964
      7 C7          6.5891   -1.3069    1.3947 C.ar      1 <1>        -0.0695
      8 C8          5.2342    0.4811    1.4008 C.2       1 <1>        -0.0929
      9 C9          2.9345   -0.5385    1.4125 C.3       1 <1>        -0.0471
     10 C10         4.7870    1.8974    1.3822 C.3       1 <1>        -0.0261
     11 C11         3.2913    1.9761    1.7426 C.3       1 <1>        -0.0530
     12 C12         2.4574    0.8847    1.0256 C.3       1 <1>        -0.0661
     13 C13         0.9709    1.0499    1.3343 C.3       1 <1>        -0.0685
     14 N1          6.5362    0.0709    1.3965 N.pl3     1 <1>        -0.3760
     15 H1          5.9808   -5.1109    1.3997 H         1 <1>         0.1052
     16 H2          8.2868   -4.2326    1.3955 H         1 <1>         0.1156
     17 H3          4.0403   -3.5712    1.4007 H         1 <1>         0.1310
     18 H4          8.7095   -1.7800    1.3931 H         1 <1>         0.1231
     19 H5          2.4999   -1.2714    0.7228 H         1 <1>         0.0678
     20 H6          2.5837   -0.7904    2.4215 H         1 <1>         0.0678
     21 H7          5.3697    2.5037    2.0842 H         1 <1>         0.0802
     22 H8          4.9418    2.3089    0.3777 H         1 <1>         0.0770
     23 H9          3.1754    1.8610    2.8288 H         1 <1>         0.0551
     24 H10         2.9142    2.9738    1.4879 H         1 <1>         0.0518
     25 H11         2.5950    1.0133   -0.0571 H         1 <1>         0.0537
     26 H12         0.7999    0.9279    2.4027 H         1 <1>         0.0331
     27 H13         0.3959    0.3000    0.7934 H         1 <1>         0.0331
     28 H14         0.6387    2.0414    1.0309 H         1 <1>         0.0336
     29 H15         7.3424    0.6809    1.3928 H         1 <1>         0.3254
@<TRIPOS>BOND
     1    1    2 ar
     2    1    3 ar
     3    2    4 ar
     4    3    5 ar
     5    4    7 ar
     6    5    6 1
     7    5    7 ar
     8    6    8 2
     9    6    9 1
    10    7   14 1
    11    8   10 1
    12    8   14 1
    13    9   12 1
    14   10   11 1
    15   11   12 1
    16   12   13 1
    17    1   15 1
    18    2   16 1
    19    3   17 1
    20    4   18 1
    21    9   19 1
    22    9   20 1
    23   10   21 1
    24   10   22 1
    25   11   23 1
    26   11   24 1
    27   12   25 1
    28   13   26 1
    29   13   27 1
    30   13   28 1
    31   14   29 1
@<TRIPOS>Similarity
1.3977
@<TRIPOS>ShapeSim
0.8749
@<TRIPOS>PharmSim
0.5228
# END
# Name:		AE-641/00345020
# Created and modified by SHAFTS on Sun Jan  8 14:48:48 2012

# 

@<TRIPOS>MOLECULE
AE-641/00345020
   23    23     0
SMALL
USER_CHARGE


@<TRIPOS>ATOM
      1 C1          5.0545   -3.2462    1.2454 C.ar      1 <1>        -0.0522
      2 C2          6.3027   -1.2017    1.5603 C.ar      1 <1>        -0.0486
      3 C3          6.2485   -3.9620    1.1599 C.ar      1 <1>        -0.1585
      4 C4          7.4968   -1.9177    1.4749 C.ar      1 <1>        -0.1614
      5 C5          5.0815   -1.8660    1.4455 C.ar      1 <1>        -0.1720
      6 C6          7.4697   -3.2979    1.2747 C.ar      1 <1>         0.1285
      7 C7          3.8368   -1.1194    1.5349 C.2       1 <1>         0.3907
      8 C8          2.8828    1.4477   -0.0564 C.2       1 <1>         0.4601
      9 C9          2.8509   -1.1245    0.3500 C.3       1 <1>        -0.1360
     10 C10         2.0649    0.1727    0.1835 C.3       1 <1>        -0.1499
     11 O1          3.6935    1.7787    0.8513 O.co2     1 <1>        -0.5000
     12 O2          3.5583   -0.4666    2.5610 O.2       1 <1>        -0.4547
     13 O3          2.6326    2.0219   -1.1557 O.co2     1 <1>        -0.5000
     14 O4          8.6350   -3.9961    1.1910 O.3       1 <1>        -0.4998
     15 H1          4.1088   -3.7745    1.1548 H         1 <1>         0.1439
     16 H2          6.3346   -0.1265    1.7167 H         1 <1>         0.1373
     17 H3          6.2209   -5.0370    1.0037 H         1 <1>         0.1347
     18 H4          8.4451   -1.3948    1.5647 H         1 <1>         0.1321
     19 H5          2.1567   -1.9617    0.4811 H         1 <1>         0.0901
     20 H6          3.4390   -1.2892   -0.5602 H         1 <1>         0.0991
     21 H7          1.4850    0.3439    1.0994 H         1 <1>         0.0700
     22 H8          1.3431    0.0696   -0.6363 H         1 <1>         0.0698
     23 H9          8.4527   -4.9391    1.0516 H         1 <1>         0.3928
@<TRIPOS>BOND
     1    1    3 ar
     2    1    5 ar
     3    2    4 ar
     4    2    5 ar
     5    3    6 ar
     6    4    6 ar
     7    5    7 1
     8    6   14 1
     9    7    9 1
    10    7   12 2
    11    8   10 1
    12    8   11 1
    13    8   13 2
    14    9   10 1
    15    1   15 1
    16    2   16 1
    17    3   17 1
    18    4   18 1
    19    9   19 1
    20    9   20 1
    21   10   21 1
    22   10   22 1
    23   14   23 1
@<TRIPOS>Similarity
1.3976
@<TRIPOS>ShapeSim
0.9069
@<TRIPOS>PharmSim
0.4907
# END
# Name:		Building
# Created and modified by SHAFTS on Sun Jan  8 14:48:48 2012

# 

@<TRIPOS>MOLECULE
Building
   28    30     0
SMALL
USER_CHARGE


@<TRIPOS>ATOM
      1 C1          7.0815   -2.5860    2.3867 C.ar      1 <1>        -0.1388
      2 C2          7.1885   -3.5563    1.3926 C.ar      1 <1>        -0.0845
      3 C3          6.0193   -1.6750    2.3871 C.ar      1 <1>        -0.0636
      4 C4          6.2402   -3.6479    0.3700 C.ar      1 <1>        -0.1316
      5 C5          5.0502   -1.7453    1.3660 C.ar      1 <1>        -0.0984
      6 C6          3.8733   -1.0077    1.0578 C.2       1 <1>        -0.1430
      7 C7          5.1823   -2.7315    0.3811 C.ar      1 <1>         0.1098
      8 C8          3.3299   -1.5594   -0.0817 C.2       1 <1>         0.0158
      9 C9          2.9801    1.8655   -0.0405 C.2       1 <1>         0.4572
     10 C10         3.2324    0.1444    1.7603 C.3       1 <1>        -0.0497
     11 C11         2.1070   -1.0891   -0.7647 C.3       1 <1>         0.0790
     12 C12         2.2342    0.8901    0.8514 C.3       1 <1>        -0.0142
     13 N1          4.1204   -2.5934   -0.4883 N.pl3     1 <1>        -0.5742
     14 N2          1.3624   -0.1015    0.1088 N.4       1 <1>        -0.4927
     15 O1          2.4426    2.0915   -1.1600 O.co2     1 <1>        -0.5000
     16 O2          4.0465    2.3268    0.4546 O.co2     1 <1>        -0.5000
     17 H1          7.8313   -2.5346    3.1718 H         1 <1>         0.1293
     18 H2          8.0226   -4.2532    1.4111 H         1 <1>         0.1315
     19 H3          5.9489   -0.9250    3.1698 H         1 <1>         0.1286
     20 H4          6.3254   -4.4040   -0.4034 H         1 <1>         0.1246
     21 H5          2.7113   -0.2119    2.6600 H         1 <1>         0.1196
     22 H6          4.0234    0.8267    2.1057 H         1 <1>         0.0975
     23 H7          2.3242   -0.5694   -1.7033 H         1 <1>         0.1403
     24 H8          1.4157   -1.9175   -0.9544 H         1 <1>         0.1365
     25 H9          1.5115    1.4841    1.4849 H         1 <1>         0.1393
     26 H10         3.9573   -3.1731   -1.3004 H         1 <1>         0.4198
     27 H11         0.6878    0.4213   -0.4771 H         1 <1>         0.4408
     28 H12         0.7800   -0.6241    0.7858 H         1 <1>         0.4349
@<TRIPOS>BOND
     1    1    2 ar
     2    1    3 ar
     3    2    4 ar
     4    3    5 ar
     5    4    7 ar
     6    5    6 1
     7    5    7 ar
     8    6    8 2
     9    6   10 1
    10    7   13 1
    11    8   11 1
    12    8   13 1
    13    9   12 1
    14    9   15 1
    15    9   16 2
    16   10   12 1
    17   11   14 1
    18   12   14 1
    19    1   17 1
    20    2   18 1
    21    3   19 1
    22    4   20 1
    23   10   21 1
    24   10   22 1
    25   11   23 1
    26   11   24 1
    27   12   25 1
    28   13   26 1
    29   14   27 1
    30   14   28 1
@<TRIPOS>Similarity
1.3951
@<TRIPOS>ShapeSim
0.7801
@<TRIPOS>PharmSim
0.6150
# END
# Name:		AK-918/40711939
# Created and modified by SHAFTS on Sun Jan  8 14:48:48 2012

# 

@<TRIPOS>MOLECULE
AK-918/40711939
   25    26     0
SMALL
USER_CHARGE


@<TRIPOS>ATOM
      1 C1          6.3327   -3.9512    1.9523 C.ar      1 <1>        -0.0785
      2 C2          5.1416   -3.3095    1.6127 C.ar      1 <1>        -0.1570
      3 C3          7.5497   -3.2850    1.8074 C.ar      1 <1>        -0.1473
      4 C4          6.3846   -1.3356    0.9833 C.ar      1 <1>        -0.1577
      5 C5          5.1676   -2.0018    1.1282 C.ar      1 <1>         0.1909
      6 C6          7.5755   -1.9773    1.3228 C.ar      1 <1>        -0.0053
      7 C7          2.8644   -1.0840    1.6375 C.2       1 <1>         0.5200
      8 C8          2.9528    1.4280   -0.2697 C.2       1 <1>         0.4745
      9 C9          1.7679   -0.4524    0.8080 C.3       1 <1>        -0.1264
     10 C10         3.6600   -0.9270   -0.5805 C.3       1 <1>         0.1063
     11 C11         2.4686   -0.0014   -0.4567 C.3       1 <1>        -0.1406
     12 N1          3.9478   -1.3465    0.7800 N.am      1 <1>        -0.5599
     13 O1          3.7199    1.6128    0.7155 O.co2     1 <1>        -0.5000
     14 O2          2.7230   -1.3340    2.8260 O.2       1 <1>        -0.5198
     15 O3          2.5233    2.2493   -1.1277 O.co2     1 <1>        -0.5000
     16 Cl1         9.0770   -1.1553    1.1441 Cl        1 <1>        -0.0728
     17 H1          6.3124   -4.9696    2.3296 H         1 <1>         0.1349
     18 H2          4.1992   -3.8388    1.7298 H         1 <1>         0.1350
     19 H3          8.4694   -3.7978    2.0764 H         1 <1>         0.1306
     20 H4          6.4010   -0.3156    0.6055 H         1 <1>         0.1657
     21 H5          1.0193   -1.2219    0.5924 H         1 <1>         0.1093
     22 H6          1.3041    0.3680    1.3632 H         1 <1>         0.1075
     23 H7          3.4048   -1.8223   -1.1589 H         1 <1>         0.0806
     24 H8          4.5430   -0.4493   -1.0184 H         1 <1>         0.1012
     25 H9          1.8185   -0.0243   -1.3360 H         1 <1>         0.0937
@<TRIPOS>BOND
     1    1    2 ar
     2    1    3 ar
     3    2    5 ar
     4    3    6 ar
     5    4    5 ar
     6    4    6 ar
     7    5   12 1
     8    6   16 1
     9    7    9 1
    10    7   12 am
    11    7   14 2
    12    8   11 1
    13    8   13 1
    14    8   15 2
    15    9   11 1
    16   10   11 1
    17   10   12 1
    18    1   17 1
    19    2   18 1
    20    3   19 1
    21    4   20 1
    22    9   21 1
    23    9   22 1
    24   10   23 1
    25   10   24 1
    26   11   25 1
@<TRIPOS>Similarity
1.3943
@<TRIPOS>ShapeSim
0.8407
@<TRIPOS>PharmSim
0.5537
# END
# Name:		AB-337/13036099
# Created and modified by SHAFTS on Sun Jan  8 14:48:48 2012

# 

@<TRIPOS>MOLECULE
AB-337/13036099
   38    40     0
SMALL
USER_CHARGE


@<TRIPOS>ATOM
      1 C1          6.1487   -4.0350    1.3945 C.ar      1 <1>        -0.1052
      2 C2          7.4507   -3.5419    1.3955 C.ar      1 <1>        -0.1023
      3 C3          5.0545   -3.1623    1.3959 C.ar      1 <1>        -0.0946
      4 C4          7.6969   -2.1668    1.3968 C.ar      1 <1>        -0.0798
      5 C5          5.2769   -1.7677    1.3985 C.ar      1 <1>        -0.0758
      6 C6          4.4127   -0.6161    1.3994 C.2       1 <1>        -0.0956
      7 C7          6.5903   -1.3097    1.3971 C.ar      1 <1>        -0.0701
      8 C8          5.2317    0.5119    1.3901 C.2       1 <1>        -0.0915
      9 C9          2.9131   -0.6956    1.3919 C.3       1 <1>        -0.0476
     10 C10         5.0162    2.0022    1.3964 C.3       1 <1>        -0.0280
     11 C11         2.3516   -0.8932   -0.0218 C.3       1 <1>        -0.0655
     12 C12         3.6516    2.5179    0.9464 C.3       1 <1>        -0.0568
     13 C13         1.0142   -0.2029   -0.2927 C.3       1 <1>        -0.0740
     14 C14         3.3356    2.2131   -0.5199 C.3       1 <1>        -0.0742
     15 C15         0.9140    1.3082   -0.0489 C.3       1 <1>        -0.0764
     16 C16         1.8422    2.2202   -0.8633 C.3       1 <1>        -0.0764
     17 N1          6.5344    0.0595    1.3965 N.pl3     1 <1>        -0.3759
     18 H1          5.9781   -5.1081    1.3921 H         1 <1>         0.1089
     19 H2          8.2876   -4.2348    1.3964 H         1 <1>         0.1193
     20 H3          4.0447   -3.5638    1.3942 H         1 <1>         0.1241
     21 H4          8.7109   -1.7813    1.3978 H         1 <1>         0.1176
     22 H5          2.6024   -1.5366    2.0094 H         1 <1>         0.0713
     23 H6          2.4840    0.1903    1.8484 H         1 <1>         0.0626
     24 H7          5.2693    2.4190    2.3883 H         1 <1>         0.0710
     25 H8          5.7872    2.4504    0.7346 H         1 <1>         0.0834
     26 H9          3.0801   -0.5147   -0.7491 H         1 <1>         0.0408
     27 H10         2.2532   -1.9678   -0.2142 H         1 <1>         0.0481
     28 H11         2.8885    2.0945    1.5763 H         1 <1>         0.0652
     29 H12         3.6372    3.5904    1.0650 H         1 <1>         0.0394
     30 H13         0.6937   -0.4673   -1.3268 H         1 <1>         0.0421
     31 H14         0.2340   -0.7000    0.3343 H         1 <1>         0.0371
     32 H15         3.7880    3.0133   -1.1055 H         1 <1>         0.0409
     33 H16         3.8188    1.2988   -0.8371 H         1 <1>         0.0376
     34 H17        -0.1340    1.6140   -0.2643 H         1 <1>         0.0365
     35 H18         1.0212    1.5572    1.0228 H         1 <1>         0.0413
     36 H19         1.4646    3.2510   -0.7906 H         1 <1>         0.0370
     37 H20         1.7386    1.9409   -1.9231 H         1 <1>         0.0421
     38 H21         7.3473    0.6668    1.3939 H         1 <1>         0.3235
@<TRIPOS>BOND
     1    1    2 ar
     2    1    3 ar
     3    2    4 ar
     4    3    5 ar
     5    4    7 ar
     6    5    6 1
     7    5    7 ar
     8    6    8 2
     9    6    9 1
    10    7   17 1
    11    8   10 1
    12    8   17 1
    13    9   11 1
    14   10   12 1
    15   11   13 1
    16   12   14 1
    17   13   15 1
    18   14   16 1
    19   15   16 1
    20    1   18 1
    21    2   19 1
    22    3   20 1
    23    4   21 1
    24    9   22 1
    25    9   23 1
    26   10   24 1
    27   10   25 1
    28   11   26 1
    29   11   27 1
    30   12   28 1
    31   12   29 1
    32   13   30 1
    33   13   31 1
    34   14   32 1
    35   14   33 1
    36   15   34 1
    37   15   35 1
    38   16   36 1
    39   16   37 1
    40   17   38 1
@<TRIPOS>Similarity
1.3943
@<TRIPOS>ShapeSim
0.9212
@<TRIPOS>PharmSim
0.4731
# END
# Name:		AG-670/40727377
# Created and modified by SHAFTS on Sun Jan  8 14:48:48 2012

# 

@<TRIPOS>MOLECULE
AG-670/40727377
   32    33     0
SMALL
USER_CHARGE


@<TRIPOS>ATOM
      1 C1          6.8496   -4.0849    1.3951 C.ar      1 <1>        -0.1006
      2 C2          5.4968   -4.1779    1.0821 C.ar      1 <1>        -0.1021
      3 C3          6.4408    0.7522    1.7239 C.ar      1 <1>        -0.0790
      4 C4          7.4272   -2.8375    1.6339 C.ar      1 <1>        -0.0875
      5 C5          4.7162   -3.0241    1.0067 C.ar      1 <1>        -0.0858
      6 C6          7.2214   -0.4017    1.7995 C.ar      1 <1>        -0.0822
      7 C7          5.0880    0.6591    1.4109 C.ar      1 <1>        -0.0506
      8 C8          6.6566   -1.6655    1.5621 C.ar      1 <1>        -0.0681
      9 C9          5.2809   -1.7602    1.2438 C.ar      1 <1>        -0.0459
     10 C10         4.5103   -0.5882    1.1721 C.ar      1 <1>        -0.0292
     11 C11         0.3257   -1.3112    0.5798 C.2       1 <1>         0.1195
     12 C12         2.3064    0.2537    0.1588 C.2       1 <1>        -0.0068
     13 C13        -1.8792   -0.0932    0.7652 C.3       1 <1>        -0.0408
     14 C14        -1.1520   -1.3129    0.2290 C.3       1 <1>         0.0456
     15 N1          3.1454   -0.6209    0.8624 N.pl3     1 <1>        -0.3192
     16 N2          0.9623   -0.1616    0.0735 N.am      1 <1>        -0.2659
     17 O1          0.8628   -2.2076    1.2232 O.2       1 <1>        -0.4187
     18 S1          2.7068    1.6879   -0.6154 S.2       1 <1>        -0.2707
     19 H1          7.4568   -4.9835    1.4536 H         1 <1>         0.1172
     20 H2          5.0480   -5.1495    0.8966 H         1 <1>         0.1189
     21 H3          6.8902    1.7234    1.9099 H         1 <1>         0.1292
     22 H4          8.4866   -2.7885    1.8767 H         1 <1>         0.1302
     23 H5          3.6634   -3.1396    0.7597 H         1 <1>         0.1140
     24 H6          8.2766   -0.3052    2.0461 H         1 <1>         0.1317
     25 H7          4.4923    1.5670    1.3556 H         1 <1>         0.1532
     26 H8         -1.4441    0.8300    0.3684 H         1 <1>         0.0450
     27 H9         -1.8203   -0.0490    1.8578 H         1 <1>         0.0435
     28 H10        -2.9355   -0.1233    0.4807 H         1 <1>         0.0436
     29 H11        -1.6061   -2.2213    0.6407 H         1 <1>         0.0963
     30 H12        -1.2498   -1.3482   -0.8620 H         1 <1>         0.0963
     31 H13         2.6681   -1.4764    1.1611 H         1 <1>         0.3280
     32 H14         0.3523    0.4728   -0.4372 H         1 <1>         0.3409
@<TRIPOS>BOND
     1    1    2 ar
     2    1    4 ar
     3    2    5 ar
     4    3    6 ar
     5    3    7 ar
     6    4    8 ar
     7    5    9 ar
     8    6    8 ar
     9    7   10 ar
    10    8    9 ar
    11    9   10 ar
    12   10   15 1
    13   11   14 1
    14   11   16 am
    15   11   17 2
    16   12   15 1
    17   12   16 1
    18   12   18 2
    19   13   14 1
    20    1   19 1
    21    2   20 1
    22    3   21 1
    23    4   22 1
    24    5   23 1
    25    6   24 1
    26    7   25 1
    27   13   26 1
    28   13   27 1
    29   13   28 1
    30   14   29 1
    31   14   30 1
    32   15   31 1
    33   16   32 1
@<TRIPOS>Similarity
1.3940
@<TRIPOS>ShapeSim
0.8582
@<TRIPOS>PharmSim
0.5358
# END
# Name:		AI-204/42879119
# Created and modified by SHAFTS on Sun Jan  8 14:48:48 2012

# 

@<TRIPOS>MOLECULE
AI-204/42879119
   33    35     0
SMALL
USER_CHARGE


@<TRIPOS>ATOM
      1 C1          0.5298   -0.6543   -4.6465 C.ar      1 <1>        -0.1020
      2 C2          5.8308   -3.8784    1.3380 C.ar      1 <1>        -0.1028
      3 C3          0.5136    0.6918   -4.2812 C.ar      1 <1>        -0.1000
      4 C4          1.1710   -1.5897   -3.8342 C.ar      1 <1>        -0.0950
      5 C5          7.1894   -3.5681    1.3372 C.ar      1 <1>        -0.1000
      6 C6          4.8648   -2.8660    1.3128 C.ar      1 <1>        -0.0931
      7 C7          1.1385    1.1026   -3.1038 C.ar      1 <1>        -0.0758
      8 C8          1.7961   -1.1788   -2.6568 C.ar      1 <1>        -0.0682
      9 C9          7.6253   -2.2403    1.3113 C.ar      1 <1>        -0.0784
     10 C10         5.5463    0.7243    1.2411 C.2       1 <1>        -0.0658
     11 C11         5.2805   -1.5200    1.2865 C.ar      1 <1>        -0.0717
     12 C12         1.7799    0.1672   -2.2916 C.ar      1 <1>         0.0182
     13 C13         4.5975   -0.2719    1.2576 C.2       1 <1>        -0.0694
     14 C14         6.6484   -1.2387    1.2863 C.ar      1 <1>        -0.0693
     15 C15         2.4456    0.6048   -1.0376 C.2       1 <1>         0.0989
     16 C16         3.1344   -0.0696    1.2486 C.3       1 <1>        -0.0092
     17 N1          6.7802    0.1313    1.2583 N.pl3     1 <1>        -0.3717
     18 N2          2.5361   -0.3499   -0.0382 N.am      1 <1>        -0.3382
     19 O1          2.8510    1.7605   -0.9453 O.2       1 <1>        -0.4842
     20 H1          0.0431   -0.9741   -5.5632 H         1 <1>         0.1239
     21 H2          5.5164   -4.9185    1.3580 H         1 <1>         0.1119
     22 H3          0.0144    1.4200   -4.9138 H         1 <1>         0.1189
     23 H4          1.1834   -2.6377   -4.1185 H         1 <1>         0.1216
     24 H5          7.9225   -4.3703    1.3571 H         1 <1>         0.1218
     25 H6          3.8096   -3.1244    1.3130 H         1 <1>         0.1255
     26 H7          1.1198    2.1541   -2.8287 H         1 <1>         0.1253
     27 H8          2.2928   -1.9165   -2.0318 H         1 <1>         0.1411
     28 H9          8.6829   -1.9997    1.3117 H         1 <1>         0.1200
     29 H10         5.4553    1.8016    1.2171 H         1 <1>         0.1985
     30 H11         2.6260   -0.7170    1.9847 H         1 <1>         0.1202
     31 H12         2.8546    0.9662    1.5088 H         1 <1>         0.1199
     32 H13         7.6610    0.6270    1.2516 H         1 <1>         0.3285
     33 H14         2.1220   -1.2673   -0.1633 H         1 <1>         0.3006
@<TRIPOS>BOND
     1    1    3 ar
     2    1    4 ar
     3    2    5 ar
     4    2    6 ar
     5    3    7 ar
     6    4    8 ar
     7    5    9 ar
     8    6   11 ar
     9    7   12 ar
    10    8   12 ar
    11    9   14 ar
    12   10   13 2
    13   10   17 1
    14   11   13 1
    15   11   14 ar
    16   12   15 1
    17   13   16 1
    18   14   17 1
    19   15   18 am
    20   15   19 2
    21   16   18 1
    22    1   20 1
    23    2   21 1
    24    3   22 1
    25    4   23 1
    26    5   24 1
    27    6   25 1
    28    7   26 1
    29    8   27 1
    30    9   28 1
    31   10   29 1
    32   16   30 1
    33   16   31 1
    34   17   32 1
    35   18   33 1
@<TRIPOS>Similarity
1.3930
@<TRIPOS>ShapeSim
0.7627
@<TRIPOS>PharmSim
0.6303
# END
# Name:		AE-848/36651006
# Created and modified by SHAFTS on Sun Jan  8 14:48:48 2012

# 

@<TRIPOS>MOLECULE
AE-848/36651006
   19    20     0
SMALL
USER_CHARGE


@<TRIPOS>ATOM
      1 C1          4.8696    2.5116    2.5859 C.1       1 <1>         0.1238
      2 C2          6.2229   -4.0746    1.5095 C.ar      1 <1>        -0.1005
      3 C3          7.5003   -3.5338    1.3459 C.ar      1 <1>        -0.1040
      4 C4          5.0975   -3.2477    1.6153 C.ar      1 <1>        -0.0684
      5 C5          7.7003   -2.1508    1.2817 C.ar      1 <1>        -0.0798
      6 C6          5.2800   -1.8558    1.5531 C.ar      1 <1>        -0.0291
      7 C7          6.5652   -1.3467    1.3893 C.ar      1 <1>        -0.0380
      8 C8          5.0576    0.2676    1.5160 C.2       1 <1>         0.0794
      9 C9          4.4643    1.5632    1.5466 C.2       1 <1>         0.2052
     10 N1          5.2114    3.2400    3.4222 N.1       1 <1>        -0.3807
     11 N2          4.3568   -0.8384    1.6297 N.2       1 <1>        -0.3709
     12 N3          3.5522    2.1577    0.7920 N.2       1 <1>        -0.2955
     13 N4          6.3930    0.0136    1.3690 N.pl3     1 <1>        -0.3136
     14 O1          3.0687    1.3908   -0.2361 O.3       1 <1>        -0.4630
     15 H1          6.0993   -5.1538    1.5560 H         1 <1>         0.1100
     16 H2          8.3561   -4.1997    1.2660 H         1 <1>         0.1122
     17 H3          4.1091   -3.6770    1.7418 H         1 <1>         0.1317
     18 H4          8.6903   -1.7283    1.1545 H         1 <1>         0.1210
     19 H5          7.1248    0.7039    1.2638 H         1 <1>         0.3603
@<TRIPOS>BOND
     1    1    9 1
     2    1   10 3
     3    2    3 ar
     4    2    4 ar
     5    3    5 ar
     6    4    6 ar
     7    5    7 ar
     8    6    7 ar
     9    6   11 1
    10    7   13 1
    11    8    9 1
    12    8   11 2
    13    8   13 1
    14    9   12 2
    15   12   14 1
    16    2   15 1
    17    3   16 1
    18    4   17 1
    19    5   18 1
    20   13   19 1
@<TRIPOS>Similarity
1.3928
@<TRIPOS>ShapeSim
0.8285
@<TRIPOS>PharmSim
0.5643
# END
# Name:		AK-918/11907028
# Created and modified by SHAFTS on Sun Jan  8 14:48:48 2012

# 

@<TRIPOS>MOLECULE
AK-918/11907028
   37    39     0
SMALL
USER_CHARGE


@<TRIPOS>ATOM
      1 C1          4.6515   -0.3480    1.5761 C.2       1 <1>         0.5741
      2 C2          3.4883   -2.1700    0.6540 C.2       1 <1>         0.5589
      3 C3          2.9483    1.4898    0.0641 C.2       1 <1>         0.4647
      4 C4          7.5696   -2.8416    0.9564 C.3       1 <1>        -0.1276
      5 C5          6.5480   -3.9554    0.5982 C.3       1 <1>        -0.1272
      6 C6          6.3306   -3.2765    2.8723 C.3       1 <1>        -0.1201
      7 C7          5.5759   -1.5089    1.3674 C.3       1 <1>        -0.1928
      8 C8          4.5715   -2.6394    1.5737 C.3       1 <1>        -0.1170
      9 C9          6.8222   -2.0566    2.0645 C.3       1 <1>        -0.0541
     10 C10         5.4786   -3.8470    1.7077 C.3       1 <1>        -0.0790
     11 C11         1.8063    0.8001    2.9143 C.3       1 <1>        -0.1529
     12 C12         0.0587    0.8623    1.1181 C.3       1 <1>        -0.1401
     13 C13         2.4162    0.1129    0.5209 C.3       1 <1>         0.0942
     14 C14         1.3231    0.1501    1.6129 C.3       1 <1>        -0.0910
     15 N1          3.4885   -0.7805    0.9020 N.am      1 <1>        -0.5813
     16 O1          3.5313    2.1811    0.9456 O.co2     1 <1>        -0.5000
     17 O2          4.9074    0.7191    2.1003 O.2       1 <1>        -0.4795
     18 O3          2.7526   -2.8524   -0.0328 O.2       1 <1>        -0.4640
     19 O4          2.7640    1.7574   -1.1587 O.co2     1 <1>        -0.5000
     20 H1          8.4945   -3.2837    1.3465 H         1 <1>         0.0740
     21 H2          7.8328   -2.2300    0.0873 H         1 <1>         0.0679
     22 H3          6.1157   -3.8125   -0.3974 H         1 <1>         0.0758
     23 H4          7.0440   -4.9319    0.6225 H         1 <1>         0.0648
     24 H5          7.1365   -3.9516    3.1827 H         1 <1>         0.0755
     25 H6          5.7516   -2.9951    3.7587 H         1 <1>         0.0816
     26 H7          5.8344   -1.3764    0.3007 H         1 <1>         0.0951
     27 H8          4.0609   -2.5557    2.5535 H         1 <1>         0.1359
     28 H9          7.4334   -1.3325    2.6035 H         1 <1>         0.1167
     29 H10         4.9562   -4.7808    1.9225 H         1 <1>         0.1095
     30 H11         2.1109    1.8367    2.7334 H         1 <1>         0.0435
     31 H12         2.6681    0.2715    3.3351 H         1 <1>         0.0364
     32 H13         1.0164    0.8170    3.6713 H         1 <1>         0.1074
     33 H14         0.2788    1.9047    0.8631 H         1 <1>         0.0381
     34 H15        -0.7143    0.8666    1.8937 H         1 <1>         0.0535
     35 H16        -0.3555    0.3819    0.2256 H         1 <1>         0.0510
     36 H17         1.9792   -0.3260   -0.3864 H         1 <1>         0.0967
     37 H18         1.0313   -0.8817    1.8484 H         1 <1>         0.0800
@<TRIPOS>BOND
     1    1    7 1
     2    1   15 am
     3    1   17 2
     4    2    8 1
     5    2   15 am
     6    2   18 2
     7    3   13 1
     8    3   16 1
     9    3   19 2
    10    4    5 1
    11    4    9 1
    12    5   10 1
    13    6    9 1
    14    6   10 1
    15    7    8 1
    16    7    9 1
    17    8   10 1
    18   11   14 1
    19   12   14 1
    20   13   14 1
    21   13   15 1
    22    4   20 1
    23    4   21 1
    24    5   22 1
    25    5   23 1
    26    6   24 1
    27    6   25 1
    28    7   26 1
    29    8   27 1
    30    9   28 1
    31   10   29 1
    32   11   30 1
    33   11   31 1
    34   11   32 1
    35   12   33 1
    36   12   34 1
    37   12   35 1
    38   13   36 1
    39   14   37 1
@<TRIPOS>Similarity
1.3914
@<TRIPOS>ShapeSim
0.8278
@<TRIPOS>PharmSim
0.5636
# END
