@<TRIPOS>MOLECULE
AD-266/41884718
 34 35 0 0 0
SMALL
USER_CHARGES

@<TRIPOS>ATOM
      1 C           5.8285   -4.0060    1.3152 C.ar    1  LIG1       -0.1012
      2 C           7.1943   -3.7319    1.3510 C.ar    1  LIG1       -0.0957
      3 C           4.8891   -2.9685    1.3290 C.ar    1  LIG1       -0.0967
      4 C           7.6644   -2.4165    1.4017 C.ar    1  LIG1       -0.0747
      5 C           5.6633    0.6015    1.4569 C.ar    1  LIG1       -0.0740
      6 C           5.3394   -1.6343    1.3799 C.ar    1  LIG1       -0.0832
      7 C           4.6891   -0.3688    1.4066 C.ar    1  LIG1       -0.1007
      8 C           6.7139   -1.3896    1.4150 C.ar    1  LIG1       -0.0690
      9 C           1.3057    2.3447   -0.0700 C.3     1  LIG1       -0.0695
     10 C           0.3965   -0.2523   -1.2028 C.3     1  LIG1       -0.0926
     11 C           3.2321   -0.1278    1.3863 C.3     1  LIG1       -0.0546
     12 C           0.7699    1.2124    0.7787 C.3     1  LIG1       -0.1084
     13 C           2.5700   -0.3183    0.0143 C.3     1  LIG1       -0.0961
     14 N           6.8812   -0.0239    1.4613 N.ar    1  LIG1       -0.3706
     15 N           1.1057   -0.1036    0.1209 N.4     1  LIG1        0.4063
     16 H           5.4873   -5.0369    1.2755 H       1  LIG1        0.1166
     17 H           7.9063   -4.5531    1.3397 H       1  LIG1        0.1275
     18 H           3.8279   -3.1985    1.2996 H       1  LIG1        0.1197
     19 H           8.7277   -2.2043    1.4307 H       1  LIG1        0.1257
     20 H           5.6002    1.6806    1.4883 H       1  LIG1        0.1970
     21 H           2.3952    2.2768   -0.1465 H       1  LIG1        0.0634
     22 H           0.8925    2.3096   -1.0834 H       1  LIG1        0.0455
     23 H           1.0570    3.3180    0.3657 H       1  LIG1        0.0454
     24 H           0.7831    0.5143   -1.8767 H       1  LIG1        0.0782
     25 H           0.6074   -1.2532   -1.5843 H       1  LIG1        0.0780
     26 H          -0.6723   -0.1167   -1.0263 H       1  LIG1        0.0782
     27 H           2.7298   -0.8168    2.0911 H       1  LIG1        0.0788
     28 H           2.9827    0.8824    1.7625 H       1  LIG1        0.0787
     29 H          -0.3187    1.2566    0.8715 H       1  LIG1        0.0847
     30 H           1.2265    1.2007    1.7722 H       1  LIG1        0.0859
     31 H           2.7047   -1.3375   -0.3600 H       1  LIG1        0.0916
     32 H           2.9427    0.3928   -0.7291 H       1  LIG1        0.0907
     33 H           7.7743    0.4480    1.4939 H       1  LIG1        0.3331
     34 H           0.7201   -0.8402    0.7363 H       1  LIG1        0.1619
@<TRIPOS>BOND
     1     1     2   ar
     2     1     3   ar
     3     2     4   ar
     4     3     6   ar
     5     4     8   ar
     6     5     7   ar
     7     5    14   ar
     8     6     7   ar
     9     6     8   ar
    10     7    11    1
    11     8    14   ar
    12     9    12    1
    13    10    15    1
    14    11    13    1
    15    12    15    1
    16    13    15    1
    17     1    16    1
    18     2    17    1
    19     3    18    1
    20     4    19    1
    21     5    20    1
    22     9    21    1
    23     9    22    1
    24     9    23    1
    25    10    24    1
    26    10    25    1
    27    10    26    1
    28    11    27    1
    29    11    28    1
    30    12    29    1
    31    12    30    1
    32    13    31    1
    33    13    32    1
    34    14    33    1
    35    15    34    1
