@<TRIPOS>MOLECULE
AF-407/34872003
 25 25 0 0 0
SMALL
USER_CHARGES

@<TRIPOS>ATOM
      1 C           2.5411    1.2392   -0.3805 C.1     1  LIG1        0.0243
      2 C           6.1091   -3.8653    1.0199 C.ar    1  LIG1       -0.0949
      3 C           7.5512   -2.0526    1.7065 C.ar    1  LIG1       -0.0982
      4 C           5.0497   -2.9690    0.8786 C.ar    1  LIG1       -0.0676
      5 C           6.4919   -1.1563    1.5651 C.ar    1  LIG1       -0.0728
      6 C           7.3598   -3.4072    1.4339 C.ar    1  LIG1       -0.1165
      7 C           5.2411   -1.6145    1.1513 C.ar    1  LIG1       -0.0549
      8 C           2.8633   -0.9871    0.6079 C.2     1  LIG1        0.1235
      9 C           8.4924   -4.3656    1.5849 C.3     1  LIG1       -0.0449
     10 C           1.9941    0.2665    0.5763 C.3     1  LIG1        0.0359
     11 N           2.9720    2.0108   -1.1328 N.1     1  LIG1       -0.3787
     12 N           0.6595   -0.1669    0.1697 N.3     1  LIG1        0.3248
     13 N           4.1818   -0.7177    1.0098 N.am    1  LIG1       -0.3054
     14 O           2.4073   -2.0856    0.2974 O.2     1  LIG1       -0.4508
     15 H           5.9504   -4.9193    0.8074 H       1  LIG1        0.1233
     16 H           8.5222   -1.6871    2.0302 H       1  LIG1        0.1232
     17 H           4.0793   -3.3370    0.5550 H       1  LIG1        0.1340
     18 H           6.6517   -0.1029    1.7813 H       1  LIG1        0.1252
     19 H           9.0485   -4.4513    0.6433 H       1  LIG1        0.0562
     20 H           9.1869   -4.0411    2.3706 H       1  LIG1        0.0528
     21 H           8.1345   -5.3636    1.8697 H       1  LIG1        0.0529
     22 H           1.9324    0.7302    1.5663 H       1  LIG1        0.1926
     23 H           0.0541    0.5074   -0.2452 H       1  LIG1       -0.0050
     24 H           0.3321   -1.0482    0.5008 H       1  LIG1       -0.0041
     25 H           4.3926    0.2631    1.2268 H       1  LIG1        0.3253
@<TRIPOS>BOND
     1     1    10    1
     2     1    11    3
     3     2     4   ar
     4     2     6   ar
     5     3     5   ar
     6     3     6   ar
     7     4     7   ar
     8     5     7   ar
     9     6     9    1
    10     7    13    1
    11     8    10    1
    12     8    13   am
    13     8    14    2
    14    10    12    1
    15     2    15    1
    16     3    16    1
    17     4    17    1
    18     5    18    1
    19     9    19    1
    20     9    20    1
    21     9    21    1
    22    10    22    1
    23    12    23    1
    24    12    24    1
    25    13    25    1
