@<TRIPOS>MOLECULE
AH-262/34227019
 29 30 0 0 0
SMALL
USER_CHARGES

@<TRIPOS>ATOM
      1 C           2.5108    1.1551   -0.1106 C.1     1  LIG1        0.0698
      2 C           6.0662   -3.8158    0.6263 C.ar    1  LIG1       -0.0973
      3 C           7.3673   -3.3236    0.5460 C.ar    1  LIG1       -0.0957
      4 C           4.9952   -2.9644    0.9216 C.ar    1  LIG1       -0.0833
      5 C           7.6400   -1.9691    0.7575 C.ar    1  LIG1       -0.0738
      6 C           5.2456   -1.5949    1.1387 C.ar    1  LIG1       -0.0525
      7 C           4.4257   -0.4743    1.4504 C.ar    1  LIG1        0.0068
      8 C           6.5596   -1.1298    1.0519 C.ar    1  LIG1       -0.0527
      9 C           5.2426    0.6288    1.5452 C.ar    1  LIG1        0.0507
     10 C           3.0249   -0.4577    1.6374 C.2     1  LIG1        0.0043
     11 C           2.0905    0.2759    0.9324 C.2     1  LIG1        0.1614
     12 C           0.6401    0.1410    1.3052 C.2     1  LIG1        0.1142
     13 C           4.3767    2.2272    3.0784 C.3     1  LIG1        0.0415
     14 N           2.8497    1.8714   -0.9585 N.1     1  LIG1       -0.3849
     15 N           6.5277    0.2235    1.3030 N.ar    1  LIG1       -0.3273
     16 N          -0.0475   -0.8348    0.6193 N.am    1  LIG1       -0.3428
     17 O           0.1071    0.8466    2.1590 O.2     1  LIG1       -0.4839
     18 O           4.9864    1.9024    1.8116 O.3     1  LIG1       -0.3759
     19 H           5.8789   -4.8731    0.4579 H       1  LIG1        0.1210
     20 H           8.1841   -4.0027    0.3148 H       1  LIG1        0.1245
     21 H           3.9875   -3.3659    0.9805 H       1  LIG1        0.1335
     22 H           8.6532   -1.5868    0.6943 H       1  LIG1        0.1252
     23 H           2.6344   -1.0973    2.4591 H       1  LIG1        0.2075
     24 H           4.2309    3.3081    3.1470 H       1  LIG1        0.0945
     25 H           5.0200    1.8833    3.8923 H       1  LIG1        0.0952
     26 H           3.4082    1.7262    3.1456 H       1  LIG1        0.1348
     27 H           7.3356    0.8302    1.3076 H       1  LIG1        0.3359
     28 H           0.3701   -1.4304   -0.0877 H       1  LIG1        0.2716
     29 H          -1.0319   -0.9954    0.8074 H       1  LIG1        0.2777
@<TRIPOS>BOND
     1     1    11    1
     2     1    14    3
     3     2     3   ar
     4     2     4   ar
     5     3     5   ar
     6     4     6   ar
     7     5     8   ar
     8     6     7   ar
     9     6     8   ar
    10     7     9   ar
    11     7    10    1
    12     8    15   ar
    13     9    15   ar
    14     9    18    1
    15    10    11    2
    16    11    12    1
    17    12    16   am
    18    12    17    2
    19    13    18    1
    20     2    19    1
    21     3    20    1
    22     4    21    1
    23     5    22    1
    24    10    23    1
    25    13    24    1
    26    13    25    1
    27    13    26    1
    28    15    27    1
    29    16    28    1
    30    16    29    1
