@<TRIPOS>MOLECULE
AA-516/30040028
 19 19 0 0 0
SMALL
USER_CHARGES

@<TRIPOS>ATOM
      1 C           6.7139   -3.5046    0.8105 C.ar    1  LIG1       -0.1833
      2 C           5.3643   -3.0709    0.6668 C.ar    1  LIG1       -0.0782
      3 C           7.4417   -2.6685    1.6284 C.ar    1  LIG1       -0.1972
      4 C           5.1119   -1.9199    1.3806 C.ar    1  LIG1       -0.2577
      5 C           3.8388   -1.1504    1.4955 C.2     1  LIG1        0.4257
      6 C           2.9063    1.4098   -0.0509 C.2     1  LIG1        0.4601
      7 C           2.8667   -1.1672    0.3233 C.3     1  LIG1       -0.1362
      8 C           2.0848    0.1351    0.1781 C.3     1  LIG1       -0.1484
      9 O           3.7240    1.7261    0.8559 O.co2   1  LIG1       -0.5000
     10 O           3.6108   -0.5205    2.5255 O.2     1  LIG1       -0.4495
     11 O           2.6517    1.9988   -1.1414 O.co2   1  LIG1       -0.5000
     12 S           6.4987   -1.3670    2.2192 S.2     1  LIG1        0.1805
     13 H           7.1300   -4.3843    0.3370 H       1  LIG1        0.1357
     14 H           4.6200   -3.5817    0.0687 H       1  LIG1        0.1450
     15 H           8.4822   -2.7596    1.9064 H       1  LIG1        0.1882
     16 H           2.1699   -2.0036    0.4456 H       1  LIG1        0.0898
     17 H           3.4504   -1.3214   -0.5916 H       1  LIG1        0.0989
     18 H           1.5113    0.2969    1.0995 H       1  LIG1        0.0709
     19 H           1.3576    0.0452   -0.6386 H       1  LIG1        0.0707
@<TRIPOS>BOND
     1     1     2   ar
     2     1     3   ar
     3     2     4   ar
     4     3    12   ar
     5     4     5    1
     6     4    12   ar
     7     5     7    1
     8     5    10    2
     9     6     8    1
    10     6     9   ar
    11     6    11   ar
    12     7     8    1
    13     1    13    1
    14     2    14    1
    15     3    15    1
    16     7    16    1
    17     7    17    1
    18     8    18    1
    19     8    19    1
