@<TRIPOS>MOLECULE
AI-204/31682059
 23 24 0 0 0
SMALL
USER_CHARGES

@<TRIPOS>ATOM
      1 C           7.7804   -3.5230    1.1615 C.ar    1  LIG1       -0.0991
      2 C           6.6128   -4.2434    1.3981 C.ar    1  LIG1       -0.1150
      3 C           7.7500   -2.1291    1.1616 C.ar    1  LIG1       -0.1245
      4 C           5.4144   -3.5709    1.6407 C.ar    1  LIG1       -0.0647
      5 C           6.5457   -1.4496    1.3827 C.ar    1  LIG1        0.1146
      6 C           5.3726   -2.1707    1.6322 C.ar    1  LIG1       -0.1174
      7 C           5.4819    0.7825    1.4421 C.2     1  LIG1        0.2822
      8 C           3.5564    1.2969   -1.1201 C.2     1  LIG1        0.4726
      9 C           4.1037    0.2132    1.1513 C.3     1  LIG1       -0.0375
     10 C           3.8914    0.0224   -0.3513 C.3     1  LIG1       -0.1485
     11 N           6.5757   -0.0422    1.3965 N.am    1  LIG1       -0.5813
     12 O           2.4963    1.8998   -0.7977 O.co2   1  LIG1       -0.5000
     13 O           4.4097    1.5935   -2.0059 O.co2   1  LIG1       -0.5000
     14 S           5.6871    2.4330    1.6942 S.2     1  LIG1       -0.4276
     15 S           3.8425   -1.3535    2.0313 S.3     1  LIG1       -0.0407
     16 H           8.7150   -4.0459    0.9813 H       1  LIG1        0.1314
     17 H           6.6366   -5.3292    1.4042 H       1  LIG1        0.1328
     18 H           8.6720   -1.5811    0.9823 H       1  LIG1        0.1308
     19 H           4.5193   -4.1553    1.8415 H       1  LIG1        0.1390
     20 H           3.3336    0.9018    1.5185 H       1  LIG1        0.1606
     21 H           3.0793   -0.6936   -0.4960 H       1  LIG1        0.0862
     22 H           4.8003   -0.4100   -0.7754 H       1  LIG1        0.0676
     23 H           7.4927    0.3967    1.4122 H       1  LIG1        0.4208
@<TRIPOS>BOND
     1     1     2   ar
     2     1     3   ar
     3     2     4   ar
     4     3     5   ar
     5     4     6   ar
     6     5     6   ar
     7     5    11    1
     8     6    15    1
     9     7     9    1
    10     7    11    1
    11     7    14    2
    12     8    10    1
    13     8    12   ar
    14     8    13   ar
    15     9    10    1
    16     9    15    1
    17     1    16    1
    18     2    17    1
    19     3    18    1
    20     4    19    1
    21     9    20    1
    22    10    21    1
    23    10    22    1
    24    11    23    1
