@<TRIPOS>MOLECULE
AI-204/31682052
 31 32 0 0 0
SMALL
USER_CHARGES

@<TRIPOS>ATOM
      1 C           7.9452   -3.1959    1.6776 C.ar    1  LIG1       -0.0911
      2 C           6.9054   -4.1126    1.8112 C.ar    1  LIG1       -0.0924
      3 C           7.6617   -1.8503    1.4467 C.ar    1  LIG1       -0.0665
      4 C           5.5806   -3.6842    1.7197 C.ar    1  LIG1       -0.0782
      5 C           6.3346   -1.4187    1.3307 C.ar    1  LIG1       -0.0434
      6 C           5.2881   -2.3365    1.4767 C.ar    1  LIG1       -0.0269
      7 C           4.8873    0.5380    0.8234 C.2     1  LIG1        0.1118
      8 C           2.3271    1.1261   -1.0702 C.2     1  LIG1        0.0870
      9 C           3.7820   -0.3904    0.3434 C.3     1  LIG1        0.1245
     10 C           1.6265    1.0665   -3.4731 C.3     1  LIG1       -0.0216
     11 C           1.3799   -0.9582   -2.0906 C.3     1  LIG1       -0.0226
     12 C           2.4440    0.3306    0.2204 C.3     1  LIG1        0.0896
     13 N           6.1018   -0.0446    1.1280 N.am    1  LIG1       -0.3057
     14 N           1.7988    0.4394   -2.1684 N.am    1  LIG1       -0.3684
     15 O           4.7473    1.7633    0.8295 O.2     1  LIG1       -0.4689
     16 O           2.6864    2.3055   -1.1154 O.2     1  LIG1       -0.4805
     17 S           3.5909   -1.8049    1.4568 S.3     1  LIG1       -0.1500
     18 H           8.9760   -3.5280    1.7587 H       1  LIG1        0.1316
     19 H           7.1254   -5.1597    1.9977 H       1  LIG1        0.1253
     20 H           8.4848   -1.1459    1.3522 H       1  LIG1        0.1298
     21 H           4.7846   -4.4144    1.8464 H       1  LIG1        0.1410
     22 H           4.0713   -0.7625   -0.6471 H       1  LIG1        0.1691
     23 H           2.5269    0.9300   -4.0775 H       1  LIG1        0.0906
     24 H           1.4402    2.1375   -3.3560 H       1  LIG1        0.0898
     25 H           0.7786    0.6188   -3.9987 H       1  LIG1        0.0996
     26 H           0.3272   -1.0195   -1.8025 H       1  LIG1        0.0844
     27 H           1.9796   -1.4919   -1.3482 H       1  LIG1        0.0926
     28 H           1.5081   -1.4458   -3.0608 H       1  LIG1        0.0969
     29 H           2.3381    1.0126    1.0691 H       1  LIG1        0.1156
     30 H           1.6440   -0.4148    0.2522 H       1  LIG1        0.1082
     31 H           6.8968    0.5772    1.2504 H       1  LIG1        0.3287
@<TRIPOS>BOND
     1     1     2   ar
     2     1     3   ar
     3     2     4   ar
     4     3     5   ar
     5     4     6   ar
     6     5     6   ar
     7     5    13    1
     8     6    17    1
     9     7     9    1
    10     7    13   am
    11     7    15    2
    12     8    12    1
    13     8    14   am
    14     8    16    2
    15     9    12    1
    16     9    17    1
    17    10    14    1
    18    11    14    1
    19     1    18    1
    20     2    19    1
    21     3    20    1
    22     4    21    1
    23     9    22    1
    24    10    23    1
    25    10    24    1
    26    10    25    1
    27    11    26    1
    28    11    27    1
    29    11    28    1
    30    12    29    1
    31    12    30    1
    32    13    31    1
