@<TRIPOS>MOLECULE
ZINC13123191
 29 31 0 0 0
SMALL
USER_CHARGES

@<TRIPOS>ATOM
      1 C           6.1967   -4.0882    1.3788 C.ar    1  LIG1       -0.1025
      2 C           7.4541   -3.5906    1.7145 C.ar    1  LIG1       -0.0997
      3 C           5.1409   -3.2214    1.0747 C.ar    1  LIG1       -0.0882
      4 C           7.6974   -2.2148    1.7561 C.ar    1  LIG1       -0.0744
      5 C           5.3604   -1.8302    1.1132 C.ar    1  LIG1       -0.0657
      6 C           4.5557   -0.6868    0.8701 C.ar    1  LIG1       -0.0750
      7 C           6.6338   -1.3580    1.4505 C.ar    1  LIG1       -0.0604
      8 C           5.3314    0.4326    1.0723 C.ar    1  LIG1       -0.0275
      9 C           4.8084    1.7612    0.9033 C.2     1  LIG1       -0.0191
     10 C           2.6075    0.8268    0.9776 C.3     1  LIG1       -0.0143
     11 C           3.1339   -0.5306    0.4504 C.3     1  LIG1       -0.0302
     12 C           5.7617    2.9210    0.8306 C.3     1  LIG1        0.0109
     13 C           2.9888   -0.6201   -1.0704 C.3     1  LIG1       -0.0563
     14 N           3.5362    1.9703    0.7917 N.2     1  LIG1       -0.4224
     15 N           6.5899    0.0205    1.4068 N.ar    1  LIG1       -0.3578
     16 H           6.0325   -5.1622    1.3511 H       1  LIG1        0.1090
     17 H           8.2604   -4.2824    1.9452 H       1  LIG1        0.1200
     18 H           4.1666   -3.6239    0.8129 H       1  LIG1        0.1334
     19 H           8.6781   -1.8296    2.0147 H       1  LIG1        0.1279
     20 H           1.6555    1.0728    0.4930 H       1  LIG1        0.1112
     21 H           2.3974    0.7458    2.0521 H       1  LIG1        0.0983
     22 H           2.5287   -1.3295    0.8969 H       1  LIG1        0.0844
     23 H           6.0440    3.0904   -0.2050 H       1  LIG1        0.0855
     24 H           6.6469    2.6975    1.4205 H       1  LIG1        0.0791
     25 H           5.2791    3.8093    1.2297 H       1  LIG1        0.0808
     26 H           3.5798    0.1622   -1.5413 H       1  LIG1        0.0393
     27 H           1.9439   -0.4960   -1.3464 H       1  LIG1        0.0413
     28 H           3.3383   -1.5909   -1.4151 H       1  LIG1        0.0348
     29 H           7.3727    0.6286    1.6043 H       1  LIG1        0.3373
@<TRIPOS>BOND
     1     1     2   ar
     2     1     3   ar
     3     2     4   ar
     4     3     5   ar
     5     4     7   ar
     6     5     6   ar
     7     5     7   ar
     8     6     8   ar
     9     6    11    1
    10     7    15   ar
    11     8     9    1
    12     8    15   ar
    13     9    12    1
    14     9    14    2
    15    10    11    1
    16    10    14    1
    17    11    13    1
    18     1    16    1
    19     2    17    1
    20     3    18    1
    21     4    19    1
    22    10    20    1
    23    10    21    1
    24    11    22    1
    25    12    23    1
    26    12    24    1
    27    12    25    1
    28    13    26    1
    29    13    27    1
    30    13    28    1
    31    15    29    1
