@<TRIPOS>MOLECULE
AQ-776/42801706
 27 29 0 0 0
SMALL
USER_CHARGES

@<TRIPOS>ATOM
      1 C           1.6911    3.2422   -0.8439 C.ar    1  LIG1       -0.1017
      2 C           6.1443   -4.0350    1.3961 C.ar    1  LIG1       -0.1009
      3 C           7.4473   -3.5413    1.3964 C.ar    1  LIG1       -0.0988
      4 C           2.8641    2.5473   -1.1382 C.ar    1  LIG1       -0.0982
      5 C           0.8198    2.7580    0.1319 C.ar    1  LIG1       -0.0985
      6 C           5.0484   -3.1644    1.3960 C.ar    1  LIG1       -0.0880
      7 C           7.6970   -2.1660    1.3964 C.ar    1  LIG1       -0.0755
      8 C           3.1660    1.3683   -0.4566 C.ar    1  LIG1       -0.0878
      9 C           1.1216    1.5790    0.8134 C.ar    1  LIG1       -0.0883
     10 C           5.2309    0.4863    1.3966 C.ar    1  LIG1       -0.0648
     11 C           5.2754   -1.7738    1.3961 C.ar    1  LIG1       -0.0595
     12 C           6.5918   -1.3076    1.3964 C.ar    1  LIG1       -0.0635
     13 C           2.2947    0.8841    0.5191 C.ar    1  LIG1       -0.0497
     14 C           4.4277   -0.6308    1.3960 C.ar    1  LIG1       -0.0338
     15 N           6.5345    0.0680    1.3965 N.ar    1  LIG1       -0.3716
     16 S           2.6829   -0.6332    1.3953 S.3     1  LIG1       -0.1544
     17 H           1.4566    4.1601   -1.3749 H       1  LIG1        0.1244
     18 H           5.9755   -5.1087    1.3959 H       1  LIG1        0.1130
     19 H           8.2839   -4.2355    1.3974 H       1  LIG1        0.1234
     20 H           3.5426    2.9239   -1.8981 H       1  LIG1        0.1197
     21 H          -0.0934    3.2997    0.3606 H       1  LIG1        0.1194
     22 H           4.0401   -3.5686    1.3952 H       1  LIG1        0.1294
     23 H           8.7120   -1.7826    1.3979 H       1  LIG1        0.1209
     24 H           4.0849    0.8404   -0.7001 H       1  LIG1        0.1350
     25 H           0.4301    1.2173    1.5704 H       1  LIG1        0.1338
     26 H           4.9969    1.5422    1.3956 H       1  LIG1        0.1879
     27 H           7.3386    0.6801    1.3959 H       1  LIG1        0.3281
@<TRIPOS>BOND
     1     1     4   ar
     2     1     5   ar
     3     2     3   ar
     4     2     6   ar
     5     3     7   ar
     6     4     8   ar
     7     5     9   ar
     8     6    11   ar
     9     7    12   ar
    10     8    13   ar
    11     9    13   ar
    12    10    14   ar
    13    10    15   ar
    14    11    12   ar
    15    11    14   ar
    16    12    15   ar
    17    13    16    1
    18    14    16    1
    19     1    17    1
    20     2    18    1
    21     3    19    1
    22     4    20    1
    23     5    21    1
    24     6    22    1
    25     7    23    1
    26     8    24    1
    27     9    25    1
    28    10    26    1
    29    15    27    1
