@<TRIPOS>MOLECULE
AA-516/30012046
 42 43 0 0 0
SMALL
USER_CHARGES

@<TRIPOS>ATOM
      1 C           2.9914    1.6543   -0.0178 C.2     1  LIG1        0.4631
      2 C           5.0294    0.3145    1.5246 C.3     1  LIG1       -0.1185
      3 C           4.8806   -0.9430   -0.6331 C.3     1  LIG1       -0.1103
      4 C           3.8056   -1.8657    1.4290 C.3     1  LIG1       -0.1185
      5 C           6.3279   -0.4287    1.8674 C.3     1  LIG1       -0.1013
      6 C           6.1777   -1.6880   -0.2893 C.3     1  LIG1       -0.1011
      7 C           5.1037   -2.6086    1.7743 C.3     1  LIG1       -0.1013
      8 C           4.1102   -0.5668    0.6513 C.3     1  LIG1       -0.0302
      9 C           6.3315   -1.8396    1.2398 C.3     1  LIG1       -0.0537
     10 C           9.9058   -7.0639    1.8516 C.3     1  LIG1       -0.1519
     11 C           2.8169    0.1741    0.3083 C.3     1  LIG1       -0.1515
     12 C           7.6250   -2.5804    1.5820 C.3     1  LIG1       -0.1052
     13 C           8.6189   -6.3281    1.5138 C.3     1  LIG1       -0.1269
     14 C           7.4699   -4.0837    1.3762 C.3     1  LIG1       -0.1250
     15 C           8.7554   -4.8241    1.7494 C.3     1  LIG1       -0.1185
     16 O           3.4617    2.3910    0.8917 O.co2   1  LIG1       -0.5000
     17 O           2.6327    1.9602   -1.1919 O.co2   1  LIG1       -0.5000
     18 H           4.5174    0.6000    2.4523 H       1  LIG1        0.1011
     19 H           5.2711    1.2506    1.0053 H       1  LIG1        0.0407
     20 H           5.1201   -0.0430   -1.2137 H       1  LIG1        0.0534
     21 H           4.2597   -1.5728   -1.2828 H       1  LIG1        0.0534
     22 H           3.1553   -2.5230    0.8381 H       1  LIG1        0.0407
     23 H           3.2581   -1.6403    2.3529 H       1  LIG1        0.1011
     24 H           7.1862    0.1526    1.5075 H       1  LIG1        0.0472
     25 H           6.4347   -0.4929    2.9577 H       1  LIG1        0.0586
     26 H           6.1720   -2.6727   -0.7735 H       1  LIG1        0.0531
     27 H           7.0330   -1.1434   -0.7090 H       1  LIG1        0.0531
     28 H           5.1737   -2.7339    2.8622 H       1  LIG1        0.0586
     29 H           5.0690   -3.6196    1.3491 H       1  LIG1        0.0472
     30 H          10.7420   -6.6868    1.2542 H       1  LIG1        0.0509
     31 H          10.1587   -6.9461    2.9102 H       1  LIG1        0.0515
     32 H           9.7960   -8.1332    1.6457 H       1  LIG1        0.0515
     33 H           2.1335    0.0839    1.1556 H       1  LIG1        0.0594
     34 H           2.3550   -0.3184   -0.5502 H       1  LIG1        0.0594
     35 H           7.8873   -2.3655    2.6213 H       1  LIG1        0.0555
     36 H           8.4286   -2.1926    0.9504 H       1  LIG1        0.0555
     37 H           7.8040   -6.7289    2.1278 H       1  LIG1        0.0607
     38 H           8.3600   -6.5191    0.4658 H       1  LIG1        0.0607
     39 H           7.2177   -4.2902    0.3289 H       1  LIG1        0.0657
     40 H           6.6397   -4.4575    1.9880 H       1  LIG1        0.0656
     41 H           8.9942   -4.6373    2.8034 H       1  LIG1        0.0571
     42 H           9.5901   -4.4333    1.1548 H       1  LIG1        0.0571
@<TRIPOS>BOND
     1     1    11    1
     2     1    16   ar
     3     1    17   ar
     4     2     5    1
     5     2     8    1
     6     3     6    1
     7     3     8    1
     8     4     7    1
     9     4     8    1
    10     5     9    1
    11     6     9    1
    12     7     9    1
    13     8    11    1
    14     9    12    1
    15    10    13    1
    16    12    14    1
    17    13    15    1
    18    14    15    1
    19     2    18    1
    20     2    19    1
    21     3    20    1
    22     3    21    1
    23     4    22    1
    24     4    23    1
    25     5    24    1
    26     5    25    1
    27     6    26    1
    28     6    27    1
    29     7    28    1
    30     7    29    1
    31    10    30    1
    32    10    31    1
    33    10    32    1
    34    11    33    1
    35    11    34    1
    36    12    35    1
    37    12    36    1
    38    13    37    1
    39    13    38    1
    40    14    39    1
    41    14    40    1
    42    15    41    1
    43    15    42    1
