@<TRIPOS>MOLECULE
AH-357/02166042
 29 30 0 0 0
SMALL
USER_CHARGES

@<TRIPOS>ATOM
      1 C           6.2703   -3.9581    1.5727 C.ar    1  LIG1       -0.1048
      2 C           7.5280   -3.3616    1.5112 C.ar    1  LIG1       -0.1021
      3 C           5.1062   -3.1853    1.4909 C.ar    1  LIG1       -0.0945
      4 C           7.6633   -1.9779    1.3664 C.ar    1  LIG1       -0.0801
      5 C           4.9865    0.4481    1.1108 C.ar    1  LIG1       -0.0781
      6 C           5.2176   -1.7883    1.3447 C.ar    1  LIG1       -0.0774
      7 C           4.2783   -0.7252    1.2327 C.ar    1  LIG1       -0.0971
      8 C           6.4909   -1.2180    1.2860 C.ar    1  LIG1       -0.0719
      9 C           2.0180    1.0001   -1.0886 C.2     1  LIG1        0.0437
     10 C           2.8063   -0.8468    1.2456 C.3     1  LIG1       -0.0448
     11 C           2.5573   -0.4064   -1.2702 C.3     1  LIG1        0.0385
     12 C           2.2383   -1.3392   -0.1030 C.3     1  LIG1       -0.0351
     13 N           6.3202    0.1407    1.1437 N.ar    1  LIG1       -0.3772
     14 N           0.6460    1.0221   -0.9559 N.am    1  LIG1       -0.3626
     15 O           2.7223    2.0044   -1.0419 O.2     1  LIG1       -0.5062
     16 H           6.1907   -5.0360    1.6850 H       1  LIG1        0.1091
     17 H           8.4190   -3.9809    1.5768 H       1  LIG1        0.1196
     18 H           4.1330   -3.6655    1.5395 H       1  LIG1        0.1246
     19 H           8.6429   -1.5143    1.3197 H       1  LIG1        0.1178
     20 H           4.6621    1.4739    1.0020 H       1  LIG1        0.1869
     21 H           2.4792   -1.5295    2.0533 H       1  LIG1        0.0664
     22 H           2.3328    0.1231    1.4964 H       1  LIG1        0.0661
     23 H           2.0995   -0.8090   -2.1821 H       1  LIG1        0.0942
     24 H           3.6399   -0.3616   -1.4370 H       1  LIG1        0.0944
     25 H           2.6648   -2.3267   -0.3216 H       1  LIG1        0.0552
     26 H           1.1536   -1.4814   -0.0168 H       1  LIG1        0.0563
     27 H           7.0713    0.8133    1.0738 H       1  LIG1        0.3243
     28 H           0.1263    0.1507   -0.9871 H       1  LIG1        0.2676
     29 H           0.1483    1.8969   -0.8274 H       1  LIG1        0.2670
@<TRIPOS>BOND
     1     1     2   ar
     2     1     3   ar
     3     2     4   ar
     4     3     6   ar
     5     4     8   ar
     6     5     7   ar
     7     5    13   ar
     8     6     7   ar
     9     6     8   ar
    10     7    10    1
    11     8    13   ar
    12     9    11    1
    13     9    14   am
    14     9    15    2
    15    10    12    1
    16    11    12    1
    17     1    16    1
    18     2    17    1
    19     3    18    1
    20     4    19    1
    21     5    20    1
    22    10    21    1
    23    10    22    1
    24    11    23    1
    25    11    24    1
    26    12    25    1
    27    12    26    1
    28    13    27    1
    29    14    28    1
    30    14    29    1
