@<TRIPOS>MOLECULE
AK-968/41170120
 34 35 0 0 0
SMALL
USER_CHARGES

@<TRIPOS>ATOM
      1 C           7.6453   -3.8224    1.6065 C.ar    1  LIG1       -0.1029
      2 C           6.4035   -4.3288    1.9786 C.ar    1  LIG1       -0.1014
      3 C           7.7705   -2.4836    1.2344 C.ar    1  LIG1       -0.0933
      4 C           5.2824   -3.4987    1.9801 C.ar    1  LIG1       -0.0880
      5 C           6.7604   -0.2834    0.8583 C.ar    1  LIG1       -0.0861
      6 C           5.6391    0.5469    0.8597 C.ar    1  LIG1       -0.0639
      7 C           4.2720   -1.2985    1.6039 C.ar    1  LIG1       -0.0465
      8 C           6.6526   -1.6335    1.2299 C.ar    1  LIG1       -0.0783
      9 C           5.3900   -2.1486    1.6083 C.ar    1  LIG1       -0.0738
     10 C           4.3974    0.0403    1.2318 C.ar    1  LIG1       -0.0002
     11 C           2.4424    1.0998   -0.9831 C.2     1  LIG1        0.1882
     12 C           2.9949   -0.6448   -4.1548 C.3     1  LIG1       -0.0329
     13 C           0.9330    0.9815    1.0143 C.3     1  LIG1       -0.0020
     14 C           2.8458    0.5606   -3.2513 C.3     1  LIG1        0.0252
     15 C           2.2204    0.4817    0.3824 C.3     1  LIG1        0.1382
     16 O           2.4954    2.3037   -1.1994 O.2     1  LIG1       -0.4413
     17 O           3.3047    0.8516    1.2327 O.3     1  LIG1       -0.3775
     18 O           2.5991    0.1134   -1.9143 O.3     1  LIG1       -0.3568
     19 H           8.5174   -4.4695    1.6050 H       1  LIG1        0.1149
     20 H           6.3064   -5.3712    2.2686 H       1  LIG1        0.1197
     21 H           8.7504   -2.1084    0.9466 H       1  LIG1        0.1257
     22 H           4.3216   -3.9164    2.2740 H       1  LIG1        0.1254
     23 H           7.7210    0.1338    0.5631 H       1  LIG1        0.1371
     24 H           5.7424    1.5886    0.5683 H       1  LIG1        0.1176
     25 H           3.2938   -1.6788    1.8924 H       1  LIG1        0.1348
     26 H           3.8333   -1.2702   -3.8358 H       1  LIG1        0.0495
     27 H           2.0811   -1.2480   -4.1477 H       1  LIG1        0.0496
     28 H           3.1617   -0.3320   -5.1910 H       1  LIG1        0.0603
     29 H           0.9265    2.0717    1.1105 H       1  LIG1        0.0588
     30 H           0.0677    0.6788    0.4149 H       1  LIG1        0.0549
     31 H           0.7946    0.5514    2.0129 H       1  LIG1        0.0647
     32 H           2.0056    1.1818   -3.5758 H       1  LIG1        0.1039
     33 H           3.7599    1.1617   -3.2589 H       1  LIG1        0.1036
     34 H           2.2170   -0.6093    0.2907 H       1  LIG1        0.1726
@<TRIPOS>BOND
     1     1     2   ar
     2     1     3   ar
     3     2     4   ar
     4     3     8   ar
     5     4     9   ar
     6     5     6   ar
     7     5     8   ar
     8     6    10   ar
     9     7     9   ar
    10     7    10   ar
    11     8     9   ar
    12    10    17    1
    13    11    15    1
    14    11    16    2
    15    11    18    1
    16    12    14    1
    17    13    15    1
    18    14    18    1
    19    15    17    1
    20     1    19    1
    21     2    20    1
    22     3    21    1
    23     4    22    1
    24     5    23    1
    25     6    24    1
    26     7    25    1
    27    12    26    1
    28    12    27    1
    29    12    28    1
    30    13    29    1
    31    13    30    1
    32    13    31    1
    33    14    32    1
    34    14    33    1
    35    15    34    1
