@<TRIPOS>MOLECULE
AA-516/31408010
 22 22 0 0 0
SMALL
USER_CHARGES

@<TRIPOS>ATOM
      1 C           7.2353   -3.6374    1.3587 C.ar    1  LIG1       -0.0952
      2 C           7.5953   -2.3810    0.8716 C.ar    1  LIG1       -0.0923
      3 C           5.9413   -3.8580    1.8306 C.ar    1  LIG1       -0.0923
      4 C           6.6614   -1.3450    0.8563 C.ar    1  LIG1       -0.0214
      5 C           5.0073   -2.8221    1.8153 C.ar    1  LIG1       -0.0214
      6 C           5.3674   -1.5656    1.3282 C.ar    1  LIG1        0.2383
      7 C           2.3354    0.6334   -0.4727 C.2     1  LIG1        0.1459
      8 C           3.4070   -0.4067   -0.2743 C.3     1  LIG1        0.3094
      9 N           1.0993    0.1944   -0.0483 N.am    1  LIG1       -0.3484
     10 O           2.5313    1.7402   -0.9657 O.2     1  LIG1       -0.4938
     11 O           3.2033   -0.5479    2.3360 O.2     1  LIG1       -0.1348
     12 O           4.9082    1.0048    1.3219 O.2     1  LIG1       -0.1348
     13 S           4.1996   -0.2676    1.3119 S.O2    1  LIG1       -0.1154
     14 H           7.9622   -4.4443    1.3716 H       1  LIG1        0.1352
     15 H           8.6030   -2.2086    0.5051 H       1  LIG1        0.1240
     16 H           5.6616   -4.8361    2.2104 H       1  LIG1        0.1240
     17 H           6.9526   -0.3698    0.4754 H       1  LIG1        0.1464
     18 H           4.0026   -3.0046    2.1865 H       1  LIG1        0.1464
     19 H           4.1787   -0.2909   -1.0399 H       1  LIG1        0.2267
     20 H           2.9772   -1.4104   -0.3337 H       1  LIG1        0.2267
     21 H           1.0065   -0.7379    0.3422 H       1  LIG1        0.2782
     22 H           0.2812    0.7902   -0.1208 H       1  LIG1        0.2821
@<TRIPOS>BOND
     1     1     2   ar
     2     1     3   ar
     3     2     4   ar
     4     3     5   ar
     5     4     6   ar
     6     5     6   ar
     7     6    13    1
     8     7     8    1
     9     7     9   am
    10     7    10    2
    11     8    13    1
    12    11    13    2
    13    12    13    2
    14     1    14    1
    15     2    15    1
    16     3    16    1
    17     4    17    1
    18     5    18    1
    19     8    19    1
    20     8    20    1
    21     9    21    1
    22     9    22    1
