@<TRIPOS>MOLECULE
ZINC00287726
 34 35 0 0 0
SMALL
USER_CHARGES

@<TRIPOS>ATOM
      1 C           7.7457   -2.4388    1.3916 C.ar    1  LIG1       -0.0502
      2 C           7.5083   -3.8025    1.5862 C.ar    1  LIG1       -0.0399
      3 C           5.1126   -3.4265    1.7133 C.ar    1  LIG1       -0.0302
      4 C           5.2637    0.1938    1.2324 C.ar    1  LIG1       -0.0643
      5 C           5.3273   -2.0476    1.5184 C.ar    1  LIG1       -0.0484
      6 C           4.4721   -0.9133    1.4339 C.ar    1  LIG1       -0.0793
      7 C           6.6362   -1.5865    1.3625 C.ar    1  LIG1       -0.0497
      8 C           6.2130   -4.2910    1.7448 C.ar    1  LIG1        0.0709
      9 C           2.6306    1.1326   -1.5692 C.2     1  LIG1        0.0580
     10 C           2.9643    1.8555   -3.9659 C.3     1  LIG1       -0.0432
     11 C           2.9991   -0.9130    1.5420 C.3     1  LIG1       -0.0218
     12 C           2.9408    0.6944   -2.9885 C.3     1  LIG1        0.0371
     13 C           2.3092    0.1844    0.7114 C.3     1  LIG1       -0.0283
     14 N           6.5674   -0.2223    1.1904 N.ar    1  LIG1       -0.3619
     15 N           2.5819    0.0521   -0.6947 N.am    1  LIG1       -0.3615
     16 N           6.0046   -5.6827    1.9409 N.pl3   1  LIG1       -0.0543
     17 O           6.9984   -6.4475    1.9673 O.2     1  LIG1       -0.1637
     18 O           2.4503    2.3054   -1.2524 O.2     1  LIG1       -0.5000
     19 O           4.8327   -6.1072    2.0822 O.2     1  LIG1       -0.2511
     20 H           8.7545   -2.0594    1.2683 H       1  LIG1        0.1464
     21 H           8.3588   -4.4810    1.6119 H       1  LIG1        0.1635
     22 H           4.1027   -3.8094    1.8371 H       1  LIG1        0.1751
     23 H           5.0183    1.2401    1.1148 H       1  LIG1        0.2030
     24 H           2.0006    2.3754   -3.9824 H       1  LIG1        0.0406
     25 H           3.7370    2.5766   -3.6826 H       1  LIG1        0.0400
     26 H           3.1765    1.5093   -4.9829 H       1  LIG1        0.0409
     27 H           2.6957   -0.7794    2.5992 H       1  LIG1        0.0826
     28 H           2.5735   -1.8953    1.2534 H       1  LIG1        0.0815
     29 H           3.9150    0.1922   -2.9915 H       1  LIG1        0.0916
     30 H           2.1833   -0.0333   -3.3012 H       1  LIG1        0.0923
     31 H           1.2217    0.1393    0.8276 H       1  LIG1        0.0965
     32 H           2.6446    1.1798    1.0208 H       1  LIG1        0.0968
     33 H           7.3645    0.3836    1.0533 H       1  LIG1        0.3380
     34 H           2.7479   -0.8808   -1.0693 H       1  LIG1        0.2933
@<TRIPOS>BOND
     1     1     2   ar
     2     1     7   ar
     3     2     8   ar
     4     3     5   ar
     5     3     8   ar
     6     4     6   ar
     7     4    14   ar
     8     5     6   ar
     9     5     7   ar
    10     6    11    1
    11     7    14   ar
    12     8    16    1
    13     9    12    1
    14     9    15   am
    15     9    18    2
    16    10    12    1
    17    11    13    1
    18    13    15    1
    19    16    17    1
    20    16    19    2
    21     1    20    1
    22     2    21    1
    23     3    22    1
    24     4    23    1
    25    10    24    1
    26    10    25    1
    27    10    26    1
    28    11    27    1
    29    11    28    1
    30    12    29    1
    31    12    30    1
    32    13    31    1
    33    13    32    1
    34    14    33    1
    35    15    34    1
