@<TRIPOS>MOLECULE
AJ-333/36115062
 17 17 0 0 0
SMALL
USER_CHARGES

@<TRIPOS>ATOM
      1 C           6.0247   -3.9187    1.6123 C.ar    1  LIG1       -0.1461
      2 C           4.9778   -3.0056    1.6703 C.ar    1  LIG1       -0.0907
      3 C           7.2791   -3.4459    1.2620 C.ar    1  LIG1        0.0883
      4 C           5.2139   -1.6664    1.3803 C.ar    1  LIG1       -0.1336
      5 C           6.5046   -1.2943    1.0406 C.ar    1  LIG1        0.1786
      6 C           3.3098    1.4895   -0.1319 C.2     1  LIG1        0.4821
      7 C           3.8413    0.0672   -0.2394 C.3     1  LIG1       -0.1630
      8 N           7.5470   -2.1526    0.9737 N.ar    1  LIG1       -0.4625
      9 O           2.6935    1.9127   -1.1512 O.co2   1  LIG1       -0.5000
     10 O           3.5758    2.0838    0.9517 O.co2   1  LIG1       -0.5000
     11 S           3.8461   -0.5262    1.4664 S.3     1  LIG1       -0.0061
     12 CL          6.9571    0.3238    0.6543 Cl      1  LIG1       -0.0185
     13 H           5.8637   -4.9674    1.8347 H       1  LIG1        0.1415
     14 H           3.9866   -3.3589    1.9439 H       1  LIG1        0.1443
     15 H           8.1292   -4.1173    1.2027 H       1  LIG1        0.1627
     16 H           4.8548    0.0502   -0.6488 H       1  LIG1        0.0924
     17 H           3.1932   -0.5588   -0.8591 H       1  LIG1        0.0924
@<TRIPOS>BOND
     1     1     2   ar
     2     1     3   ar
     3     2     4   ar
     4     3     8   ar
     5     4     5   ar
     6     4    11    1
     7     5     8   ar
     8     5    12    1
     9     6     7    1
    10     6     9   ar
    11     6    10   ar
    12     7    11    1
    13     1    13    1
    14     2    14    1
    15     3    15    1
    16     7    16    1
    17     7    17    1
