@<TRIPOS>MOLECULE
AG-205/33105041
 28 29 0 0 0
SMALL
USER_CHARGES

@<TRIPOS>ATOM
      1 C           6.1199   -3.9201    1.2731 C.ar    1  LIG1       -0.0838
      2 C           7.3906   -3.3320    1.2804 C.ar    1  LIG1       -0.0840
      3 C           4.9561   -3.1382    1.3069 C.ar    1  LIG1       -0.0589
      4 C           7.5518   -1.9429    1.3219 C.ar    1  LIG1       -0.0493
      5 C           5.1001   -1.7440    1.3489 C.ar    1  LIG1       -0.0056
      6 C           6.3769   -1.2020    1.3549 C.ar    1  LIG1        0.0478
      7 C           4.9048    0.3549    1.4155 C.ar    1  LIG1        0.1439
      8 C           2.0609    1.1733    0.0406 C.2     1  LIG1        0.0751
      9 C           1.6780    3.9607    1.1530 C.3     1  LIG1       -0.0624
     10 C           1.5606    2.6899    1.9848 C.3     1  LIG1       -0.0243
     11 C           2.4321    1.5364    1.4709 C.3     1  LIG1        0.1186
     12 N           4.1691   -0.7346    1.3881 N.ar    1  LIG1       -0.3524
     13 N           1.1083    0.1800   -0.0405 N.am    1  LIG1       -0.3524
     14 O           2.5745    1.6996   -0.9444 O.2     1  LIG1       -0.4860
     15 O           6.2527    0.1571    1.3979 O.2     1  LIG1       -0.3191
     16 S           4.2064    1.9743    1.4703 S.3     1  LIG1       -0.0167
     17 H           6.0323   -5.0034    1.2415 H       1  LIG1        0.1324
     18 H           8.2721   -3.9679    1.2520 H       1  LIG1        0.1390
     19 H           3.9767   -3.6050    1.2992 H       1  LIG1        0.1481
     20 H           8.5296   -1.4781    1.3256 H       1  LIG1        0.1419
     21 H           1.3865    3.7775    0.1138 H       1  LIG1        0.0374
     22 H           1.0531    4.7657    1.5505 H       1  LIG1        0.0387
     23 H           2.7141    4.3145    1.1549 H       1  LIG1        0.0414
     24 H           1.8635    2.9307    3.0124 H       1  LIG1        0.0610
     25 H           0.5067    2.3898    2.0453 H       1  LIG1        0.0707
     26 H           2.2969    0.6601    2.1149 H       1  LIG1        0.1472
     27 H           0.7194   -0.2381    0.7982 H       1  LIG1        0.2742
     28 H           0.7576   -0.1684   -0.9269 H       1  LIG1        0.2777
@<TRIPOS>BOND
     1     1     2   ar
     2     1     3   ar
     3     2     4   ar
     4     3     5   ar
     5     4     6   ar
     6     5     6   ar
     7     5    12   ar
     8     6    15   ar
     9     7    12   ar
    10     7    15   ar
    11     7    16    1
    12     8    11    1
    13     8    13   am
    14     8    14    2
    15     9    10    1
    16    10    11    1
    17    11    16    1
    18     1    17    1
    19     2    18    1
    20     3    19    1
    21     4    20    1
    22     9    21    1
    23     9    22    1
    24     9    23    1
    25    10    24    1
    26    10    25    1
    27    11    26    1
    28    13    27    1
    29    13    28    1
