@<TRIPOS>MOLECULE
AG-690/08750047
 28 30 0 0 0
SMALL
USER_CHARGES

@<TRIPOS>ATOM
      1 C           2.8954    1.2226    0.7720 C.3     1  LIG1        0.1214
      2 C           4.3238   -1.0073    0.9889 C.3     1  LIG1        0.0447
      3 C           5.3400   -2.0067    1.1960 C.2     1  LIG1       -0.0726
      4 C           6.5427   -1.4496    1.5887 C.2     1  LIG1       -0.0041
      5 C           4.8326    0.2620    1.2533 C.3     1  LIG1        0.0992
      6 C           2.9877   -1.1140    0.5848 C.3     1  LIG1        0.0645
      7 C           5.1847   -3.4867    0.9955 C.3     1  LIG1       -0.0425
      8 C           7.7887   -2.2174    1.9027 C.3     1  LIG1       -0.0168
      9 C           6.3266   -4.2792    1.6502 C.3     1  LIG1       -0.0577
     10 C           7.6940   -3.6490    1.3543 C.3     1  LIG1       -0.0530
     11 N           4.1606    1.4258    1.1626 N.3     1  LIG1       -0.2923
     12 N           2.3339    0.0451    0.4986 N.3     1  LIG1       -0.2849
     13 N           2.3514   -2.3265    0.2737 N.3     1  LIG1       -0.3394
     14 N           0.9188    0.0528    0.0806 N.3     1  LIG1       -0.3402
     15 S           6.4690    0.2416    1.7282 S.3     1  LIG1        0.0004
     16 H           2.2729    2.1049    0.6690 H       1  LIG1        0.3623
     17 H           4.2370   -3.8382    1.4167 H       1  LIG1        0.0770
     18 H           5.1691   -3.6945   -0.0817 H       1  LIG1        0.0696
     19 H           8.6725   -1.7244    1.4819 H       1  LIG1        0.0942
     20 H           7.9165   -2.2542    2.9918 H       1  LIG1        0.0920
     21 H           6.1747   -4.3121    2.7368 H       1  LIG1        0.0522
     22 H           6.3056   -5.3146    1.2919 H       1  LIG1        0.0590
     23 H           7.8557   -3.6386    0.2686 H       1  LIG1        0.0649
     24 H           8.4913   -4.2608    1.7912 H       1  LIG1        0.0545
     25 H           2.8782   -3.1797    0.2917 H       1  LIG1        0.3119
     26 H           1.4035   -2.3167   -0.0541 H       1  LIG1        0.2957
     27 H           0.4684    0.8318    0.5469 H       1  LIG1        0.3262
     28 H           0.5013   -0.8112    0.4064 H       1  LIG1        0.3138
@<TRIPOS>BOND
     1     1    11    1
     2     1    12    1
     3     2     3    1
     4     2     5    1
     5     2     6    1
     6     3     4    2
     7     3     7    1
     8     4     8    1
     9     4    15    1
    10     5    11    1
    11     5    15    1
    12     6    12    1
    13     6    13    1
    14     7     9    1
    15     8    10    1
    16     9    10    1
    17    12    14    1
    18     1    16    1
    19     7    17    1
    20     7    18    1
    21     8    19    1
    22     8    20    1
    23     9    21    1
    24     9    22    1
    25    10    23    1
    26    10    24    1
    27    13    25    1
    28    13    26    1
    29    14    27    1
    30    14    28    1
