@<TRIPOS>MOLECULE
AB-337/13036072
 31 33 0 0 0
SMALL
USER_CHARGES

@<TRIPOS>ATOM
      1 C           6.0995   -4.0118    1.3960 C.ar    1  LIG1       -0.1009
      2 C           7.4218   -3.5721    1.3962 C.ar    1  LIG1       -0.0983
      3 C           5.0404   -3.0969    1.3960 C.ar    1  LIG1       -0.0893
      4 C           7.7277   -2.2082    1.3963 C.ar    1  LIG1       -0.0764
      5 C           5.3726    0.5431    1.3968 C.ar    1  LIG1       -0.0363
      6 C           5.3243   -1.7168    1.3962 C.ar    1  LIG1       -0.0640
      7 C           4.5242   -0.5400    1.3963 C.ar    1  LIG1       -0.0346
      8 C           6.6587   -1.3051    1.3963 C.ar    1  LIG1       -0.0589
      9 C           2.3727    0.1244    0.4243 C.2     1  LIG1        0.0611
     10 C           0.8843    0.1540    0.5488 C.2     1  LIG1        0.0646
     11 C           3.0775    0.7166   -0.7521 C.2     1  LIG1        0.0625
     12 C           3.0960   -0.4473    1.3965 C.2     1  LIG1       -0.0393
     13 C           0.1132    0.8436   -0.5546 C.3     1  LIG1        0.0243
     14 C           2.2214    1.3844   -1.8049 C.3     1  LIG1        0.0245
     15 C           0.9330    1.9401   -1.2176 C.3     1  LIG1       -0.0319
     16 N           6.6578    0.0716    1.3965 N.ar    1  LIG1       -0.3508
     17 O           0.2960   -0.3967    1.4777 O.2     1  LIG1       -0.4787
     18 O           4.2959    0.6300   -0.8946 O.2     1  LIG1       -0.4838
     19 H           5.8868   -5.0776    1.3939 H       1  LIG1        0.1174
     20 H           8.2287   -4.3002    1.3957 H       1  LIG1        0.1220
     21 H           4.0154   -3.4574    1.3953 H       1  LIG1        0.1256
     22 H           8.7575   -1.8665    1.3952 H       1  LIG1        0.1241
     23 H           5.1830    1.6081    1.3977 H       1  LIG1        0.2290
     24 H           2.5529   -0.8929    2.2267 H       1  LIG1        0.1932
     25 H          -0.1534    0.0933   -1.3072 H       1  LIG1        0.0835
     26 H          -0.8104    1.2485   -0.1269 H       1  LIG1        0.0879
     27 H           2.8122    2.1779   -2.2755 H       1  LIG1        0.0857
     28 H           1.9727    0.6388   -2.5683 H       1  LIG1        0.0882
     29 H           0.3408    2.4134   -2.0113 H       1  LIG1        0.0507
     30 H           1.1696    2.7174   -0.4823 H       1  LIG1        0.0582
     31 H           7.4864    0.6504    1.3965 H       1  LIG1        0.3406
@<TRIPOS>BOND
     1     1     2   ar
     2     1     3   ar
     3     2     4   ar
     4     3     6   ar
     5     4     8   ar
     6     5     7   ar
     7     5    16   ar
     8     6     7   ar
     9     6     8   ar
    10     7    12    1
    11     8    16   ar
    12     9    10    1
    13     9    11    1
    14     9    12    2
    15    10    13    1
    16    10    17    2
    17    11    14    1
    18    11    18    2
    19    13    15    1
    20    14    15    1
    21     1    19    1
    22     2    20    1
    23     3    21    1
    24     4    22    1
    25     5    23    1
    26    12    24    1
    27    13    25    1
    28    13    26    1
    29    14    27    1
    30    14    28    1
    31    15    29    1
    32    15    30    1
    33    16    31    1
