@<TRIPOS>MOLECULE
AC-907/34124023
 19 20 0 0 0
SMALL
USER_CHARGES

@<TRIPOS>ATOM
      1 C           6.5040   -4.3077    1.2678 C.ar    1  LIG1       -0.0867
      2 C           7.5998   -3.7309    1.8976 C.ar    1  LIG1       -0.0775
      3 C           5.4397   -3.5044    0.8682 C.ar    1  LIG1       -0.0770
      4 C           7.6292   -2.3530    2.1264 C.ar    1  LIG1       -0.0447
      5 C           4.4121   -1.2865    0.7068 C.ar    1  LIG1       -0.0163
      6 C           5.5981    0.5663    1.5791 C.ar    1  LIG1        0.0259
      7 C           5.4695   -2.1184    1.0985 C.ar    1  LIG1       -0.0296
      8 C           6.5790   -1.5261    1.7373 C.ar    1  LIG1       -0.0138
      9 C           4.4716    0.0785    0.9482 C.ar    1  LIG1        0.1079
     10 N           6.6396   -0.2017    1.9731 N.ar    1  LIG1       -0.3646
     11 N           3.4150    0.9396    0.5616 N.pl3   1  LIG1       -0.0424
     12 O           2.4079    0.4526   -0.0101 O.2     1  LIG1       -0.1487
     13 O           3.5105    2.1693    0.7999 O.2     1  LIG1       -0.2462
     14 H           6.4776   -5.3780    1.0880 H       1  LIG1        0.1333
     15 H           8.4347   -4.3501    2.2127 H       1  LIG1        0.1431
     16 H           4.5868   -3.9658    0.3758 H       1  LIG1        0.1415
     17 H           8.4993   -1.9259    2.6218 H       1  LIG1        0.1521
     18 H           3.5401   -1.7104    0.2114 H       1  LIG1        0.1937
     19 H           5.7111    1.6239    1.7997 H       1  LIG1        0.2496
@<TRIPOS>BOND
     1     1     2   ar
     2     1     3   ar
     3     2     4   ar
     4     3     7   ar
     5     4     8   ar
     6     5     7   ar
     7     5     9   ar
     8     6     9   ar
     9     6    10   ar
    10     7     8   ar
    11     8    10   ar
    12     9    11    1
    13    11    12    1
    14    11    13    2
    15     1    14    1
    16     2    15    1
    17     3    16    1
    18     4    17    1
    19     5    18    1
    20     6    19    1
