@<TRIPOS>MOLECULE
AI-942/13331609
 22 24 0 0 0
SMALL
USER_CHARGES

@<TRIPOS>ATOM
      1 C           6.3238   -4.2319    1.2735 C.ar    1  LIG1       -0.0936
      2 C           7.5350   -3.6947    1.6807 C.ar    1  LIG1       -0.0901
      3 C           5.2307   -3.3966    1.0286 C.ar    1  LIG1       -0.0882
      4 C           2.7678    1.3772    0.7490 C.ar    1  LIG1       -0.0541
      5 C           7.6774   -2.3171    1.8505 C.ar    1  LIG1       -0.0765
      6 C           4.0991    1.4899    1.1511 C.ar    1  LIG1       -0.0681
      7 C           2.9970   -1.0200    0.5922 C.ar    1  LIG1       -0.0530
      8 C           5.3400   -1.9906    1.1916 C.ar    1  LIG1       -0.0703
      9 C           4.3548   -0.9423    0.9990 C.ar    1  LIG1       -0.0651
     10 C           2.2197    0.1347    0.4714 C.ar    1  LIG1       -0.0296
     11 C           6.5718   -1.4787    1.6023 C.ar    1  LIG1       -0.0308
     12 C           4.8791    0.3220    1.2716 C.ar    1  LIG1       -0.0283
     13 O           0.9194    0.0363    0.0793 O.3     1  LIG1       -0.4368
     14 S           6.5245    0.2297    1.7475 S.2     1  LIG1       -0.1254
     15 H           6.2212   -5.3055    1.1442 H       1  LIG1        0.1237
     16 H           8.3812   -4.3496    1.8694 H       1  LIG1        0.1348
     17 H           4.2892   -3.8384    0.7106 H       1  LIG1        0.1299
     18 H           2.1630    2.2755    0.6551 H       1  LIG1        0.1431
     19 H           8.6302   -1.9039    2.1697 H       1  LIG1        0.1372
     20 H           4.5213    2.4677    1.3666 H       1  LIG1        0.1449
     21 H           2.5535   -1.9884    0.3706 H       1  LIG1        0.1381
     22 H           0.6850   -0.8923   -0.0766 H       1  LIG1        0.3578
@<TRIPOS>BOND
     1     1     2   ar
     2     1     3   ar
     3     2     5   ar
     4     3     8   ar
     5     4     6   ar
     6     4    10   ar
     7     5    11   ar
     8     6    12   ar
     9     7     9   ar
    10     7    10   ar
    11     8     9   ar
    12     8    11   ar
    13     9    12   ar
    14    10    13    1
    15    11    14   ar
    16    12    14   ar
    17     1    15    1
    18     2    16    1
    19     3    17    1
    20     4    18    1
    21     5    19    1
    22     6    20    1
    23     7    21    1
    24    13    22    1
