@<TRIPOS>MOLECULE
ZINC00141641
 31 32 0 0 0
SMALL
USER_CHARGES

@<TRIPOS>ATOM
      1 C           5.7444   -3.9370    1.3022 C.ar    1  LIG1       -0.1006
      2 C           4.7887   -2.9145    1.3124 C.ar    1  LIG1       -0.0962
      3 C           7.1055   -3.6414    1.3398 C.ar    1  LIG1       -0.0946
      4 C           5.2177   -1.5733    1.3614 C.ar    1  LIG1       -0.0804
      5 C           7.5548   -2.3186    1.3886 C.ar    1  LIG1       -0.0852
      6 C           4.5475   -0.3181    1.3846 C.ar    1  LIG1       -0.1007
      7 C           6.5881   -1.3068    1.3983 C.ar    1  LIG1       -0.0646
      8 C           5.5061    0.6676    1.4346 C.ar    1  LIG1       -0.0913
      9 C           9.0200   -2.0379    1.4284 C.3     1  LIG1       -0.0363
     10 C           5.3837    2.1376    1.4756 C.3     1  LIG1       -0.0161
     11 C           3.0847   -0.1087    1.3595 C.3     1  LIG1       -0.0573
     12 C           2.4317   -0.3175   -0.0139 C.3     1  LIG1       -0.1127
     13 N           6.7337    0.0615    1.4423 N.ar    1  LIG1       -0.3694
     14 N           0.9627   -0.1345    0.0869 N.4     1  LIG1        0.4451
     15 H           5.4194   -4.9734    1.2646 H       1  LIG1        0.1178
     16 H           3.7313   -3.1615    1.2819 H       1  LIG1        0.1185
     17 H           7.8228   -4.4591    1.3308 H       1  LIG1        0.1269
     18 H           9.4161   -1.9359    0.4110 H       1  LIG1        0.0584
     19 H           9.2328   -1.1134    1.9798 H       1  LIG1        0.0605
     20 H           9.5654   -2.8439    1.9358 H       1  LIG1        0.0479
     21 H           5.3285    2.5031    2.5142 H       1  LIG1        0.0758
     22 H           6.2385    2.6381    0.9894 H       1  LIG1        0.0729
     23 H           4.4823    2.4930    0.9473 H       1  LIG1        0.0781
     24 H           2.5963   -0.8065    2.0648 H       1  LIG1        0.0795
     25 H           2.8135    0.8969    1.7319 H       1  LIG1        0.0779
     26 H           2.5901   -1.3347   -0.3841 H       1  LIG1        0.0877
     27 H           2.7914    0.3992   -0.7584 H       1  LIG1        0.0916
     28 H           7.6203    0.5458    1.4745 H       1  LIG1        0.3325
     29 H           0.6988    0.8345   -0.1198 H       1  LIG1        0.1438
     30 H           0.6298   -0.3586    1.0309 H       1  LIG1        0.1458
     31 H           0.4710   -0.7444   -0.5749 H       1  LIG1        0.1448
@<TRIPOS>BOND
     1     1     2   ar
     2     1     3   ar
     3     2     4   ar
     4     3     5   ar
     5     4     6   ar
     6     4     7   ar
     7     5     7   ar
     8     5     9    1
     9     6     8   ar
    10     6    11    1
    11     7    13   ar
    12     8    10    1
    13     8    13   ar
    14    11    12    1
    15    12    14    1
    16     1    15    1
    17     2    16    1
    18     3    17    1
    19     9    18    1
    20     9    19    1
    21     9    20    1
    22    10    21    1
    23    10    22    1
    24    10    23    1
    25    11    24    1
    26    11    25    1
    27    12    26    1
    28    12    27    1
    29    13    28    1
    30    14    29    1
    31    14    30    1
    32    14    31    1
