@<TRIPOS>MOLECULE
AG-690/12766202
 26 27 0 0 0
SMALL
USER_CHARGES

@<TRIPOS>ATOM
      1 C           6.1035   -4.0564    1.3375 C.ar    1  LIG1       -0.1007
      2 C           7.4016   -3.5696    1.4778 C.ar    1  LIG1       -0.0997
      3 C           5.0147   -3.1804    1.2579 C.ar    1  LIG1       -0.0844
      4 C           7.6534   -2.1962    1.5427 C.ar    1  LIG1       -0.0748
      5 C           5.2049    0.4677    1.3844 C.ar    1  LIG1       -0.0318
      6 C           5.2440   -1.7916    1.3211 C.ar    1  LIG1       -0.0480
      7 C           4.4029   -0.6447    1.2734 C.ar    1  LIG1       -0.0130
      8 C           6.5553   -1.3325    1.4618 C.ar    1  LIG1       -0.0506
      9 C           2.9748   -0.5982    1.1363 C.2     1  LIG1       -0.0091
     10 C           2.0779   -1.2751    2.1924 C.3     1  LIG1        0.0023
     11 C           7.6398    0.9255    1.6338 C.3     1  LIG1       -0.0085
     12 N           2.4163    0.0143    0.1013 N.2     1  LIG1       -0.3335
     13 N           6.5015    0.0428    1.4973 N.ar    1  LIG1       -0.3729
     14 O           1.0218   -0.0542    0.1010 O.2     1  LIG1       -0.3961
     15 H           5.9327   -5.1286    1.2894 H       1  LIG1        0.1126
     16 H           8.2325   -4.2680    1.5378 H       1  LIG1        0.1218
     17 H           4.0088   -3.5756    1.1486 H       1  LIG1        0.1357
     18 H           8.6661   -1.8229    1.6519 H       1  LIG1        0.1198
     19 H           4.9635    1.5226    1.3924 H       1  LIG1        0.2148
     20 H           1.8244   -0.5814    2.9998 H       1  LIG1        0.0723
     21 H           1.1578   -1.6320    1.7210 H       1  LIG1        0.0665
     22 H           2.6002   -2.1192    2.6492 H       1  LIG1        0.0708
     23 H           7.8051    1.1004    2.7002 H       1  LIG1        0.1007
     24 H           8.5193    0.4581    1.1824 H       1  LIG1        0.1081
     25 H           7.4307    1.8672    1.1187 H       1  LIG1        0.1099
     26 H           0.8022    0.4359   -0.7092 H       1  LIG1        0.3877
@<TRIPOS>BOND
     1     1     2   ar
     2     1     3   ar
     3     2     4   ar
     4     3     6   ar
     5     4     8   ar
     6     5     7   ar
     7     5    13   ar
     8     6     7   ar
     9     6     8   ar
    10     7     9    1
    11     8    13   ar
    12     9    10    1
    13     9    12    2
    14    11    13    1
    15    12    14    1
    16     1    15    1
    17     2    16    1
    18     3    17    1
    19     4    18    1
    20     5    19    1
    21    10    20    1
    22    10    21    1
    23    10    22    1
    24    11    23    1
    25    11    24    1
    26    11    25    1
    27    14    26    1
