@<TRIPOS>MOLECULE
AA-516/12432460
 35 36 0 0 0
SMALL
USER_CHARGES

@<TRIPOS>ATOM
      1 C           5.7049   -4.1337    1.4333 C.ar    1  LIG1       -0.0883
      2 C           7.0493   -3.8377    1.2585 C.ar    1  LIG1       -0.0853
      3 C           4.7645   -3.1059    1.5423 C.ar    1  LIG1       -0.0862
      4 C           7.4827   -2.5124    1.1889 C.ar    1  LIG1       -0.0730
      5 C           5.1793    0.5905    1.4497 C.ar    1  LIG1       -0.0011
      6 C           5.1722   -1.7515    1.4757 C.ar    1  LIG1       -0.0723
      7 C           4.4061   -0.5407    1.5605 C.ar    1  LIG1       -0.0104
      8 C           6.5321   -1.4785    1.2991 C.ar    1  LIG1       -0.0126
      9 C           2.9780   -0.4646    1.7425 C.2     1  LIG1        0.0586
     10 C           2.6535    0.5411   -1.6712 C.3     1  LIG1       -0.0697
     11 C          -0.6573   -1.8373   -0.1086 C.3     1  LIG1       -0.0687
     12 C           2.0339   -1.0989    0.7105 C.3     1  LIG1        0.0000
     13 C           1.7998    1.0479   -0.5294 C.3     1  LIG1       -0.1036
     14 C           0.1128   -0.7576   -0.8370 C.3     1  LIG1       -0.1040
     15 N           1.0908   -0.1166    0.1155 N.4     1  LIG1        0.4173
     16 O           2.4758    0.1151    2.7348 O.2     1  LIG1       -0.4600
     17 S           6.8299    0.2189    1.2427 S.2     1  LIG1       -0.0788
     18 H           5.3801   -5.1690    1.4876 H       1  LIG1        0.1309
     19 H           7.7727   -4.6442    1.1756 H       1  LIG1        0.1407
     20 H           3.7160   -3.3586    1.6802 H       1  LIG1        0.1411
     21 H           8.5371   -2.2895    1.0528 H       1  LIG1        0.1423
     22 H           4.8561    1.6221    1.4801 H       1  LIG1        0.1913
     23 H           3.4154   -0.1490   -1.2961 H       1  LIG1        0.0657
     24 H           2.0482    0.0073   -2.4113 H       1  LIG1        0.0424
     25 H           3.1643    1.3654   -2.1798 H       1  LIG1        0.0471
     26 H           0.0258   -2.6160    0.2445 H       1  LIG1        0.0467
     27 H          -1.1843   -1.4299    0.7604 H       1  LIG1        0.0464
     28 H          -1.3966   -2.3078   -0.7654 H       1  LIG1        0.0659
     29 H           1.4168   -1.8630    1.1894 H       1  LIG1        0.1199
     30 H           2.6119   -1.5092   -0.1211 H       1  LIG1        0.1339
     31 H           1.0288    1.7409   -0.8773 H       1  LIG1        0.0865
     32 H           2.4045    1.5254    0.2466 H       1  LIG1        0.0910
     33 H          -0.5473    0.0345   -1.2010 H       1  LIG1        0.0891
     34 H           0.6944   -1.1663   -1.6679 H       1  LIG1        0.0856
     35 H           0.5251    0.2809    0.8839 H       1  LIG1        0.1715
@<TRIPOS>BOND
     1     1     2   ar
     2     1     3   ar
     3     2     4   ar
     4     3     6   ar
     5     4     8   ar
     6     5     7   ar
     7     5    17   ar
     8     6     7   ar
     9     6     8   ar
    10     7     9    1
    11     8    17   ar
    12     9    12    1
    13     9    16    2
    14    10    13    1
    15    11    14    1
    16    12    15    1
    17    13    15    1
    18    14    15    1
    19     1    18    1
    20     2    19    1
    21     3    20    1
    22     4    21    1
    23     5    22    1
    24    10    23    1
    25    10    24    1
    26    10    25    1
    27    11    26    1
    28    11    27    1
    29    11    28    1
    30    12    29    1
    31    12    30    1
    32    13    31    1
    33    13    32    1
    34    14    33    1
    35    14    34    1
    36    15    35    1
