@<TRIPOS>MOLECULE
AE-641/00345020
 23 23 0 0 0
SMALL
USER_CHARGES

@<TRIPOS>ATOM
      1 C           5.0545   -3.2462    1.2454 C.ar    1  LIG1       -0.0522
      2 C           6.3027   -1.2017    1.5603 C.ar    1  LIG1       -0.0486
      3 C           6.2485   -3.9620    1.1599 C.ar    1  LIG1       -0.1585
      4 C           7.4968   -1.9177    1.4749 C.ar    1  LIG1       -0.1614
      5 C           5.0815   -1.8660    1.4455 C.ar    1  LIG1       -0.1720
      6 C           7.4697   -3.2979    1.2747 C.ar    1  LIG1        0.1285
      7 C           3.8368   -1.1194    1.5349 C.2     1  LIG1        0.3907
      8 C           2.8828    1.4477   -0.0564 C.2     1  LIG1        0.4601
      9 C           2.8509   -1.1245    0.3500 C.3     1  LIG1       -0.1360
     10 C           2.0649    0.1727    0.1835 C.3     1  LIG1       -0.1499
     11 O           3.6935    1.7787    0.8513 O.co2   1  LIG1       -0.5000
     12 O           3.5583   -0.4666    2.5610 O.2     1  LIG1       -0.4547
     13 O           2.6326    2.0219   -1.1557 O.co2   1  LIG1       -0.5000
     14 O           8.6350   -3.9961    1.1910 O.3     1  LIG1       -0.4998
     15 H           4.1088   -3.7745    1.1548 H       1  LIG1        0.1439
     16 H           6.3346   -0.1265    1.7167 H       1  LIG1        0.1373
     17 H           6.2209   -5.0370    1.0037 H       1  LIG1        0.1347
     18 H           8.4451   -1.3948    1.5647 H       1  LIG1        0.1321
     19 H           2.1567   -1.9617    0.4811 H       1  LIG1        0.0901
     20 H           3.4390   -1.2892   -0.5602 H       1  LIG1        0.0991
     21 H           1.4850    0.3439    1.0994 H       1  LIG1        0.0700
     22 H           1.3431    0.0696   -0.6363 H       1  LIG1        0.0698
     23 H           8.4527   -4.9391    1.0516 H       1  LIG1        0.3928
@<TRIPOS>BOND
     1     1     3   ar
     2     1     5   ar
     3     2     4   ar
     4     2     5   ar
     5     3     6   ar
     6     4     6   ar
     7     5     7    1
     8     6    14    1
     9     7     9    1
    10     7    12    2
    11     8    10    1
    12     8    11   ar
    13     8    13   ar
    14     9    10    1
    15     1    15    1
    16     2    16    1
    17     3    17    1
    18     4    18    1
    19     9    19    1
    20     9    20    1
    21    10    21    1
    22    10    22    1
    23    14    23    1
