@<TRIPOS>MOLECULE
AK-918/40711939
 25 26 0 0 0
SMALL
USER_CHARGES

@<TRIPOS>ATOM
      1 C           6.3327   -3.9512    1.9523 C.ar    1  LIG1       -0.0785
      2 C           5.1416   -3.3095    1.6127 C.ar    1  LIG1       -0.1570
      3 C           7.5497   -3.2850    1.8074 C.ar    1  LIG1       -0.1473
      4 C           6.3846   -1.3356    0.9833 C.ar    1  LIG1       -0.1577
      5 C           5.1676   -2.0018    1.1282 C.ar    1  LIG1        0.1909
      6 C           7.5755   -1.9773    1.3228 C.ar    1  LIG1       -0.0053
      7 C           2.8644   -1.0840    1.6375 C.2     1  LIG1        0.5200
      8 C           2.9528    1.4280   -0.2697 C.2     1  LIG1        0.4745
      9 C           1.7679   -0.4524    0.8080 C.3     1  LIG1       -0.1264
     10 C           3.6600   -0.9270   -0.5805 C.3     1  LIG1        0.1063
     11 C           2.4686   -0.0014   -0.4567 C.3     1  LIG1       -0.1406
     12 N           3.9478   -1.3465    0.7800 N.am    1  LIG1       -0.5599
     13 O           3.7199    1.6128    0.7155 O.co2   1  LIG1       -0.5000
     14 O           2.7230   -1.3340    2.8260 O.2     1  LIG1       -0.5198
     15 O           2.5233    2.2493   -1.1277 O.co2   1  LIG1       -0.5000
     16 CL          9.0770   -1.1553    1.1441 Cl      1  LIG1       -0.0728
     17 H           6.3124   -4.9696    2.3296 H       1  LIG1        0.1349
     18 H           4.1992   -3.8388    1.7298 H       1  LIG1        0.1350
     19 H           8.4694   -3.7978    2.0764 H       1  LIG1        0.1306
     20 H           6.4010   -0.3156    0.6055 H       1  LIG1        0.1657
     21 H           1.0193   -1.2219    0.5924 H       1  LIG1        0.1093
     22 H           1.3041    0.3680    1.3632 H       1  LIG1        0.1075
     23 H           3.4048   -1.8223   -1.1589 H       1  LIG1        0.0806
     24 H           4.5430   -0.4493   -1.0184 H       1  LIG1        0.1012
     25 H           1.8185   -0.0243   -1.3360 H       1  LIG1        0.0937
@<TRIPOS>BOND
     1     1     2   ar
     2     1     3   ar
     3     2     5   ar
     4     3     6   ar
     5     4     5   ar
     6     4     6   ar
     7     5    12    1
     8     6    16    1
     9     7     9    1
    10     7    12   am
    11     7    14    2
    12     8    11    1
    13     8    13   ar
    14     8    15   ar
    15     9    11    1
    16    10    11    1
    17    10    12    1
    18     1    17    1
    19     2    18    1
    20     3    19    1
    21     4    20    1
    22     9    21    1
    23     9    22    1
    24    10    23    1
    25    10    24    1
    26    11    25    1
