@<TRIPOS>MOLECULE
AB-337/13036099
 38 40 0 0 0
SMALL
USER_CHARGES

@<TRIPOS>ATOM
      1 C           6.1487   -4.0350    1.3945 C.ar    1  LIG1       -0.1052
      2 C           7.4507   -3.5419    1.3955 C.ar    1  LIG1       -0.1023
      3 C           5.0545   -3.1623    1.3959 C.ar    1  LIG1       -0.0946
      4 C           7.6969   -2.1668    1.3968 C.ar    1  LIG1       -0.0798
      5 C           5.2769   -1.7677    1.3985 C.ar    1  LIG1       -0.0758
      6 C           4.4127   -0.6161    1.3994 C.ar    1  LIG1       -0.0956
      7 C           6.5903   -1.3097    1.3971 C.ar    1  LIG1       -0.0701
      8 C           5.2317    0.5119    1.3901 C.ar    1  LIG1       -0.0915
      9 C           2.9131   -0.6956    1.3919 C.3     1  LIG1       -0.0476
     10 C           5.0162    2.0022    1.3964 C.3     1  LIG1       -0.0280
     11 C           2.3516   -0.8932   -0.0218 C.3     1  LIG1       -0.0655
     12 C           3.6516    2.5179    0.9464 C.3     1  LIG1       -0.0568
     13 C           1.0142   -0.2029   -0.2927 C.3     1  LIG1       -0.0740
     14 C           3.3356    2.2131   -0.5199 C.3     1  LIG1       -0.0742
     15 C           0.9140    1.3082   -0.0489 C.3     1  LIG1       -0.0764
     16 C           1.8422    2.2202   -0.8633 C.3     1  LIG1       -0.0764
     17 N           6.5344    0.0595    1.3965 N.ar    1  LIG1       -0.3759
     18 H           5.9781   -5.1081    1.3921 H       1  LIG1        0.1089
     19 H           8.2876   -4.2348    1.3964 H       1  LIG1        0.1193
     20 H           4.0447   -3.5638    1.3942 H       1  LIG1        0.1241
     21 H           8.7109   -1.7813    1.3978 H       1  LIG1        0.1176
     22 H           2.6024   -1.5366    2.0094 H       1  LIG1        0.0713
     23 H           2.4840    0.1903    1.8484 H       1  LIG1        0.0626
     24 H           5.2693    2.4190    2.3883 H       1  LIG1        0.0710
     25 H           5.7872    2.4504    0.7346 H       1  LIG1        0.0834
     26 H           3.0801   -0.5147   -0.7491 H       1  LIG1        0.0408
     27 H           2.2532   -1.9678   -0.2142 H       1  LIG1        0.0481
     28 H           2.8885    2.0945    1.5763 H       1  LIG1        0.0652
     29 H           3.6372    3.5904    1.0650 H       1  LIG1        0.0394
     30 H           0.6937   -0.4673   -1.3268 H       1  LIG1        0.0421
     31 H           0.2340   -0.7000    0.3343 H       1  LIG1        0.0371
     32 H           3.7880    3.0133   -1.1055 H       1  LIG1        0.0409
     33 H           3.8188    1.2988   -0.8371 H       1  LIG1        0.0376
     34 H          -0.1340    1.6140   -0.2643 H       1  LIG1        0.0365
     35 H           1.0212    1.5572    1.0228 H       1  LIG1        0.0413
     36 H           1.4646    3.2510   -0.7906 H       1  LIG1        0.0370
     37 H           1.7386    1.9409   -1.9231 H       1  LIG1        0.0421
     38 H           7.3473    0.6668    1.3939 H       1  LIG1        0.3235
@<TRIPOS>BOND
     1     1     2   ar
     2     1     3   ar
     3     2     4   ar
     4     3     5   ar
     5     4     7   ar
     6     5     6   ar
     7     5     7   ar
     8     6     8   ar
     9     6     9    1
    10     7    17   ar
    11     8    10    1
    12     8    17   ar
    13     9    11    1
    14    10    12    1
    15    11    13    1
    16    12    14    1
    17    13    15    1
    18    14    16    1
    19    15    16    1
    20     1    18    1
    21     2    19    1
    22     3    20    1
    23     4    21    1
    24     9    22    1
    25     9    23    1
    26    10    24    1
    27    10    25    1
    28    11    26    1
    29    11    27    1
    30    12    28    1
    31    12    29    1
    32    13    30    1
    33    13    31    1
    34    14    32    1
    35    14    33    1
    36    15    34    1
    37    15    35    1
    38    16    36    1
    39    16    37    1
    40    17    38    1
