@<TRIPOS>MOLECULE
AG-670/40727377
 32 33 0 0 0
SMALL
USER_CHARGES

@<TRIPOS>ATOM
      1 C           6.8496   -4.0849    1.3951 C.ar    1  LIG1       -0.1006
      2 C           5.4968   -4.1779    1.0821 C.ar    1  LIG1       -0.1021
      3 C           6.4408    0.7522    1.7239 C.ar    1  LIG1       -0.0790
      4 C           7.4272   -2.8375    1.6339 C.ar    1  LIG1       -0.0875
      5 C           4.7162   -3.0241    1.0067 C.ar    1  LIG1       -0.0858
      6 C           7.2214   -0.4017    1.7995 C.ar    1  LIG1       -0.0822
      7 C           5.0880    0.6591    1.4109 C.ar    1  LIG1       -0.0506
      8 C           6.6566   -1.6655    1.5621 C.ar    1  LIG1       -0.0681
      9 C           5.2809   -1.7602    1.2438 C.ar    1  LIG1       -0.0459
     10 C           4.5103   -0.5882    1.1721 C.ar    1  LIG1       -0.0292
     11 C           0.3257   -1.3112    0.5798 C.2     1  LIG1        0.1195
     12 C           2.3064    0.2537    0.1588 C.2     1  LIG1       -0.0068
     13 C          -1.8792   -0.0932    0.7652 C.3     1  LIG1       -0.0408
     14 C          -1.1520   -1.3129    0.2290 C.3     1  LIG1        0.0456
     15 N           3.1454   -0.6209    0.8624 N.am    1  LIG1       -0.3192
     16 N           0.9623   -0.1616    0.0735 N.am    1  LIG1       -0.2659
     17 O           0.8628   -2.2076    1.2232 O.2     1  LIG1       -0.4187
     18 S           2.7068    1.6879   -0.6154 S.2     1  LIG1       -0.2707
     19 H           7.4568   -4.9835    1.4536 H       1  LIG1        0.1172
     20 H           5.0480   -5.1495    0.8966 H       1  LIG1        0.1189
     21 H           6.8902    1.7234    1.9099 H       1  LIG1        0.1292
     22 H           8.4866   -2.7885    1.8767 H       1  LIG1        0.1302
     23 H           3.6634   -3.1396    0.7597 H       1  LIG1        0.1140
     24 H           8.2766   -0.3052    2.0461 H       1  LIG1        0.1317
     25 H           4.4923    1.5670    1.3556 H       1  LIG1        0.1532
     26 H          -1.4441    0.8300    0.3684 H       1  LIG1        0.0450
     27 H          -1.8203   -0.0490    1.8578 H       1  LIG1        0.0435
     28 H          -2.9355   -0.1233    0.4807 H       1  LIG1        0.0436
     29 H          -1.6061   -2.2213    0.6407 H       1  LIG1        0.0963
     30 H          -1.2498   -1.3482   -0.8620 H       1  LIG1        0.0963
     31 H           2.6681   -1.4764    1.1611 H       1  LIG1        0.3280
     32 H           0.3523    0.4728   -0.4372 H       1  LIG1        0.3409
@<TRIPOS>BOND
     1     1     2   ar
     2     1     4   ar
     3     2     5   ar
     4     3     6   ar
     5     3     7   ar
     6     4     8   ar
     7     5     9   ar
     8     6     8   ar
     9     7    10   ar
    10     8     9   ar
    11     9    10   ar
    12    10    15    1
    13    11    14    1
    14    11    16   am
    15    11    17    2
    16    12    15    1
    17    12    16    1
    18    12    18    2
    19    13    14    1
    20     1    19    1
    21     2    20    1
    22     3    21    1
    23     4    22    1
    24     5    23    1
    25     6    24    1
    26     7    25    1
    27    13    26    1
    28    13    27    1
    29    13    28    1
    30    14    29    1
    31    14    30    1
    32    15    31    1
    33    16    32    1
