@<TRIPOS>MOLECULE
AI-204/42879119
 33 35 0 0 0
SMALL
USER_CHARGES

@<TRIPOS>ATOM
      1 C           0.5298   -0.6543   -4.6465 C.ar    1  LIG1       -0.1020
      2 C           5.8308   -3.8784    1.3380 C.ar    1  LIG1       -0.1028
      3 C           0.5136    0.6918   -4.2812 C.ar    1  LIG1       -0.1000
      4 C           1.1710   -1.5897   -3.8342 C.ar    1  LIG1       -0.0950
      5 C           7.1894   -3.5681    1.3372 C.ar    1  LIG1       -0.1000
      6 C           4.8648   -2.8660    1.3128 C.ar    1  LIG1       -0.0931
      7 C           1.1385    1.1026   -3.1038 C.ar    1  LIG1       -0.0758
      8 C           1.7961   -1.1788   -2.6568 C.ar    1  LIG1       -0.0682
      9 C           7.6253   -2.2403    1.3113 C.ar    1  LIG1       -0.0784
     10 C           5.5463    0.7243    1.2411 C.ar    1  LIG1       -0.0658
     11 C           5.2805   -1.5200    1.2865 C.ar    1  LIG1       -0.0717
     12 C           1.7799    0.1672   -2.2916 C.ar    1  LIG1        0.0182
     13 C           4.5975   -0.2719    1.2576 C.ar    1  LIG1       -0.0694
     14 C           6.6484   -1.2387    1.2863 C.ar    1  LIG1       -0.0693
     15 C           2.4456    0.6048   -1.0376 C.2     1  LIG1        0.0989
     16 C           3.1344   -0.0696    1.2486 C.3     1  LIG1       -0.0092
     17 N           6.7802    0.1313    1.2583 N.ar    1  LIG1       -0.3717
     18 N           2.5361   -0.3499   -0.0382 N.am    1  LIG1       -0.3382
     19 O           2.8510    1.7605   -0.9453 O.2     1  LIG1       -0.4842
     20 H           0.0431   -0.9741   -5.5632 H       1  LIG1        0.1239
     21 H           5.5164   -4.9185    1.3580 H       1  LIG1        0.1119
     22 H           0.0144    1.4200   -4.9138 H       1  LIG1        0.1189
     23 H           1.1834   -2.6377   -4.1185 H       1  LIG1        0.1216
     24 H           7.9225   -4.3703    1.3571 H       1  LIG1        0.1218
     25 H           3.8096   -3.1244    1.3130 H       1  LIG1        0.1255
     26 H           1.1198    2.1541   -2.8287 H       1  LIG1        0.1253
     27 H           2.2928   -1.9165   -2.0318 H       1  LIG1        0.1411
     28 H           8.6829   -1.9997    1.3117 H       1  LIG1        0.1200
     29 H           5.4553    1.8016    1.2171 H       1  LIG1        0.1985
     30 H           2.6260   -0.7170    1.9847 H       1  LIG1        0.1202
     31 H           2.8546    0.9662    1.5088 H       1  LIG1        0.1199
     32 H           7.6610    0.6270    1.2516 H       1  LIG1        0.3285
     33 H           2.1220   -1.2673   -0.1633 H       1  LIG1        0.3006
@<TRIPOS>BOND
     1     1     3   ar
     2     1     4   ar
     3     2     5   ar
     4     2     6   ar
     5     3     7   ar
     6     4     8   ar
     7     5     9   ar
     8     6    11   ar
     9     7    12   ar
    10     8    12   ar
    11     9    14   ar
    12    10    13   ar
    13    10    17   ar
    14    11    13   ar
    15    11    14   ar
    16    12    15    1
    17    13    16    1
    18    14    17   ar
    19    15    18   am
    20    15    19    2
    21    16    18    1
    22     1    20    1
    23     2    21    1
    24     3    22    1
    25     4    23    1
    26     5    24    1
    27     6    25    1
    28     7    26    1
    29     8    27    1
    30     9    28    1
    31    10    29    1
    32    16    30    1
    33    16    31    1
    34    17    32    1
    35    18    33    1
