@<TRIPOS>MOLECULE
AE-848/36651006
 19 20 0 0 0
SMALL
USER_CHARGES

@<TRIPOS>ATOM
      1 C           4.8696    2.5116    2.5859 C.1     1  LIG1        0.1238
      2 C           6.2229   -4.0746    1.5095 C.ar    1  LIG1       -0.1005
      3 C           7.5003   -3.5338    1.3459 C.ar    1  LIG1       -0.1040
      4 C           5.0975   -3.2477    1.6153 C.ar    1  LIG1       -0.0684
      5 C           7.7003   -2.1508    1.2817 C.ar    1  LIG1       -0.0798
      6 C           5.2800   -1.8558    1.5531 C.ar    1  LIG1       -0.0291
      7 C           6.5652   -1.3467    1.3893 C.ar    1  LIG1       -0.0380
      8 C           5.0576    0.2676    1.5160 C.ar    1  LIG1        0.0794
      9 C           4.4643    1.5632    1.5466 C.2     1  LIG1        0.2052
     10 N           5.2114    3.2400    3.4222 N.1     1  LIG1       -0.3807
     11 N           4.3568   -0.8384    1.6297 N.ar    1  LIG1       -0.3709
     12 N           3.5522    2.1577    0.7920 N.2     1  LIG1       -0.2955
     13 N           6.3930    0.0136    1.3690 N.ar    1  LIG1       -0.3136
     14 O           3.0687    1.3908   -0.2361 O.2     1  LIG1       -0.4630
     15 H           6.0993   -5.1538    1.5560 H       1  LIG1        0.1100
     16 H           8.3561   -4.1997    1.2660 H       1  LIG1        0.1122
     17 H           4.1091   -3.6770    1.7418 H       1  LIG1        0.1317
     18 H           8.6903   -1.7283    1.1545 H       1  LIG1        0.1210
     19 H           7.1248    0.7039    1.2638 H       1  LIG1        0.3603
@<TRIPOS>BOND
     1     1     9    1
     2     1    10    3
     3     2     3   ar
     4     2     4   ar
     5     3     5   ar
     6     4     6   ar
     7     5     7   ar
     8     6     7   ar
     9     6    11   ar
    10     7    13   ar
    11     8     9    1
    12     8    11   ar
    13     8    13   ar
    14     9    12    2
    15    12    14    1
    16     2    15    1
    17     3    16    1
    18     4    17    1
    19     5    18    1
    20    13    19    1
