@<TRIPOS>MOLECULE
*****
 27 28 0 0 0
SMALL
GASTEIGER

@<TRIPOS>ATOM
      1 N           0.9693   -0.0386    0.0870 N.3     1  TRP11      -0.3181
      2 CA          2.4393   -0.0386    0.0870 C.3     1  TRP11       0.1073
      3 C           2.9333    1.3508   -0.0601 C.2     1  TRP11       0.3220
      4 CB          2.9460   -0.6205    1.3966 C.3     1  TRP11      -0.0001
      5 O           3.6391    1.8470    0.8132 O.2     1  TRP11      -0.2492
      6 OXT         2.6075    2.0703   -1.1537 O.3     1  TRP11      -0.4795
      7 CG          4.4280   -0.6205    1.3966 C.ar    1  TRP11      -0.0204
      8 CD2         5.2884   -1.8026    1.3960 C.ar    1  TRP11       0.0029
      9 CE2         6.6123   -1.3290    1.3956 C.ar    1  TRP11       0.0467
     10 CD1         5.1936    0.4312    1.3969 C.ar    1  TRP11       0.0060
     11 NE1         6.5385    0.0490    1.3965 N.ar    1  TRP11      -0.3604
     12 CZ2         7.6684   -2.2330    1.3951 C.ar    1  TRP11      -0.0378
     13 CH2         7.4154   -3.5864    1.3999 C.ar    1  TRP11      -0.0598
     14 CZ3         6.1039   -4.0620    1.3944 C.ar    1  TRP11      -0.0611
     15 CE3         5.0425   -3.1789    1.3959 C.ar    1  TRP11      -0.0523
     16 H           0.6288    0.3518   -0.7917 H       1  TRP11       0.1190
     17 H           0.6162    0.5043    0.8750 H       1  TRP11       0.1190
     18 H           2.7959   -0.6322   -0.7287 H       1  TRP11       0.0577
     19 H           2.5755   -1.6157    1.5278 H       1  TRP11       0.0334
     20 H           2.5940   -0.0191    2.2086 H       1  TRP11       0.0334
     21 H           2.0688    1.6916   -1.8203 H       1  TRP11       0.2951
     22 H           4.8569    1.4067    1.3974 H       1  TRP11       0.0810
     23 H           7.3079    0.6632    1.3968 H       1  TRP11       0.1653
     24 H           8.6417   -1.8898    1.3911 H       1  TRP11       0.0638
     25 H           8.2021   -4.2543    1.4076 H       1  TRP11       0.0618
     26 H           5.9262   -5.0786    1.3892 H       1  TRP11       0.0618
     27 H           4.0731   -3.5328    1.3969 H       1  TRP11       0.0624
@<TRIPOS>BOND
     1     1     2    1
     2     2     3    1
     3     2     4    1
     4     3     5    2
     5     3     6    1
     6     4     7    1
     7     7     8   ar
     8     7    10   ar
     9     8     9   ar
    10    15     8   ar
    11     9    11   ar
    12     9    12   ar
    13    11    10   ar
    14    12    13   ar
    15    13    14   ar
    16    14    15   ar
    17     1    16    1
    18     1    17    1
    19     2    18    1
    20     4    19    1
    21     4    20    1
    22     6    21    1
    23    10    22    1
    24    11    23    1
    25    12    24    1
    26    13    25    1
    27    14    26    1
    28    15    27    1
