@<TRIPOS>MOLECULE
AB-337/13036072
   31    33     0
SMALL
USER_CHARGE


@<TRIPOS>ATOM
      1 C1          6.7586   -3.9984    1.1016 C.ar      1 <1>        -0.0943
      2 C2          7.9703   -3.3320    0.9301 C.ar      1 <1>        -0.0916
      3 C3          5.5790   -3.2874    1.3500 C.ar      1 <1>        -0.0846
      4 C4          8.0424   -1.9378    1.0010 C.ar      1 <1>        -0.0802
      5 C5          5.3010    0.3474    1.6166 C.2       1 <1>        -0.0299
      6 C6          5.6270   -1.8813    1.4259 C.ar      1 <1>        -0.0613
      7 C7          4.6557   -0.8671    1.6562 C.2       1 <1>        -0.0391
      8 C8          6.8551   -1.2402    1.2499 C.ar      1 <1>        -0.0553
      9 C9          2.2896   -0.5387    1.1004 C.2       1 <1>         0.0344
     10 C10         0.8605   -0.7809    1.4620 C.2       1 <1>         0.0466
     11 C11         2.6744    0.2372   -0.1167 C.2       1 <1>         0.0446
     12 C12         3.2533   -1.0292    1.8915 C.2       1 <1>        -0.0158
     13 C13        -0.1916   -0.1753    0.5599 C.3       1 <1>         0.0218
     14 C14         1.5520    0.8033   -0.9575 C.3       1 <1>         0.0216
     15 C15         0.3098    1.0862   -0.1265 C.3       1 <1>        -0.0130
     16 N1          6.6270    0.1121    1.3708 N.pl3     1 <1>        -0.3471
     17 O1          0.5395   -1.4808    2.4208 O.2       1 <1>        -0.5282
     18 O2          3.8476    0.3765   -0.4580 O.2       1 <1>        -0.5313
     19 H1          6.7276   -5.0830    1.0401 H         1 <1>         0.1171
     20 H2          8.8741   -3.9041    0.7376 H         1 <1>         0.1217
     21 H3          4.6428   -3.8233    1.4807 H         1 <1>         0.1274
     22 H4          8.9860   -1.4195    0.8661 H         1 <1>         0.1300
     23 H5          4.9413    1.3600    1.7408 H         1 <1>         0.2250
     24 H6          2.9419   -1.6121    2.7552 H         1 <1>         0.2015
     25 H7         -0.4559   -0.9154   -0.2035 H         1 <1>         0.1056
     26 H8         -1.0821    0.0336    1.1627 H         1 <1>         0.1088
     27 H9          1.9141    1.7152   -1.4447 H         1 <1>         0.1072
     28 H10         1.3025    0.0716   -1.7339 H         1 <1>         0.1090
     29 H11        -0.4797    1.4928   -0.7714 H         1 <1>         0.0638
     30 H12         0.5375    1.8486    0.6270 H         1 <1>         0.0692
     31 H13         7.3363    0.8276    1.2897 H         1 <1>         0.3162
@<TRIPOS>BOND
     1    1    2 ar
     2    1    3 ar
     3    2    4 ar
     4    3    6 ar
     5    4    8 ar
     6    5    7 2
     7    5   16 1
     8    6    7 1
     9    6    8 ar
    10    7   12 1
    11    8   16 1
    12    9   10 1
    13    9   11 1
    14    9   12 2
    15   10   13 1
    16   10   17 2
    17   11   14 1
    18   11   18 2
    19   13   15 1
    20   14   15 1
    21    1   19 1
    22    2   20 1
    23    3   21 1
    24    4   22 1
    25    5   23 1
    26   12   24 1
    27   13   25 1
    28   13   26 1
    29   14   27 1
    30   14   28 1
    31   15   29 1
    32   15   30 1
    33   16   31 1
