@<TRIPOS>MOLECULE
AI-942/13331877
   29    30     0
SMALL
USER_CHARGE


@<TRIPOS>ATOM
      1 C1          8.3663   -2.9845    1.1782 C.ar      1 <1>        -0.0988
      2 C2          7.4270   -4.0015    1.3212 C.ar      1 <1>        -0.0970
      3 C3          7.9514   -1.6537    1.1204 C.ar      1 <1>        -0.0925
      4 C4          6.0695   -3.6918    1.4070 C.ar      1 <1>        -0.0891
      5 C5          6.1535    0.0106    1.1489 C.ar      1 <1>        -0.0790
      6 C6          4.7959    0.3204    1.2346 C.ar      1 <1>        -0.0646
      7 C7          4.2716   -2.0275    1.4353 C.ar      1 <1>        -0.0576
      8 C8          6.5889   -1.3235    1.2052 C.ar      1 <1>        -0.0832
      9 C9          5.6340   -2.3578    1.3505 C.ar      1 <1>        -0.0753
     10 C10         3.8568   -0.6967    1.3775 C.ar      1 <1>        -0.0328
     11 C11         0.4816    0.5464    0.6463 C.3       1 <1>        -0.0329
     12 C12         2.1361   -0.5617   -0.8915 C.3       1 <1>         0.0062
     13 C13         1.9533    0.2959    0.3541 C.3       1 <1>         0.0162
     14 O1          1.5820    0.1234   -2.0098 O.3       1 <1>        -0.4733
     15 O2          2.5328   -0.3928    1.4612 O.3       1 <1>        -0.4568
     16 H1          9.4228   -3.2265    1.1108 H         1 <1>         0.1127
     17 H2          7.7505   -5.0376    1.3666 H         1 <1>         0.1173
     18 H3          8.7023   -0.8743    1.0079 H         1 <1>         0.1243
     19 H4          5.3531   -4.5031    1.5179 H         1 <1>         0.1255
     20 H5          6.8701    0.8217    1.0366 H         1 <1>         0.1354
     21 H6          4.4784    1.3585    1.1883 H         1 <1>         0.1302
     22 H7          3.5242   -2.8111    1.5476 H         1 <1>         0.1449
     23 H8         -0.0539   -0.4024    0.7591 H         1 <1>         0.0527
     24 H9          0.3520    1.1290    1.5636 H         1 <1>         0.0574
     25 H10         0.0027    1.0812   -0.1813 H         1 <1>         0.0613
     26 H11         3.1965   -0.7396   -1.0983 H         1 <1>         0.1103
     27 H12         1.6177   -1.5202   -0.7897 H         1 <1>         0.1046
     28 H13         2.4891    1.2448    0.2414 H         1 <1>         0.1363
     29 H14         1.7161   -0.4498   -2.7810 H         1 <1>         0.2978
@<TRIPOS>BOND
     1    1    2 ar
     2    1    3 ar
     3    2    4 ar
     4    3    8 ar
     5    4    9 ar
     6    5    6 ar
     7    5    8 ar
     8    6   10 ar
     9    7    9 ar
    10    7   10 ar
    11    8    9 ar
    12   10   15 1
    13   11   13 1
    14   12   13 1
    15   12   14 1
    16   13   15 1
    17    1   16 1
    18    2   17 1
    19    3   18 1
    20    4   19 1
    21    5   20 1
    22    6   21 1
    23    7   22 1
    24   11   23 1
    25   11   24 1
    26   11   25 1
    27   12   26 1
    28   12   27 1
    29   13   28 1
    30   14   29 1
