@<TRIPOS>MOLECULE
AK-968/41170120
   34    35     0
SMALL
USER_CHARGE


@<TRIPOS>ATOM
      1 C1          8.1462   -3.7604    1.1266 C.ar      1 <1>        -0.0976
      2 C2          6.9165   -4.4119    1.1453 C.ar      1 <1>        -0.0959
      3 C3          8.2032   -2.3722    1.2509 C.ar      1 <1>        -0.0913
      4 C4          5.7391   -3.6774    1.2887 C.ar      1 <1>        -0.0877
      5 C5          7.0667   -0.2186    1.5227 C.ar      1 <1>        -0.0771
      6 C6          5.8893    0.5160    1.6659 C.ar      1 <1>        -0.0606
      7 C7          4.6025   -1.5239    1.5601 C.ar      1 <1>        -0.0525
      8 C8          7.0282   -1.6168    1.3961 C.ar      1 <1>        -0.0815
      9 C9          5.7776   -2.2792    1.4151 C.ar      1 <1>        -0.0729
     10 C10         4.6595   -0.1355    1.6846 C.ar      1 <1>        -0.0172
     11 C11         2.4592    0.9037   -0.2976 C.2       1 <1>         0.1262
     12 C12        -0.0292    1.5316   -2.1128 C.3       1 <1>        -0.0295
     13 C13         2.4306    2.6790    1.4714 C.3       1 <1>         0.0014
     14 C14         1.4456    1.3346   -2.3916 C.3       1 <1>         0.0278
     15 C15         3.2331    1.5628    0.8262 C.3       1 <1>         0.1059
     16 O1          2.1055   -0.2683   -0.3020 O.2       1 <1>        -0.4709
     17 O2          3.5119    0.5825    1.8249 O.3       1 <1>        -0.4163
     18 O3          2.1998    1.8199   -1.2762 O.3       1 <1>        -0.3982
     19 H1          9.0623   -4.3329    1.0143 H         1 <1>         0.1144
     20 H2          6.8725   -5.4930    1.0487 H         1 <1>         0.1185
     21 H3          9.1749   -1.8831    1.2333 H         1 <1>         0.1255
     22 H4          4.7890   -4.2076    1.2999 H         1 <1>         0.1270
     23 H5          8.0170    0.3115    1.5099 H         1 <1>         0.1381
     24 H6          5.9395    1.5972    1.7619 H         1 <1>         0.1320
     25 H7          3.6327   -2.0180    1.5770 H         1 <1>         0.1499
     26 H8         -0.3344    0.9805   -1.2191 H         1 <1>         0.0590
     27 H9         -0.2564    2.5930   -1.9687 H         1 <1>         0.0668
     28 H10        -0.6312    1.1897   -2.9614 H         1 <1>         0.0590
     29 H11         1.4743    2.3164    1.8612 H         1 <1>         0.0761
     30 H12         2.9941    3.1313    2.2946 H         1 <1>         0.0792
     31 H13         2.2229    3.4785    0.7510 H         1 <1>         0.0828
     32 H14         1.7443    1.8884   -3.2868 H         1 <1>         0.1228
     33 H15         1.6710    0.2736   -2.5347 H         1 <1>         0.1230
     34 H16         4.1872    1.9355    0.4398 H         1 <1>         0.2141
@<TRIPOS>BOND
     1    1    2 ar
     2    1    3 ar
     3    2    4 ar
     4    3    8 ar
     5    4    9 ar
     6    5    6 ar
     7    5    8 ar
     8    6   10 ar
     9    7    9 ar
    10    7   10 ar
    11    8    9 ar
    12   10   17 1
    13   11   15 1
    14   11   16 2
    15   11   18 1
    16   12   14 1
    17   13   15 1
    18   14   18 1
    19   15   17 1
    20    1   19 1
    21    2   20 1
    22    3   21 1
    23    4   22 1
    24    5   23 1
    25    6   24 1
    26    7   25 1
    27   12   26 1
    28   12   27 1
    29   12   28 1
    30   13   29 1
    31   13   30 1
    32   13   31 1
    33   14   32 1
    34   14   33 1
    35   15   34 1
