@<TRIPOS>MOLECULE
ZINC00141641
   31    32     0
SMALL
USER_CHARGE


@<TRIPOS>ATOM
      1 C1          6.7588   -3.9984    1.1017 C.ar      1 <1>        -0.0960
      2 C2          5.5790   -3.2875    1.3501 C.ar      1 <1>        -0.0934
      3 C3          7.9703   -3.3320    0.9301 C.ar      1 <1>        -0.0935
      4 C4          5.6269   -1.8814    1.4259 C.ar      1 <1>        -0.0873
      5 C5          8.0424   -1.9377    1.0008 C.ar      1 <1>        -0.0944
      6 C6          4.6556   -0.8671    1.6562 C.2       1 <1>        -0.1032
      7 C7          6.8551   -1.2402    1.2499 C.ar      1 <1>        -0.0719
      8 C8          5.3010    0.3474    1.6166 C.2       1 <1>        -0.0872
      9 C9          9.3567   -1.2563    0.8126 C.3       1 <1>        -0.0369
     10 C10         4.7916    1.7218    1.7875 C.3       1 <1>        -0.0255
     11 C11         3.2125   -1.0781    1.8950 C.3       1 <1>        -0.0386
     12 C12         2.4007   -1.4291    0.6405 C.3       1 <1>        -0.0372
     13 N1          6.6271    0.1122    1.3707 N.pl3     1 <1>        -0.3697
     14 N2          0.9820   -1.6703    1.0022 N.4       1 <1>         0.4565
     15 H1          6.7279   -5.0831    1.0423 H         1 <1>         0.1172
     16 H2          4.6423   -3.8218    1.4809 H         1 <1>         0.1193
     17 H3          8.8692   -3.9137    0.7385 H         1 <1>         0.1258
     18 H4          9.5161   -1.0220   -0.2467 H         1 <1>         0.0635
     19 H5          9.4065   -0.3230    1.3876 H         1 <1>         0.0650
     20 H6         10.1849   -1.8879    1.1585 H         1 <1>         0.0559
     21 H7          4.8304    2.0315    2.8448 H         1 <1>         0.0822
     22 H8          5.3729    2.4547    1.2023 H         1 <1>         0.0801
     23 H9          3.7463    1.8213    1.4477 H         1 <1>         0.0839
     24 H10         3.0713   -1.9023    2.6187 H         1 <1>         0.0727
     25 H11         2.7503   -0.1992    2.3822 H         1 <1>         0.0716
     26 H12         2.7600   -2.3510    0.1738 H         1 <1>         0.0685
     27 H13         2.4080   -0.6221   -0.0985 H         1 <1>         0.0713
     28 H14         7.3380    0.8259    1.2884 H         1 <1>         0.3024
     29 H15         0.4303   -0.8103    0.9162 H         1 <1>         0.1322
     30 H16         0.9022   -2.0021    1.9695 H         1 <1>         0.1337
     31 H17         0.5627   -2.3778    0.3895 H         1 <1>         0.1329
@<TRIPOS>BOND
     1    1    2 ar
     2    1    3 ar
     3    2    4 ar
     4    3    5 ar
     5    4    6 1
     6    4    7 ar
     7    5    7 ar
     8    5    9 1
     9    6    8 2
    10    6   11 1
    11    7   13 1
    12    8   10 1
    13    8   13 1
    14   11   12 1
    15   12   14 1
    16    1   15 1
    17    2   16 1
    18    3   17 1
    19    9   18 1
    20    9   19 1
    21    9   20 1
    22   10   21 1
    23   10   22 1
    24   10   23 1
    25   11   24 1
    26   11   25 1
    27   12   26 1
    28   12   27 1
    29   13   28 1
    30   14   29 1
    31   14   30 1
    32   14   31 1
