@<TRIPOS>MOLECULE
AE-842/31985041
   42    46     0
SMALL
USER_CHARGE


@<TRIPOS>ATOM
      1 C1         -7.5245   -5.5514    6.2295 C.ar      1 <1>        -0.0960
      2 C2          1.6254   -1.9394    5.1767 C.ar      1 <1>        -0.0987
      3 C3         -7.5908   -5.1509    4.8952 C.ar      1 <1>        -0.0907
      4 C4         -6.3256   -5.4373    6.9334 C.ar      1 <1>        -0.0910
      5 C5          1.4698   -3.0249    4.3148 C.ar      1 <1>        -0.0901
      6 C6          0.5080   -1.2202    5.6012 C.ar      1 <1>        -0.0901
      7 C7         -6.4582   -4.6360    4.2644 C.ar      1 <1>        -0.0729
      8 C8         -5.1930   -4.9225    6.3028 C.ar      1 <1>        -0.0738
      9 C9          0.1971   -3.3912    3.8772 C.ar      1 <1>        -0.0732
     10 C10        -0.7647   -1.5865    5.1636 C.ar      1 <1>        -0.0732
     11 C11        -5.2592   -4.5217    4.9683 C.ar      1 <1>        -0.0489
     12 C12        -0.9203   -2.6721    4.3016 C.ar      1 <1>        -0.0510
     13 C13        -4.0849   -3.9879    4.3143 C.2       1 <1>        -0.0261
     14 C14        -3.2359   -6.3506    1.6562 C.3       1 <1>        -0.0530
     15 C15        -1.7753   -5.8957    1.3795 C.3       1 <1>        -0.0533
     16 C16        -3.1648   -4.1827    0.6741 C.3       1 <1>        -0.0467
     17 C17        -3.8404   -4.1433    2.8421 C.3       1 <1>         0.0031
     18 C18        -4.0423   -5.0326    1.6321 C.3       1 <1>        -0.0357
     19 C19        -1.8861   -4.3532    1.5187 C.3       1 <1>        -0.0353
     20 C20        -2.3117   -4.1614    2.9777 C.3       1 <1>         0.0042
     21 N1         -3.1734   -3.2101    4.8535 N.2       1 <1>        -0.3715
     22 N2         -2.1806   -3.0345    3.8687 N.pl3     1 <1>        -0.3605
     23 H1         -8.4064   -5.9524    6.7205 H         1 <1>         0.1187
     24 H2          2.6165   -1.6541    5.5172 H         1 <1>         0.1083
     25 H3         -8.5243   -5.2401    4.3472 H         1 <1>         0.1202
     26 H4         -6.2740   -5.7489    7.9724 H         1 <1>         0.1204
     27 H5          2.3397   -3.5845    3.9843 H         1 <1>         0.1215
     28 H6          0.6294   -0.3748    6.2725 H         1 <1>         0.1210
     29 H7         -6.5210   -4.3267    3.2243 H         1 <1>         0.1393
     30 H8         -4.2642   -4.8381    6.8609 H         1 <1>         0.1367
     31 H9          0.0867   -4.2386    3.2054 H         1 <1>         0.1321
     32 H10        -1.6282   -1.0188    5.5012 H         1 <1>         0.1317
     33 H11        -3.5653   -7.0299    0.8626 H         1 <1>         0.0501
     34 H12        -3.3325   -6.8684    2.6160 H         1 <1>         0.0458
     35 H13        -1.0637   -6.3495    2.0769 H         1 <1>         0.0484
     36 H14        -1.4724   -6.1775    0.3638 H         1 <1>         0.0456
     37 H15        -3.0901   -4.6131   -0.3314 H         1 <1>         0.0528
     38 H16        -3.4761   -3.1369    0.5775 H         1 <1>         0.0560
     39 H17        -4.2161   -3.1535    2.5118 H         1 <1>         0.0985
     40 H18        -5.0845   -5.1496    1.3301 H         1 <1>         0.0748
     41 H19        -1.0012   -3.8080    1.1897 H         1 <1>         0.0815
     42 H20        -1.9645   -5.0305    3.5635 H         1 <1>         0.1212
@<TRIPOS>BOND
     1    1    3 ar
     2    1    4 ar
     3    2    5 ar
     4    2    6 ar
     5    3    7 ar
     6    4    8 ar
     7    5    9 ar
     8    6   10 ar
     9    7   11 ar
    10    8   11 ar
    11    9   12 ar
    12   10   12 ar
    13   11   13 1
    14   12   22 1
    15   13   17 1
    16   13   21 2
    17   14   15 1
    18   14   18 1
    19   15   19 1
    20   16   18 1
    21   16   19 1
    22   17   18 1
    23   17   20 1
    24   19   20 1
    25   20   22 1
    26   21   22 1
    27    1   23 1
    28    2   24 1
    29    3   25 1
    30    4   26 1
    31    5   27 1
    32    6   28 1
    33    7   29 1
    34    8   30 1
    35    9   31 1
    36   10   32 1
    37   14   33 1
    38   14   34 1
    39   15   35 1
    40   15   36 1
    41   16   37 1
    42   16   38 1
    43   17   39 1
    44   18   40 1
    45   19   41 1
    46   20   42 1
