@<TRIPOS>MOLECULE
http://www.rcsb.org/pdb/files/1fvv.pdb.gz
 31 35 0 0 0
SMALL
GASTEIGER
****
Jmol version 13.0.9  2012-11-23 13:17 EXTRACT: ({8960:8990})
@<TRIPOS>ATOM
      1 O          -0.3446   -4.9964    0.4138 O.3     1  LIG1       -0.2036
      2 C          -1.4541   -5.6886    0.9672 C.3     1  LIG1        0.2269
      3 N          -2.5887   -5.5530    0.1000 N.3     1  LIG1       -0.1906
      4 C          -3.6456   -4.9316    0.8753 C.3     1  LIG1        0.0763
      5 C          -4.4929   -6.0598    1.4551 C.3     1  LIG1        0.0190
      6 C          -5.1984   -5.6839    2.6439 C.3     1  LIG1        0.0197
      7 C          -4.3348   -5.2343    3.6456 C.3     1  LIG1        0.0838
      8 N          -4.8967   -4.8588    4.8980 N.3     1  LIG1       -0.2068
      9 C          -4.1104   -3.7384    5.3636 C.3     1  LIG1        0.1460
     10 S          -3.1461   -3.3950    4.3372 S.3     1  LIG1       -0.1208
     11 C          -3.7517   -3.8857    3.1407 C.3     1  LIG1        0.0665
     12 C          -2.8558   -4.1698    1.9691 C.3     1  LIG1        0.0328
     13 C          -1.7837   -5.1266    2.2526 C.3     1  LIG1        0.0671
     14 C          -0.5797   -4.4218    2.8559 C.3     1  LIG1        0.0927
     15 N          -0.7822   -2.9671    2.7950 N.3     1  LIG1       -0.2193
     16 C           0.3061   -2.2163    3.4375 C.3     1  LIG1        0.0729
     17 C          -0.7536   -1.2328    3.9451 C.3     1  LIG1        0.0191
     18 C          -0.0533   -0.0057    4.5371 C.3     1  LIG1        0.0245
     19 C           0.8986   -0.4576    5.6470 C.3     1  LIG1        0.1233
     20 C           1.8384   -1.3936    5.1158 C.3     1  LIG1        0.0245
     21 C           1.2440   -2.5823    4.5902 C.3     1  LIG1        0.0191
     22 S           1.7827    0.9778    6.3058 S.3     1  LIG1       -0.0416
     23 O           1.8116    2.2849    5.2037 O.3     1  LIG1       -0.0811
     24 O           1.3132    1.5442    7.8495 O.3     1  LIG1       -0.0811
     25 N           3.3865    0.2602    6.4070 N.3     1  LIG1       -0.0868
     26 C           4.5642    3.5159    7.7407 C.3     1  LIG1        0.0045
     27 C           5.4544    2.9775    8.8656 C.3     1  LIG1        0.0190
     28 C           6.1893    1.7293    8.3669 C.3     1  LIG1        0.0903
     29 N           5.1624    0.6973    7.8946 N.3     1  LIG1       -0.2007
     30 C           4.3474    1.2713    6.8711 C.3     1  LIG1        0.1675
     31 C           3.6005    2.4145    7.2928 C.3     1  LIG1        0.0372
@<TRIPOS>BOND
     1     2     3    1
     2     2    13    1
     3     3     4    1
     4     4     5    1
     5     4    12    1
     6     5     6    1
     7     6     7    1
     8     7     8    1
     9     7    11    1
    10     8     9    1
    11     9    10    1
    12    10    11    1
    13    11    12    1
    14    12    13    1
    15    14    15    1
    16    16    17    1
    17    16    21    1
    18    17    18    1
    19    18    19    1
    20    19    20    1
    21    20    21    1
    22    22    23    1
    23    22    24    1
    24    22    25    1
    25    25    30    1
    26    26    27    1
    27    26    31    1
    28    27    28    1
    29    28    29    1
    30    29    30    1
    31    30    31    1
    32     1     2    1
    33    13    14    1
    34    16    15    1
    35    19    22    1
