@<TRIPOS>MOLECULE
ChEBML233572
 38 40 0 0 0
SMALL
USER_CHARGES

@<TRIPOS>ATOM
      1 C          -4.4059   -1.0314   -1.0242 C.ar    1  LIG1       -0.0590
      2 C          -4.2102   -0.6565    0.3050 C.ar    1  LIG1       -0.0583
      3 C         -10.2182   -5.2436    0.5955 C.ar    1  LIG1       -0.0376
      4 C         -11.5500   -5.6439    0.7366 C.ar    1  LIG1       -0.0299
      5 C         -12.1410   -3.5204    1.7555 C.ar    1  LIG1       -0.0226
      6 C         -10.1063   -1.9008    1.9588 C.ar    1  LIG1       -0.0275
      7 C          -6.7350   -1.4721   -0.5570 C.ar    1  LIG1       -0.0478
      8 C         -10.8043   -3.0948    1.6237 C.ar    1  LIG1        0.0003
      9 C          -6.5393   -1.0972    0.7722 C.ar    1  LIG1        0.0270
     10 C          -5.6684   -1.4393   -1.4552 C.ar    1  LIG1       -0.0503
     11 C          -5.2768   -0.6893    1.2032 C.ar    1  LIG1       -0.0399
     12 C          -9.8756   -3.9644    1.0480 C.ar    1  LIG1        0.0379
     13 C         -12.4983   -4.7973    1.3073 C.ar    1  LIG1        0.0753
     14 C          -8.7919   -2.0658    1.5872 C.ar    1  LIG1        0.0797
     15 C          -7.7100   -1.1424    1.7216 C.2     1  LIG1        0.2068
     16 C          -5.8771   -1.8400   -2.8765 C.3     1  LIG1       -0.0397
     17 C          -5.0393   -0.2826    2.6209 C.3     1  LIG1       -0.0390
     18 C         -14.0931   -6.5264    0.9571 C.3     1  LIG1        0.0422
     19 N          -8.6625   -3.3134    1.0386 N.ar    1  LIG1       -0.3112
     20 O          -7.6797   -0.3069    2.6552 O.2     1  LIG1       -0.2871
     21 O         -13.7893   -5.2164    1.4312 O.3     1  LIG1       -0.3493
     22 H          -3.5691   -1.0028   -1.7170 H       1  LIG1        0.0625
     23 H          -3.2227   -0.3402    0.6308 H       1  LIG1        0.0626
     24 H          -9.4807   -5.9032    0.1507 H       1  LIG1        0.0643
     25 H         -11.8427   -6.6335    0.3929 H       1  LIG1        0.0651
     26 H         -12.8866   -2.8657    2.1987 H       1  LIG1        0.0657
     27 H         -10.5253   -1.0175    2.4225 H       1  LIG1        0.0651
     28 H          -7.7182   -1.7906   -0.8961 H       1  LIG1        0.0633
     29 H          -5.6983   -2.9152   -3.0003 H       1  LIG1        0.0280
     30 H          -6.8996   -1.6169   -3.2074 H       1  LIG1        0.0280
     31 H          -5.2002   -1.2953   -3.5476 H       1  LIG1        0.0280
     32 H          -5.2111    0.7931    2.7408 H       1  LIG1        0.0280
     33 H          -5.7061   -0.8219    3.3046 H       1  LIG1        0.0280
     34 H          -4.0119   -0.5097    2.9310 H       1  LIG1        0.0280
     35 H         -15.1539   -6.7350    1.1153 H       1  LIG1        0.0535
     36 H         -13.4830   -7.2588    1.4917 H       1  LIG1        0.0535
     37 H         -13.8692   -6.5786   -0.1110 H       1  LIG1        0.0535
     38 H          -7.8027   -3.7035    0.6777 H       1  LIG1        0.1529
@<TRIPOS>BOND
     1     1     2   ar
     2     1    10   ar
     3     2    11   ar
     4     3     4   ar
     5     3    12   ar
     6     4    13   ar
     7     5     8   ar
     8     5    13   ar
     9     6     8   ar
    10     6    14   ar
    11     7     9   ar
    12     7    10   ar
    13     8    12   ar
    14     9    11   ar
    15     9    15    1
    16    10    16    1
    17    11    17    1
    18    12    19   ar
    19    13    21    1
    20    14    15    1
    21    14    19   ar
    22    15    20    2
    23    18    21    1
    24     1    22    1
    25     2    23    1
    26     3    24    1
    27     4    25    1
    28     5    26    1
    29     6    27    1
    30     7    28    1
    31    16    29    1
    32    16    30    1
    33    16    31    1
    34    17    32    1
    35    17    33    1
    36    17    34    1
    37    18    35    1
    38    18    36    1
    39    18    37    1
    40    19    38    1
