@<TRIPOS>MOLECULE
ChEBML2365
 47 50 0 0 0
SMALL
USER_CHARGES

@<TRIPOS>ATOM
      1 C          -3.1816   -1.0799   -2.3903 C.ar    1  LIG1       -0.0615
      2 C          -2.4554   -0.6346   -1.2874 C.ar    1  LIG1       -0.0603
      3 C          -4.5448   -1.3763   -2.2781 C.ar    1  LIG1       -0.0530
      4 C          -3.0659   -0.4715   -0.0406 C.ar    1  LIG1       -0.0402
      5 C         -10.2182   -5.2436    0.5955 C.ar    1  LIG1       -0.0376
      6 C         -11.5500   -5.6439    0.7366 C.ar    1  LIG1       -0.0292
      7 C         -12.1410   -3.5204    1.7555 C.ar    1  LIG1       -0.0219
      8 C          -6.5112   -1.4206   -0.5648 C.ar    1  LIG1       -0.0276
      9 C         -10.1063   -1.9008    1.9588 C.ar    1  LIG1       -0.0275
     10 C          -5.1818   -1.2197   -1.0311 C.ar    1  LIG1       -0.0022
     11 C         -10.8043   -3.0948    1.6237 C.ar    1  LIG1        0.0004
     12 C          -4.4292   -0.7719    0.0566 C.ar    1  LIG1        0.0378
     13 C          -9.8756   -3.9644    1.0480 C.ar    1  LIG1        0.0379
     14 C         -12.4983   -4.7973    1.3073 C.ar    1  LIG1        0.0863
     15 C          -6.5393   -1.0972    0.7722 C.ar    1  LIG1        0.0811
     16 C          -8.7919   -2.0658    1.5872 C.ar    1  LIG1        0.0811
     17 C          -7.7100   -1.1424    1.7216 C.2     1  LIG1        0.2206
     18 C         -14.6018   -4.9116    0.3243 C.2     1  LIG1        0.3108
     19 C         -16.0143   -6.8585   -1.4575 C.3     1  LIG1       -0.0452
     20 C         -15.2639   -7.7958    0.7240 C.3     1  LIG1       -0.0452
     21 C         -15.9943   -5.4198    0.5752 C.3     1  LIG1        0.0536
     22 N          -5.2789   -0.7067    1.1379 N.ar    1  LIG1       -0.3112
     23 N          -8.6625   -3.3134    1.0386 N.ar    1  LIG1       -0.3112
     24 N         -16.1640   -6.7942    0.0427 N.4     1  LIG1        0.2490
     25 O          -7.6797   -0.3069    2.6552 O.2     1  LIG1       -0.2856
     26 O         -14.2341   -4.3244   -0.6843 O.2     1  LIG1       -0.2598
     27 O         -13.7893   -5.2164    1.4312 O.3     1  LIG1       -0.2740
     28 H          -2.6849   -1.1981   -3.3498 H       1  LIG1        0.0623
     29 H          -1.3977   -0.4105   -1.3972 H       1  LIG1        0.0623
     30 H          -5.0991   -1.7222   -3.1461 H       1  LIG1        0.0629
     31 H          -2.5003   -0.1254    0.8180 H       1  LIG1        0.0642
     32 H          -9.4807   -5.9032    0.1507 H       1  LIG1        0.0643
     33 H         -11.8427   -6.6335    0.3929 H       1  LIG1        0.0651
     34 H         -12.8866   -2.8657    2.1987 H       1  LIG1        0.0657
     35 H          -7.3541   -1.7652   -1.1489 H       1  LIG1        0.0651
     36 H         -10.5253   -1.0175    2.4225 H       1  LIG1        0.0651
     37 H         -14.9984   -6.5453   -1.7054 H       1  LIG1        0.0777
     38 H         -16.1940   -7.8896   -1.7673 H       1  LIG1        0.0777
     39 H         -16.7511   -6.1828   -1.8960 H       1  LIG1        0.0777
     40 H         -14.2306   -7.5044    0.5268 H       1  LIG1        0.0777
     41 H         -15.4823   -7.7682    1.7932 H       1  LIG1        0.0777
     42 H         -15.4810   -8.7799    0.3043 H       1  LIG1        0.0777
     43 H         -16.7268   -4.7916    0.0627 H       1  LIG1        0.0926
     44 H         -16.1932   -5.4718    1.6484 H       1  LIG1        0.0926
     45 H          -5.0077   -0.4136    2.0665 H       1  LIG1        0.1529
     46 H          -7.8027   -3.7035    0.6777 H       1  LIG1        0.1529
     47 H         -17.1325   -7.0951    0.2466 H       1  LIG1        0.2003
@<TRIPOS>BOND
     1     1     2   ar
     2     1     3   ar
     3     2     4   ar
     4     3    10   ar
     5     4    12   ar
     6     5     6   ar
     7     5    13   ar
     8     6    14   ar
     9     7    11   ar
    10     7    14   ar
    11     8    10   ar
    12     8    15   ar
    13     9    11   ar
    14     9    16   ar
    15    10    12   ar
    16    11    13   ar
    17    12    22   ar
    18    13    23   ar
    19    14    27    1
    20    15    17    1
    21    15    22   ar
    22    16    17    1
    23    16    23   ar
    24    17    25    2
    25    18    21    1
    26    18    26    2
    27    18    27    1
    28    19    24    1
    29    20    24    1
    30    21    24    1
    31     1    28    1
    32     2    29    1
    33     3    30    1
    34     4    31    1
    35     5    32    1
    36     6    33    1
    37     7    34    1
    38     8    35    1
    39     9    36    1
    40    19    37    1
    41    19    38    1
    42    19    39    1
    43    20    40    1
    44    20    41    1
    45    20    42    1
    46    21    43    1
    47    21    44    1
    48    22    45    1
    49    23    46    1
    50    24    47    1
