@<TRIPOS>MOLECULE
ChEBML198662
 45 47 0 0 0
SMALL
USER_CHARGES

@<TRIPOS>ATOM
      1 C          -2.2356    0.9601   -3.4727 C.ar    1  LIG1       -0.0422
      2 C         -11.6335   -5.3518    0.8036 C.ar    1  LIG1       -0.0572
      3 C         -11.9784   -2.9639    0.9312 C.ar    1  LIG1       -0.0572
      4 C         -10.2672   -5.1657    1.0143 C.ar    1  LIG1       -0.0404
      5 C         -10.6121   -2.7779    1.1419 C.ar    1  LIG1       -0.0404
      6 C          -1.9711   -0.3828   -3.2286 C.ar    1  LIG1       -0.0384
      7 C          -3.3301    1.5305   -2.8428 C.ar    1  LIG1        0.0292
      8 C         -12.4891   -4.2509    0.7620 C.ar    1  LIG1       -0.0481
      9 C          -9.7566   -3.8788    1.1835 C.ar    1  LIG1        0.0340
     10 C          -2.7973   -1.1044   -2.3741 C.ar    1  LIG1        0.0809
     11 C          -3.8666   -0.4415   -1.7933 C.ar    1  LIG1        0.1388
     12 C          -7.8680   -2.4242    1.6393 C.2     1  LIG1        0.3050
     13 C          -4.8283   -0.6855    0.4398 C.3     1  LIG1        0.0289
     14 C          -5.7798   -1.9267   -1.5277 C.3     1  LIG1        0.0289
     15 C          -6.2956   -0.6736    0.8630 C.3     1  LIG1        0.0315
     16 C          -6.4701   -2.7725   -0.4566 C.3     1  LIG1        0.0315
     17 C         -14.3178   -4.4239   -0.9445 C.3     1  LIG1       -0.0613
     18 C         -13.9499   -4.4500    0.5368 C.3     1  LIG1       -0.0307
     19 N          -4.1553    0.8618   -2.0065 N.ar    1  LIG1       -0.2398
     20 N          -4.6917   -1.1370   -0.9477 N.pl3   1  LIG1       -0.3115
     21 N          -6.9142   -1.9876    0.7006 N.am    1  LIG1       -0.2824
     22 N          -8.3857   -3.6917    1.3951 N.am    1  LIG1       -0.2691
     23 O          -8.2130   -1.7403    2.6085 O.2     1  LIG1       -0.2537
     24 CL         -2.4550   -2.7670   -2.0827 Cl      1  LIG1       -0.0805
     25 H          -1.6053    1.5421   -4.1354 H       1  LIG1        0.0639
     26 H         -12.0224   -6.3579    0.6705 H       1  LIG1        0.0626
     27 H         -12.6378   -2.1005    0.8996 H       1  LIG1        0.0626
     28 H          -9.6097   -6.0309    1.0452 H       1  LIG1        0.0642
     29 H         -10.2246   -1.7704    1.2715 H       1  LIG1        0.0642
     30 H          -1.1177   -0.8518   -3.7117 H       1  LIG1        0.0640
     31 H          -3.5799    2.5746   -3.0005 H       1  LIG1        0.0840
     32 H          -4.4111    0.3207    0.5697 H       1  LIG1        0.0485
     33 H          -4.2561   -1.3636    1.0843 H       1  LIG1        0.0485
     34 H          -5.3917   -2.5870   -2.3124 H       1  LIG1        0.0485
     35 H          -6.5102   -1.2516   -1.9919 H       1  LIG1        0.0485
     36 H          -6.3802   -0.3421    1.9032 H       1  LIG1        0.0486
     37 H          -6.8700    0.0293    0.2471 H       1  LIG1        0.0486
     38 H          -7.3297   -3.2841   -0.9020 H       1  LIG1        0.0486
     39 H          -5.7822   -3.5368   -0.0753 H       1  LIG1        0.0486
     40 H         -14.0045   -3.4836   -1.4106 H       1  LIG1        0.0234
     41 H         -15.3997   -4.5240   -1.0769 H       1  LIG1        0.0234
     42 H         -13.8327   -5.2445   -1.4841 H       1  LIG1        0.0234
     43 H         -14.2787   -5.4072    0.9725 H       1  LIG1        0.0313
     44 H         -14.5290   -3.6755    1.0651 H       1  LIG1        0.0313
     45 H          -7.8075   -4.5237    1.4168 H       1  LIG1        0.1573
@<TRIPOS>BOND
     1     1     6   ar
     2     1     7   ar
     3     2     4   ar
     4     2     8   ar
     5     3     5   ar
     6     3     8   ar
     7     4     9   ar
     8     5     9   ar
     9     6    10   ar
    10     7    19   ar
    11     8    18    1
    12     9    22    1
    13    10    11   ar
    14    10    24    1
    15    11    19   ar
    16    11    20    1
    17    12    21   am
    18    12    22   am
    19    12    23    2
    20    13    15    1
    21    13    20    1
    22    14    16    1
    23    14    20    1
    24    15    21    1
    25    16    21    1
    26    17    18    1
    27     1    25    1
    28     2    26    1
    29     3    27    1
    30     4    28    1
    31     5    29    1
    32     6    30    1
    33     7    31    1
    34    13    32    1
    35    13    33    1
    36    14    34    1
    37    14    35    1
    38    15    36    1
    39    15    37    1
    40    16    38    1
    41    16    39    1
    42    17    40    1
    43    17    41    1
    44    17    42    1
    45    18    43    1
    46    18    44    1
    47    22    45    1
