@<TRIPOS>MOLECULE
ChEBML426925
 59 61 0 0 0
SMALL
USER_CHARGES

@<TRIPOS>ATOM
      1 C          -2.2035    1.0513   -3.6977 C.ar    1  LIG1       -0.0431
      2 C          -1.9816   -0.2744   -3.3419 C.ar    1  LIG1       -0.0449
      3 C         -10.8795   -2.5724    1.1190 C.ar    1  LIG1       -0.0567
      4 C          -9.4498   -4.4740    1.5392 C.ar    1  LIG1       -0.0567
      5 C          -9.8893   -1.7199    1.6070 C.ar    1  LIG1       -0.0393
      6 C          -8.4594   -3.6215    2.0272 C.ar    1  LIG1       -0.0393
      7 C          -3.1613    1.7608   -2.9913 C.ar    1  LIG1        0.0291
      8 C         -10.6599   -3.9495    1.0852 C.ar    1  LIG1       -0.0425
      9 C          -2.7138   -0.8420   -2.3051 C.ar    1  LIG1        0.0957
     10 C          -8.6792   -2.2444    2.0611 C.ar    1  LIG1        0.0545
     11 C          -3.6486   -0.0476   -1.6607 C.ar    1  LIG1        0.1323
     12 C          -5.6407   -1.2640   -0.9512 C.3     1  LIG1        0.0300
     13 C          -6.7078   -0.8946    0.0727 C.3     1  LIG1        0.0413
     14 C          -4.1938   -0.0660    0.7135 C.3     1  LIG1        0.0328
     15 C          -4.8522   -0.9624    1.7735 C.3     1  LIG1        0.0518
     16 C          -4.7008   -3.1060    3.0505 C.3     1  LIG1       -0.0635
     17 C         -12.0709   -4.5299   -0.9192 C.3     1  LIG1       -0.0561
     18 C         -13.0319   -4.7385    1.3979 C.3     1  LIG1       -0.0561
     19 C         -11.3591   -6.3841    0.5763 C.3     1  LIG1       -0.0561
     20 C          -4.0834   -2.2667    1.9809 C.3     1  LIG1       -0.0346
     21 C         -11.7188   -4.8613    0.5642 C.3     1  LIG1       -0.0132
     22 C          -2.4725   -2.2637   -1.9265 C.3     1  LIG1        0.4193
     23 N          -3.8921    1.2437   -1.9783 N.ar    1  LIG1       -0.2408
     24 N          -4.3723   -0.6033   -0.6369 N.pl3   1  LIG1       -0.3118
     25 N          -6.2672   -1.3026    1.4285 N.3     1  LIG1       -0.2707
     26 O          -7.9637    0.1797    2.6817 O.2     1  LIG1       -0.4762
     27 O          -6.8885   -1.7534    3.8878 O.2     1  LIG1       -0.4762
     28 F          -1.5113   -2.8759   -2.6799 F       1  LIG1       -0.1660
     29 F          -2.0654   -2.4239   -0.6323 F       1  LIG1       -0.1660
     30 F          -3.5885   -3.0391   -2.0574 F       1  LIG1       -0.1660
     31 S          -7.4242   -1.1649    2.6770 S.O2    1  LIG1       -0.1655
     32 H          -1.6442    1.5146   -4.5023 H       1  LIG1        0.0639
     33 H          -1.2367   -0.8560   -3.8779 H       1  LIG1        0.0631
     34 H         -11.8194   -2.1547    0.7678 H       1  LIG1        0.0626
     35 H          -9.2699   -5.5456    1.5170 H       1  LIG1        0.0626
     36 H         -10.0710   -0.6486    1.6296 H       1  LIG1        0.0642
     37 H          -7.5205   -4.0409    2.3788 H       1  LIG1        0.0642
     38 H          -3.3733    2.7980   -3.2300 H       1  LIG1        0.0840
     39 H          -5.4802   -2.3485   -0.9625 H       1  LIG1        0.0486
     40 H          -5.9948   -0.9768   -1.9493 H       1  LIG1        0.0486
     41 H          -6.9077    0.1832    0.0591 H       1  LIG1        0.0499
     42 H          -7.6368   -1.4197   -0.1754 H       1  LIG1        0.0499
     43 H          -4.6383    0.9371    0.7582 H       1  LIG1        0.0489
     44 H          -3.1256    0.0462    0.9388 H       1  LIG1        0.0489
     45 H          -4.8370   -0.4094    2.7213 H       1  LIG1        0.0535
     46 H          -4.7173   -2.5460    3.9929 H       1  LIG1        0.0231
     47 H          -4.1236   -4.0229    3.2103 H       1  LIG1        0.0231
     48 H          -5.7324   -3.3695    2.7939 H       1  LIG1        0.0231
     49 H         -12.8481   -5.1868   -1.3271 H       1  LIG1        0.0239
     50 H         -12.4332   -3.5015   -1.0256 H       1  LIG1        0.0239
     51 H         -11.1815   -4.6324   -1.5521 H       1  LIG1        0.0239
     52 H         -13.8122   -5.4068    1.0182 H       1  LIG1        0.0239
     53 H         -12.8864   -4.9850    2.4563 H       1  LIG1        0.0239
     54 H         -13.4207   -3.7147    1.3443 H       1  LIG1        0.0239
     55 H         -12.1680   -7.0126    0.1845 H       1  LIG1        0.0239
     56 H         -10.4728   -6.5805   -0.0383 H       1  LIG1        0.0239
     57 H         -11.1504   -6.7273    1.5963 H       1  LIG1        0.0239
     58 H          -4.0662   -2.8235    1.0408 H       1  LIG1        0.0284
     59 H          -3.0500   -2.0324    2.2483 H       1  LIG1        0.0284
@<TRIPOS>BOND
     1     1     2   ar
     2     1     7   ar
     3     2     9   ar
     4     3     5   ar
     5     3     8   ar
     6     4     6   ar
     7     4     8   ar
     8     5    10   ar
     9     6    10   ar
    10     7    23   ar
    11     8    21    1
    12     9    11   ar
    13     9    22    1
    14    10    31    1
    15    11    23   ar
    16    11    24    1
    17    12    13    1
    18    12    24    1
    19    13    25    1
    20    14    15    1
    21    14    24    1
    22    15    20    1
    23    15    25    1
    24    16    20    1
    25    17    21    1
    26    18    21    1
    27    19    21    1
    28    22    28    1
    29    22    29    1
    30    22    30    1
    31    25    31    1
    32    26    31    2
    33    27    31    2
    34     1    32    1
    35     2    33    1
    36     3    34    1
    37     4    35    1
    38     5    36    1
    39     6    37    1
    40     7    38    1
    41    12    39    1
    42    12    40    1
    43    13    41    1
    44    13    42    1
    45    14    43    1
    46    14    44    1
    47    15    45    1
    48    16    46    1
    49    16    47    1
    50    16    48    1
    51    17    49    1
    52    17    50    1
    53    17    51    1
    54    18    52    1
    55    18    53    1
    56    18    54    1
    57    19    55    1
    58    19    56    1
    59    19    57    1
    60    20    58    1
    61    20    59    1
