@<TRIPOS>MOLECULE
ChEBML1067100
 31 33 0 0 0
SMALL
USER_CHARGES

@<TRIPOS>ATOM
      1 C          -5.0366   -0.2422   -2.2886 C.ar    1  LIG1       -0.0622
      2 C         -12.4105   -4.7483    1.2295 C.ar    1  LIG1       -0.0615
      3 C          -4.0494   -0.4172   -1.3189 C.ar    1  LIG1       -0.0620
      4 C          -6.3671   -0.5371   -1.9906 C.ar    1  LIG1       -0.0620
      5 C         -11.4734   -5.5735    0.6109 C.ar    1  LIG1       -0.0603
      6 C         -12.0260   -3.5290    1.7991 C.ar    1  LIG1       -0.0530
      7 C          -4.3926   -0.8871   -0.0511 C.ar    1  LIG1       -0.0586
      8 C          -6.7102   -1.0069   -0.7228 C.ar    1  LIG1       -0.0586
      9 C         -10.1259   -5.2085    0.5415 C.ar    1  LIG1       -0.0402
     10 C          -9.9474   -2.0049    2.2000 C.ar    1  LIG1       -0.0280
     11 C         -10.6730   -3.1398    1.7413 C.ar    1  LIG1       -0.0023
     12 C          -5.7230   -1.1819    0.2469 C.ar    1  LIG1       -0.0402
     13 C          -9.7560   -3.9868    1.1151 C.ar    1  LIG1        0.0377
     14 C          -8.6285   -2.1816    1.8501 C.ar    1  LIG1        0.0750
     15 C          -7.5218   -1.3121    2.0958 C.2     1  LIG1        0.1808
     16 C          -6.0949   -1.6905    1.6181 C.3     1  LIG1        0.0373
     17 N          -8.5230   -3.3797    1.1961 N.ar    1  LIG1       -0.3115
     18 O          -7.6640   -0.2167    2.7055 O.2     1  LIG1       -0.2923
     19 H          -4.7694    0.1249   -3.2752 H       1  LIG1        0.0622
     20 H         -13.4528   -5.0535    1.2703 H       1  LIG1        0.0623
     21 H          -3.0136   -0.1866   -1.5504 H       1  LIG1        0.0623
     22 H          -7.1361   -0.3999   -2.7450 H       1  LIG1        0.0623
     23 H         -11.7941   -6.5163    0.1755 H       1  LIG1        0.0623
     24 H         -12.7670   -2.8950    2.2779 H       1  LIG1        0.0629
     25 H          -3.6167   -1.0205    0.6982 H       1  LIG1        0.0625
     26 H          -7.7493   -1.2341   -0.4998 H       1  LIG1        0.0625
     27 H          -9.3965   -5.8513    0.0602 H       1  LIG1        0.0642
     28 H         -10.3515   -1.1521    2.7292 H       1  LIG1        0.0651
     29 H          -6.0157   -2.7840    1.6222 H       1  LIG1        0.0401
     30 H          -5.3782   -1.2959    2.3479 H       1  LIG1        0.0401
     31 H          -7.6656   -3.7662    0.8256 H       1  LIG1        0.1529
@<TRIPOS>BOND
     1     1     3   ar
     2     1     4   ar
     3     2     5   ar
     4     2     6   ar
     5     3     7   ar
     6     4     8   ar
     7     5     9   ar
     8     6    11   ar
     9     7    12   ar
    10     8    12   ar
    11     9    13   ar
    12    10    11   ar
    13    10    14   ar
    14    11    13   ar
    15    12    16    1
    16    13    17   ar
    17    14    15    1
    18    14    17   ar
    19    15    16    1
    20    15    18    2
    21     1    19    1
    22     2    20    1
    23     3    21    1
    24     4    22    1
    25     5    23    1
    26     6    24    1
    27     7    25    1
    28     8    26    1
    29     9    27    1
    30    10    28    1
    31    16    29    1
    32    16    30    1
    33    17    31    1
