@<TRIPOS>MOLECULE
ChEBML348300
 36 39 0 0 0
SMALL
USER_CHARGES

@<TRIPOS>ATOM
      1 C         -12.4127   -4.7892    1.2895 C.ar    1  LIG1       -0.0600
      2 C         -12.0602   -3.5086    1.7312 C.ar    1  LIG1       -0.0529
      3 C          -4.3272    0.6152   -1.6132 C.ar    1  LIG1       -0.0376
      4 C          -3.2108    0.0679   -2.2519 C.ar    1  LIG1       -0.0299
      5 C         -11.4605   -5.6366    0.7265 C.ar    1  LIG1       -0.0416
      6 C          -3.5034   -2.0405   -1.0831 C.ar    1  LIG1       -0.0226
      7 C         -10.0304   -1.8824    1.9306 C.ar    1  LIG1       -0.0275
      8 C          -5.5542   -2.0214    0.5288 C.ar    1  LIG1       -0.0275
      9 C         -10.7242   -3.0802    1.6006 C.ar    1  LIG1       -0.0007
     10 C          -4.6321   -1.5104   -0.4270 C.ar    1  LIG1        0.0003
     11 C          -5.0171   -0.1974   -0.7066 C.ar    1  LIG1        0.0379
     12 C          -9.7916   -3.9507    1.0326 C.ar    1  LIG1        0.0567
     13 C          -2.8035   -1.2392   -1.9925 C.ar    1  LIG1        0.0753
     14 C         -10.1295   -5.2334    0.5867 C.ar    1  LIG1        0.0625
     15 C          -8.7146   -2.0459    1.5636 C.ar    1  LIG1        0.0811
     16 C          -6.4640   -1.0272    0.8061 C.ar    1  LIG1        0.0811
     17 C          -7.5755   -1.0676    1.7028 C.2     1  LIG1        0.2206
     18 C          -1.3445   -3.0880   -2.3233 C.3     1  LIG1        0.0422
     19 N          -6.1320    0.0689    0.0560 N.ar    1  LIG1       -0.3112
     20 N          -8.5803   -3.2964    1.0227 N.ar    1  LIG1       -0.3099
     21 O          -7.6605   -0.2749    2.6696 O.2     1  LIG1       -0.2856
     22 O          -1.7106   -1.7446   -2.6312 O.3     1  LIG1       -0.3493
     23 CL         -8.9656   -6.2866   -0.1098 Cl      1  LIG1       -0.0822
     24 H         -13.4421   -5.1237    1.3873 H       1  LIG1        0.0623
     25 H         -12.8128   -2.8586    2.1681 H       1  LIG1        0.0629
     26 H          -4.6438    1.6328   -1.8160 H       1  LIG1        0.0643
     27 H          -2.6567    0.6785   -2.9612 H       1  LIG1        0.0651
     28 H         -11.7712   -6.6246    0.3932 H       1  LIG1        0.0639
     29 H          -3.1799   -3.0591   -0.8869 H       1  LIG1        0.0657
     30 H         -10.4539   -0.9974    2.3867 H       1  LIG1        0.0651
     31 H          -5.5486   -3.0117    0.9648 H       1  LIG1        0.0651
     32 H          -0.4587   -3.3660   -2.8994 H       1  LIG1        0.0535
     33 H          -2.1742   -3.7571   -2.5646 H       1  LIG1        0.0535
     34 H          -1.1197   -3.1595   -1.2565 H       1  LIG1        0.0535
     35 H          -6.6309    0.9480    0.0588 H       1  LIG1        0.1529
     36 H          -7.7189   -3.6853    0.6642 H       1  LIG1        0.1530
@<TRIPOS>BOND
     1     1     2   ar
     2     1     5   ar
     3     2     9   ar
     4     3     4   ar
     5     3    11   ar
     6     4    13   ar
     7     5    14   ar
     8     6    10   ar
     9     6    13   ar
    10     7     9   ar
    11     7    15   ar
    12     8    10   ar
    13     8    16   ar
    14     9    12   ar
    15    10    11   ar
    16    11    19   ar
    17    12    14   ar
    18    12    20   ar
    19    13    22    1
    20    14    23    1
    21    15    17    1
    22    15    20   ar
    23    16    17    1
    24    16    19   ar
    25    17    21    2
    26    18    22    1
    27     1    24    1
    28     2    25    1
    29     3    26    1
    30     4    27    1
    31     5    28    1
    32     6    29    1
    33     7    30    1
    34     8    31    1
    35    18    32    1
    36    18    33    1
    37    18    34    1
    38    19    35    1
    39    20    36    1
