@<TRIPOS>MOLECULE
ChEBML1137618
 48 51 0 0 0
SMALL
USER_CHARGES

@<TRIPOS>ATOM
      1 C          -2.3869    0.8204   -3.5956 C.ar    1  LIG1       -0.0615
      2 C          -3.6547    1.2135   -3.2068 C.ar    1  LIG1       -0.0604
      3 C         -12.9809   -2.5083    1.8865 C.ar    1  LIG1       -0.0513
      4 C         -12.5280   -4.6769    0.9365 C.ar    1  LIG1       -0.0513
      5 C          -1.7179   -0.1631   -2.8907 C.ar    1  LIG1       -0.0481
      6 C          -4.2566    0.6243   -2.1126 C.ar    1  LIG1       -0.0403
      7 C         -14.3315   -2.7917    1.8765 C.ar    1  LIG1       -0.0428
      8 C         -13.8801   -4.9534    0.9361 C.ar    1  LIG1       -0.0428
      9 C         -10.0151   -1.9648    1.8817 C.ar    1  LIG1       -0.0059
     10 C         -12.0699   -3.4526    1.4183 C.ar    1  LIG1        0.0019
     11 C          -2.3140   -0.7562   -1.7949 C.ar    1  LIG1        0.0766
     12 C          -3.5893   -0.3680   -1.4051 C.ar    1  LIG1        0.0410
     13 C         -14.7816   -4.0118    1.4020 C.ar    1  LIG1        0.0406
     14 C         -10.6161   -3.1528    1.4270 C.ar    1  LIG1        0.0905
     15 C          -8.6584   -2.1476    1.6943 C.ar    1  LIG1        0.1123
     16 C          -7.5878   -1.1891    2.0133 C.2     1  LIG1        0.2614
     17 C          -4.5873    0.1140    0.6082 C.3     1  LIG1        0.0274
     18 C          -5.4303   -1.5981   -0.7890 C.3     1  LIG1        0.0274
     19 C          -5.2427   -0.4774    1.8604 C.3     1  LIG1        0.0303
     20 C          -6.1414   -2.3025    0.3709 C.3     1  LIG1        0.0303
     21 C          -1.5840   -1.8277   -1.0269 C.3     1  LIG1        0.4178
     22 N          -9.6550   -3.9504    1.0110 N.ar    1  LIG1       -0.1834
     23 N          -8.5070   -3.3915    1.1488 N.ar    1  LIG1       -0.2326
     24 N          -4.1974   -0.9696   -0.3010 N.pl3   1  LIG1       -0.3271
     25 N          -6.3752   -1.3174    1.4390 N.am    1  LIG1       -0.2935
     26 O          -7.7973   -0.2813    2.7951 O.2     1  LIG1       -0.2701
     27 F          -0.3286   -2.0429   -1.6054 F       1  LIG1       -0.1660
     28 F          -2.3240   -3.0143   -1.0639 F       1  LIG1       -0.1660
     29 F          -1.4216   -1.4206    0.3016 F       1  LIG1       -0.1660
     30 CL        -16.4817   -4.3625    1.3919 Cl      1  LIG1       -0.0843
     31 H          -1.9182    1.2831   -4.4516 H       1  LIG1        0.0623
     32 H          -4.1742    1.9823   -3.7594 H       1  LIG1        0.0623
     33 H         -12.6307   -1.5564    2.2572 H       1  LIG1        0.0630
     34 H         -11.8259   -5.4100    0.5679 H       1  LIG1        0.0630
     35 H          -0.7281   -0.4677   -3.1969 H       1  LIG1        0.0629
     36 H          -5.2464    0.9319   -1.8092 H       1  LIG1        0.0642
     37 H         -15.0385   -2.0605    2.2396 H       1  LIG1        0.0638
     38 H         -14.2358   -5.9043    0.5675 H       1  LIG1        0.0638
     39 H         -10.5089   -1.0956    2.2905 H       1  LIG1        0.0668
     40 H          -3.7029    0.6827    0.8956 H       1  LIG1        0.0485
     41 H          -5.2947    0.7732    0.1050 H       1  LIG1        0.0485
     42 H          -6.0862   -0.8344   -1.2069 H       1  LIG1        0.0485
     43 H          -5.1850   -2.3274   -1.5610 H       1  LIG1        0.0485
     44 H          -4.5174   -1.0840    2.4026 H       1  LIG1        0.0486
     45 H          -5.6014    0.3275    2.5019 H       1  LIG1        0.0486
     46 H          -5.5156   -3.1114    0.7481 H       1  LIG1        0.0486
     47 H          -7.0944   -2.7046    0.0273 H       1  LIG1        0.0486
     48 H          -7.6587   -3.7933    0.9044 H       1  LIG1        0.1757
@<TRIPOS>BOND
     1     1     2   ar
     2     1     5   ar
     3     2     6   ar
     4     3     7   ar
     5     3    10   ar
     6     4     8   ar
     7     4    10   ar
     8     5    11   ar
     9     6    12   ar
    10     7    13   ar
    11     8    13   ar
    12     9    14   ar
    13     9    15   ar
    14    10    14    1
    15    11    12   ar
    16    11    21    1
    17    12    24    1
    18    13    30    1
    19    14    22   ar
    20    15    16    1
    21    15    23   ar
    22    16    25   am
    23    16    26    2
    24    17    19    1
    25    17    24    1
    26    18    20    1
    27    18    24    1
    28    19    25    1
    29    20    25    1
    30    21    27    1
    31    21    28    1
    32    21    29    1
    33    22    23   ar
    34     1    31    1
    35     2    32    1
    36     3    33    1
    37     4    34    1
    38     5    35    1
    39     6    36    1
    40     7    37    1
    41     8    38    1
    42     9    39    1
    43    17    40    1
    44    17    41    1
    45    18    42    1
    46    18    43    1
    47    19    44    1
    48    19    45    1
    49    20    46    1
    50    20    47    1
    51    23    48    1
