@<TRIPOS>MOLECULE
ChEBML1172460
 39 43 0 0 0
SMALL
USER_CHARGES

@<TRIPOS>ATOM
      1 C         -12.6974   -4.7428    1.4709 C.ar    1  LIG1       -0.0615
      2 C         -11.8454   -5.5772    0.7499 C.ar    1  LIG1       -0.0603
      3 C         -12.2290   -3.5446    2.0222 C.ar    1  LIG1       -0.0530
      4 C          -3.6106    1.4405   -2.8998 C.ar    1  LIG1       -0.0545
      5 C          -2.9964   -0.6149   -1.7887 C.ar    1  LIG1       -0.0545
      6 C         -10.5021   -5.2425    0.5569 C.ar    1  LIG1       -0.0402
      7 C          -2.3509    1.4944   -3.4964 C.ar    1  LIG1       -0.0260
      8 C          -1.7368   -0.5611   -2.3853 C.ar    1  LIG1       -0.0260
      9 C         -10.0835   -2.0782    2.2472 C.ar    1  LIG1       -0.0294
     10 C          -7.0994   -1.1491    3.1433 C.ar    1  LIG1        0.0572
     11 C         -10.8784   -3.1862    1.8408 C.ar    1  LIG1       -0.0023
     12 C          -3.9333    0.3859   -2.0459 C.ar    1  LIG1       -0.0282
     13 C         -10.0478   -4.0417    1.1137 C.ar    1  LIG1        0.0377
     14 C          -1.4141    0.4936   -3.2392 C.ar    1  LIG1        0.1228
     15 C          -7.6284   -1.4600    1.8986 C.ar    1  LIG1        0.1051
     16 C          -8.8094   -2.2787    1.7683 C.ar    1  LIG1        0.0587
     17 C          -5.4583    0.0421    2.1580 C.ar    1  LIG1        0.2181
     18 C          -6.0100   -0.2854    0.9339 C.ar    1  LIG1        0.1896
     19 C          -5.2924    0.3267   -1.4025 C.3     1  LIG1        0.0631
     20 N          -5.9963   -0.3879    3.3244 N.ar    1  LIG1       -0.2301
     21 N          -7.1013   -1.0372    0.7266 N.ar    1  LIG1       -0.2244
     22 N          -4.3547    0.8211    1.9691 N.ar    1  LIG1       -0.1100
     23 N          -4.1996    0.9905    0.6562 N.ar    1  LIG1       -0.0717
     24 N          -8.7978   -3.4655    1.0857 N.ar    1  LIG1       -0.3126
     25 N          -5.1941    0.3259    0.0348 N.ar    1  LIG1       -0.1813
     26 F          -0.2052    0.5437   -3.8142 F       1  LIG1       -0.2069
     27 H         -13.7384   -5.0236    1.6074 H       1  LIG1        0.0623
     28 H         -12.2300   -6.5034    0.3307 H       1  LIG1        0.0623
     29 H         -12.9042   -2.9039    2.5821 H       1  LIG1        0.0629
     30 H          -4.3337    2.2254   -3.1057 H       1  LIG1        0.0627
     31 H          -3.2391   -1.4406   -1.1249 H       1  LIG1        0.0627
     32 H          -9.8388   -5.8916   -0.0046 H       1  LIG1        0.0642
     33 H          -2.0998    2.3150   -4.1618 H       1  LIG1        0.0653
     34 H          -1.0070   -1.3399   -2.1848 H       1  LIG1        0.0653
     35 H         -10.4147   -1.2274    2.8280 H       1  LIG1        0.0650
     36 H          -7.5549   -1.5092    4.0606 H       1  LIG1        0.0864
     37 H          -5.9106    1.1812   -1.7037 H       1  LIG1        0.0542
     38 H          -5.8370   -0.5746   -1.7092 H       1  LIG1        0.0542
     39 H          -7.9913   -3.8659    0.6258 H       1  LIG1        0.1528
@<TRIPOS>BOND
     1     1     2   ar
     2     1     3   ar
     3     2     6   ar
     4     3    11   ar
     5     4     7   ar
     6     4    12   ar
     7     5     8   ar
     8     5    12   ar
     9     6    13   ar
    10     7    14   ar
    11     8    14   ar
    12     9    11   ar
    13     9    16   ar
    14    10    15   ar
    15    10    20   ar
    16    11    13   ar
    17    12    19    1
    18    13    24   ar
    19    14    26    1
    20    15    16    1
    21    15    21   ar
    22    16    24   ar
    23    17    18   ar
    24    17    20   ar
    25    17    22   ar
    26    18    21   ar
    27    18    25   ar
    28    19    25    1
    29    22    23   ar
    30    23    25   ar
    31     1    27    1
    32     2    28    1
    33     3    29    1
    34     4    30    1
    35     5    31    1
    36     6    32    1
    37     7    33    1
    38     8    34    1
    39     9    35    1
    40    10    36    1
    41    19    37    1
    42    19    38    1
    43    24    39    1
