@<TRIPOS>MOLECULE
ChEBML785276
 33 34 0 0 0
SMALL
USER_CHARGES

@<TRIPOS>ATOM
      1 C         -10.0711   -2.0151    2.2666 C.ar    1  LIG1       -0.0345
      2 C         -10.9916   -3.0319    1.8804 C.ar    1  LIG1        0.0240
      3 C          -3.5793    1.3545   -3.0007 C.ar    1  LIG1        0.0481
      4 C          -1.7281   -0.1338   -3.1216 C.ar    1  LIG1       -0.0087
      5 C          -2.4237    0.9487   -3.6485 C.ar    1  LIG1        0.0634
      6 C          -2.2028   -0.7685   -1.9791 C.ar    1  LIG1        0.0855
      7 C          -8.7840   -2.3045    1.8700 C.ar    1  LIG1        0.0909
      8 C          -3.3683   -0.2857   -1.4060 C.ar    1  LIG1        0.1430
      9 C         -10.3729   -4.0596    1.2030 C.ar    1  LIG1        0.3018
     10 C          -7.5464   -1.5101    2.0743 C.2     1  LIG1        0.3002
     11 C          -5.0205   -0.5726    0.4683 C.2     1  LIG1        0.2438
     12 C          -0.4731   -0.6086   -3.7877 C.3     1  LIG1       -0.0366
     13 C          -5.2213   -1.4787    1.6635 C.3     1  LIG1        0.1336
     14 N          -4.0713    0.7631   -1.8891 N.ar    1  LIG1       -0.2380
     15 N          -3.8720   -0.9058   -0.2523 N.am    1  LIG1       -0.2668
     16 N         -10.9395   -5.2264    0.6698 N.pl3   1  LIG1        0.1098
     17 O          -7.5278   -0.4370    2.6569 O.2     1  LIG1       -0.2600
     18 O          -5.8161    0.3314    0.2315 O.2     1  LIG1       -0.2745
     19 O         -12.1806   -5.4302    0.7892 O.2     1  LIG1        0.0320
     20 O         -10.2040   -6.0636    0.0745 O.2     1  LIG1       -0.5798
     21 O          -6.4628   -2.1394    1.5312 O.3     1  LIG1       -0.3019
     22 S          -8.6891   -3.7968    1.0352 S.2     1  LIG1       -0.0093
     23 CL         -1.9023    1.7867   -5.0578 Cl      1  LIG1       -0.0823
     24 CL         -1.3557   -2.1170   -1.3040 Cl      1  LIG1       -0.0801
     25 H         -10.3453   -1.1180    2.8074 H       1  LIG1        0.0639
     26 H         -12.0532   -3.0041    2.0924 H       1  LIG1        0.0701
     27 H          -4.1681    2.1924   -3.3608 H       1  LIG1        0.0856
     28 H           0.3939   -0.0876   -3.3694 H       1  LIG1        0.0281
     29 H          -0.3391   -1.6867   -3.6477 H       1  LIG1        0.0281
     30 H          -0.5090   -0.4249   -4.8671 H       1  LIG1        0.0281
     31 H          -4.4151   -2.2165    1.7162 H       1  LIG1        0.0675
     32 H          -5.2198   -0.8988    2.5913 H       1  LIG1        0.0675
     33 H          -3.3321   -1.6982    0.1040 H       1  LIG1        0.1573
@<TRIPOS>BOND
     1     1     2   ar
     2     1     7   ar
     3     2     9   ar
     4     3     5   ar
     5     3    14   ar
     6     4     5   ar
     7     4     6   ar
     8     4    12    1
     9     5    23    1
    10     6     8   ar
    11     6    24    1
    12     7    10    1
    13     7    22   ar
    14     8    14   ar
    15     8    15    1
    16     9    16    1
    17     9    22   ar
    18    10    17    2
    19    10    21    1
    20    11    13    1
    21    11    15   am
    22    11    18    2
    23    13    21    1
    24    16    19    2
    25    16    20    2
    26     1    25    1
    27     2    26    1
    28     3    27    1
    29    12    28    1
    30    12    29    1
    31    12    30    1
    32    13    31    1
    33    13    32    1
    34    15    33    1
