@<TRIPOS>MOLECULE
ChEBML337364
 64 68 0 0 0
SMALL
USER_CHARGES

@<TRIPOS>ATOM
      1 C           0.4546   -3.7322   -1.5817 C.ar    1  LIG1       -0.0622
      2 C           0.5670   -2.5926   -0.7853 C.ar    1  LIG1       -0.0616
      3 C          -0.4642   -3.7619   -2.6309 C.ar    1  LIG1       -0.0616
      4 C         -14.8843   -6.1160   -0.4849 C.ar    1  LIG1       -0.0620
      5 C         -13.8839   -5.7575   -1.4000 C.ar    1  LIG1       -0.0619
      6 C          -2.3574    1.7347   -3.4721 C.ar    1  LIG1       -0.0431
      7 C          -0.2392   -1.4827   -1.0380 C.ar    1  LIG1       -0.0543
      8 C          -1.2704   -2.6521   -2.8836 C.ar    1  LIG1       -0.0543
      9 C          -1.5536    0.6281   -3.2217 C.ar    1  LIG1       -0.0505
     10 C         -14.7213   -5.8661    0.8781 C.ar    1  LIG1       -0.0587
     11 C         -12.7065   -5.1442   -0.9647 C.ar    1  LIG1       -0.0582
     12 C          -3.5832    1.8045   -2.8299 C.ar    1  LIG1        0.0278
     13 C          -1.1580   -1.5125   -2.0872 C.ar    1  LIG1       -0.0160
     14 C          -1.9939   -0.3610   -2.3492 C.ar    1  LIG1        0.0128
     15 C         -13.5559   -5.2460    1.2997 C.ar    1  LIG1       -0.0442
     16 C         -12.5502   -4.8871    0.3904 C.ar    1  LIG1       -0.0381
     17 C          -3.2360   -0.1972   -1.7571 C.ar    1  LIG1        0.1331
     18 C          -3.7883   -1.1994   -0.8098 C.2     1  LIG1        0.2622
     19 C         -13.1600   -4.9175    2.7029 C.3     1  LIG1       -0.0267
     20 C         -12.0465   -3.8898    2.4577 C.3     1  LIG1       -0.0390
     21 C         -10.2478   -5.3122    1.2896 C.3     1  LIG1       -0.0037
     22 C         -10.8091   -3.0203    0.3959 C.3     1  LIG1       -0.0037
     23 C          -8.9984   -4.7412    1.9523 C.3     1  LIG1       -0.0335
     24 C          -9.5814   -2.4555    1.0992 C.3     1  LIG1       -0.0335
     25 C         -11.3676   -4.2662    1.1062 C.3     1  LIG1        0.0058
     26 C          -6.5771   -2.0976    0.7039 C.3     1  LIG1        0.0020
     27 C          -5.2333   -1.5489    1.1766 C.3     1  LIG1        0.0163
     28 C          -7.2351   -2.9927    1.7466 C.3     1  LIG1       -0.0328
     29 N          -4.0448    0.8637   -1.9760 N.ar    1  LIG1       -0.2506
     30 N          -4.6370   -0.7047    0.1689 N.am    1  LIG1       -0.3098
     31 N          -8.5246   -3.5295    1.1889 N.4     1  LIG1        0.2461
     32 O          -3.4598   -2.3775   -0.9237 O.2     1  LIG1       -0.2700
     33 H           1.0837   -4.5956   -1.3858 H       1  LIG1        0.0622
     34 H           1.2835   -2.5686    0.0306 H       1  LIG1        0.0623
     35 H          -0.5513   -4.6484   -3.2524 H       1  LIG1        0.0623
     36 H         -15.7908   -6.5976   -0.8411 H       1  LIG1        0.0623
     37 H         -14.0244   -5.9650   -2.4573 H       1  LIG1        0.0623
     38 H          -2.0351    2.5182   -4.1482 H       1  LIG1        0.0639
     39 H          -0.1395   -0.6017   -0.4083 H       1  LIG1        0.0629
     40 H          -1.9816   -2.6897   -3.7054 H       1  LIG1        0.0629
     41 H          -0.5866    0.5525   -3.7126 H       1  LIG1        0.0630
     42 H         -15.4914   -6.1532    1.5862 H       1  LIG1        0.0625
     43 H         -11.9342   -4.8859   -1.6812 H       1  LIG1        0.0626
     44 H          -4.2467    2.6478   -2.9908 H       1  LIG1        0.0840
     45 H         -13.9821   -4.4836    3.2792 H       1  LIG1        0.0316
     46 H         -12.7773   -5.8096    3.2088 H       1  LIG1        0.0316
     47 H         -12.5101   -2.8955    2.3784 H       1  LIG1        0.0279
     48 H         -11.3537   -3.8430    3.3032 H       1  LIG1        0.0279
     49 H          -9.9656   -5.7200    0.3089 H       1  LIG1        0.0330
     50 H         -10.6021   -6.1677    1.8785 H       1  LIG1        0.0330
     51 H         -11.5767   -2.2395    0.3213 H       1  LIG1        0.0330
     52 H         -10.5321   -3.2685   -0.6373 H       1  LIG1        0.0330
     53 H          -9.1768   -4.4351    2.9881 H       1  LIG1        0.0815
     54 H          -8.1877   -5.4773    1.9316 H       1  LIG1        0.0815
     55 H          -9.1579   -1.6276    0.5209 H       1  LIG1        0.0815
     56 H          -9.8016   -2.1139    2.1162 H       1  LIG1        0.0815
     57 H          -6.4443   -2.6528   -0.2333 H       1  LIG1        0.0337
     58 H          -7.2395   -1.2516    0.4817 H       1  LIG1        0.0337
     59 H          -5.3790   -0.9580    2.0867 H       1  LIG1        0.0469
     60 H          -4.5490   -2.3682    1.4214 H       1  LIG1        0.0469
     61 H          -6.6182   -3.8596    1.9999 H       1  LIG1        0.0815
     62 H          -7.4888   -2.4420    2.6572 H       1  LIG1        0.0815
     63 H          -4.8123    0.2933    0.2376 H       1  LIG1        0.1497
     64 H          -8.3191   -3.8363    0.2280 H       1  LIG1        0.2003
@<TRIPOS>BOND
     1     1     2   ar
     2     1     3   ar
     3     2     7   ar
     4     3     8   ar
     5     4     5   ar
     6     4    10   ar
     7     5    11   ar
     8     6     9   ar
     9     6    12   ar
    10     7    13   ar
    11     8    13   ar
    12     9    14   ar
    13    10    15   ar
    14    11    16   ar
    15    12    29   ar
    16    13    14    1
    17    14    17   ar
    18    15    16   ar
    19    15    19    1
    20    16    25    1
    21    17    18    1
    22    17    29   ar
    23    18    30   am
    24    18    32    2
    25    19    20    1
    26    20    25    1
    27    21    23    1
    28    21    25    1
    29    22    24    1
    30    22    25    1
    31    23    31    1
    32    24    31    1
    33    26    27    1
    34    26    28    1
    35    27    30    1
    36    28    31    1
    37     1    33    1
    38     2    34    1
    39     3    35    1
    40     4    36    1
    41     5    37    1
    42     6    38    1
    43     7    39    1
    44     8    40    1
    45     9    41    1
    46    10    42    1
    47    11    43    1
    48    12    44    1
    49    19    45    1
    50    19    46    1
    51    20    47    1
    52    20    48    1
    53    21    49    1
    54    21    50    1
    55    22    51    1
    56    22    52    1
    57    23    53    1
    58    23    54    1
    59    24    55    1
    60    24    56    1
    61    26    57    1
    62    26    58    1
    63    27    59    1
    64    27    60    1
    65    28    61    1
    66    28    62    1
    67    30    63    1
    68    31    64    1
