@<TRIPOS>MOLECULE
ChEBML233253
 34 36 0 0 0
SMALL
USER_CHARGES

@<TRIPOS>ATOM
      1 C          -3.9073   -1.7732    1.3300 C.ar    1  LIG1       -0.0614
      2 C          -3.8272   -1.7623   -0.0625 C.ar    1  LIG1       -0.0604
      3 C          -5.1420   -1.6121    1.9588 C.ar    1  LIG1       -0.0491
      4 C         -10.3305   -5.0590    0.2830 C.ar    1  LIG1       -0.0376
      5 C          -4.9816   -1.5902   -0.8262 C.ar    1  LIG1       -0.0406
      6 C         -11.6329   -5.5034    0.5281 C.ar    1  LIG1       -0.0299
      7 C         -12.0306   -3.6694    2.0693 C.ar    1  LIG1       -0.0226
      8 C          -9.9618   -2.1008    2.3223 C.ar    1  LIG1       -0.0275
      9 C         -10.7215   -3.2024    1.8381 C.ar    1  LIG1        0.0003
     10 C          -6.2964   -1.4399    1.1951 C.ar    1  LIG1        0.0446
     11 C          -9.9032   -3.9065    0.9521 C.ar    1  LIG1        0.0379
     12 C          -6.2163   -1.4291   -0.1975 C.ar    1  LIG1        0.0347
     13 C         -12.4716   -4.8209    1.4070 C.ar    1  LIG1        0.0753
     14 C          -8.7202   -2.1567    1.7321 C.ar    1  LIG1        0.0798
     15 C          -7.6153   -1.2678    1.9058 C.2     1  LIG1        0.2084
     16 C         -14.1290   -6.4562    0.9228 C.3     1  LIG1        0.0422
     17 N          -8.6945   -3.2491    0.9072 N.ar    1  LIG1       -0.3112
     18 N          -7.3730   -1.2541   -0.9894 N.pl3   1  LIG1       -0.3577
     19 O          -7.6890   -0.2805    2.6741 O.2     1  LIG1       -0.2870
     20 O         -13.7365   -5.2791    1.6253 O.3     1  LIG1       -0.3493
     21 H          -3.0089   -1.9078    1.9250 H       1  LIG1        0.0623
     22 H          -2.8656   -1.8871   -0.5518 H       1  LIG1        0.0623
     23 H          -5.1903   -1.6212    3.0446 H       1  LIG1        0.0631
     24 H          -9.6784   -5.5908   -0.4018 H       1  LIG1        0.0643
     25 H          -4.9063   -1.5835   -1.9107 H       1  LIG1        0.0642
     26 H         -11.9897   -6.3968    0.0207 H       1  LIG1        0.0651
     27 H         -12.6910   -3.1424    2.7526 H       1  LIG1        0.0657
     28 H         -10.2925   -1.3498    3.0276 H       1  LIG1        0.0651
     29 H         -15.1579   -6.7129    1.1867 H       1  LIG1        0.0535
     30 H         -13.4585   -7.2785    1.1846 H       1  LIG1        0.0535
     31 H         -14.0674   -6.2662   -0.1514 H       1  LIG1        0.0535
     32 H          -7.9045   -3.5345    0.3450 H       1  LIG1        0.1529
     33 H          -7.2783   -1.2020   -1.9823 H       1  LIG1        0.1427
     34 H          -8.2495   -1.0917   -0.5389 H       1  LIG1        0.1427
@<TRIPOS>BOND
     1     1     2   ar
     2     1     3   ar
     3     2     5   ar
     4     3    10   ar
     5     4     6   ar
     6     4    11   ar
     7     5    12   ar
     8     6    13   ar
     9     7     9   ar
    10     7    13   ar
    11     8     9   ar
    12     8    14   ar
    13     9    11   ar
    14    10    12   ar
    15    10    15    1
    16    11    17   ar
    17    12    18    1
    18    13    20    1
    19    14    15    1
    20    14    17   ar
    21    15    19    2
    22    16    20    1
    23     1    21    1
    24     2    22    1
    25     3    23    1
    26     4    24    1
    27     5    25    1
    28     6    26    1
    29     7    27    1
    30     8    28    1
    31    16    29    1
    32    16    30    1
    33    16    31    1
    34    17    32    1
    35    18    33    1
    36    18    34    1
