@<TRIPOS>MOLECULE
ChEBML958424
 46 48 0 0 0
SMALL
USER_CHARGES

@<TRIPOS>ATOM
      1 C          -4.4589   -1.0176   -3.1776 C.1     1  LIG1        0.0883
      2 C         -10.3397   -5.1670    0.5202 C.ar    1  LIG1       -0.0280
      3 C         -11.6479   -5.6048    0.7479 C.ar    1  LIG1       -0.0291
      4 C         -12.1374   -3.6574    2.1281 C.ar    1  LIG1       -0.0215
      5 C         -10.8264   -3.1981    1.9123 C.ar    1  LIG1        0.0136
      6 C         -10.0659   -2.0691    2.3162 C.ar    1  LIG1       -0.0040
      7 C          -9.9761   -3.9631    1.1205 C.ar    1  LIG1        0.0901
      8 C         -12.5325   -4.8653    1.5370 C.ar    1  LIG1        0.0754
      9 C          -8.8203   -2.2184    1.7516 C.ar    1  LIG1        0.1579
     10 C          -7.6029   -1.3705    1.8093 C.2     1  LIG1        0.3174
     11 C          -4.6280   -1.4434   -0.2333 C.2     1  LIG1        0.2396
     12 C          -2.3870    1.2080   -3.6369 C.3     1  LIG1       -0.0501
     13 C          -1.5536   -0.0126   -3.2473 C.3     1  LIG1       -0.0501
     14 C          -3.5669    1.2434   -2.6672 C.3     1  LIG1       -0.0182
     15 C          -2.2729   -0.6578   -2.0638 C.3     1  LIG1       -0.0182
     16 C          -3.7295   -0.2047   -2.1966 C.3     1  LIG1        0.1209
     17 C         -10.5219   -0.9562    3.1718 C.3     1  LIG1       -0.0362
     18 C         -14.1476   -6.5583    1.1113 C.3     1  LIG1        0.0422
     19 C          -5.3679   -1.2048    1.0656 C.3     1  LIG1        0.1334
     20 N          -5.0353   -1.6603   -3.9529 N.1     1  LIG1       -0.1958
     21 N          -4.4155   -0.2618   -0.9236 N.am    1  LIG1       -0.2950
     22 O          -7.5464   -0.3210    2.4314 O.2     1  LIG1       -0.2582
     23 O          -4.2732   -2.5605   -0.5999 O.2     1  LIG1       -0.2749
     24 O          -8.7555   -3.3643    1.0245 O.2     1  LIG1       -0.3031
     25 O         -13.8007   -5.3248    1.7363 O.3     1  LIG1       -0.3493
     26 O          -6.5838   -1.9219    1.0858 O.3     1  LIG1       -0.3007
     27 H          -9.6480   -5.7349   -0.0906 H       1  LIG1        0.0651
     28 H         -11.9763   -6.5396    0.2990 H       1  LIG1        0.0651
     29 H         -12.8327   -3.0900    2.7401 H       1  LIG1        0.0658
     30 H          -1.8025    2.1322   -3.5854 H       1  LIG1        0.0268
     31 H          -2.7421    1.1025   -4.6685 H       1  LIG1        0.0268
     32 H          -1.4985   -0.7104   -4.0907 H       1  LIG1        0.0268
     33 H          -0.5272    0.2631   -2.9846 H       1  LIG1        0.0268
     34 H          -3.3188    1.9040   -1.8257 H       1  LIG1        0.0299
     35 H          -4.4677    1.6462   -3.1443 H       1  LIG1        0.0299
     36 H          -2.1574   -1.7474   -2.0685 H       1  LIG1        0.0299
     37 H          -1.8289   -0.2863   -1.1307 H       1  LIG1        0.0299
     38 H         -10.3281   -1.1681    4.2361 H       1  LIG1        0.0281
     39 H         -10.0164   -0.0078    2.9215 H       1  LIG1        0.0281
     40 H         -11.6027   -0.7641    3.0597 H       1  LIG1        0.0281
     41 H         -15.1838   -6.8099    1.3502 H       1  LIG1        0.0535
     42 H         -13.4791   -7.3474    1.4647 H       1  LIG1        0.0535
     43 H         -14.0413   -6.4507    0.0293 H       1  LIG1        0.0535
     44 H          -4.7496   -1.5464    1.9012 H       1  LIG1        0.0675
     45 H          -5.5769   -0.1376    1.1882 H       1  LIG1        0.0675
     46 H          -4.7564    0.6038   -0.5181 H       1  LIG1        0.1510
@<TRIPOS>BOND
     1     1    16    1
     2     1    20    3
     3     2     3   ar
     4     2     7   ar
     5     3     8   ar
     6     4     5   ar
     7     4     8   ar
     8     5     6   ar
     9     5     7   ar
    10     6     9   ar
    11     6    17    1
    12     7    24   ar
    13     8    25    1
    14     9    10    1
    15     9    24   ar
    16    10    22    2
    17    10    26    1
    18    11    19    1
    19    11    21   am
    20    11    23    2
    21    12    13    1
    22    12    14    1
    23    13    15    1
    24    14    16    1
    25    15    16    1
    26    16    21    1
    27    18    25    1
    28    19    26    1
    29     2    27    1
    30     3    28    1
    31     4    29    1
    32    12    30    1
    33    12    31    1
    34    13    32    1
    35    13    33    1
    36    14    34    1
    37    14    35    1
    38    15    36    1
    39    15    37    1
    40    17    38    1
    41    17    39    1
    42    17    40    1
    43    18    41    1
    44    18    42    1
    45    18    43    1
    46    19    44    1
    47    19    45    1
    48    21    46    1
