@<TRIPOS>MOLECULE
ChEBML347586
 36 39 0 0 0
SMALL
USER_CHARGES

@<TRIPOS>ATOM
      1 C          -2.8448   -2.0153   -1.8052 C.ar    1  LIG1       -0.0601
      2 C          -3.0525   -0.7005   -2.2174 C.ar    1  LIG1       -0.0586
      3 C          -3.6820   -2.6153   -0.8601 C.ar    1  LIG1       -0.0402
      4 C         -10.2646   -5.2503    0.6171 C.ar    1  LIG1       -0.0376
      5 C         -11.6008   -5.6314    0.7694 C.ar    1  LIG1       -0.0302
      6 C         -12.1586   -3.4889    1.7671 C.ar    1  LIG1       -0.0229
      7 C         -10.1018   -1.8941    1.9418 C.ar    1  LIG1       -0.0275
      8 C          -6.1026   -0.0701   -0.0184 C.ar    1  LIG1       -0.0273
      9 C         -10.8171   -3.0825    1.6237 C.ar    1  LIG1        0.0003
     10 C          -4.9649   -0.5277   -0.7404 C.ar    1  LIG1        0.0007
     11 C          -4.1077    0.0558   -1.6945 C.ar    1  LIG1       -0.0419
     12 C          -9.9029   -3.9708    1.0533 C.ar    1  LIG1        0.0379
     13 C          -4.7327   -1.8471   -0.3461 C.ar    1  LIG1        0.0380
     14 C         -12.5349   -4.7659    1.3353 C.ar    1  LIG1        0.0720
     15 C          -8.7916   -2.0806    1.5654 C.ar    1  LIG1        0.0811
     16 C          -6.5313   -1.1016    0.7850 C.ar    1  LIG1        0.0811
     17 C          -7.6363   -1.1196    1.6905 C.2     1  LIG1        0.2206
     18 C          -4.2811    1.4620   -2.1745 C.3     1  LIG1       -0.0391
     19 N          -8.6815   -3.3359    1.0303 N.ar    1  LIG1       -0.3112
     20 N          -5.6987   -2.1690    0.5806 N.ar    1  LIG1       -0.3112
     21 O          -7.7013   -0.3204    2.6536 O.2     1  LIG1       -0.2856
     22 O         -13.8306   -5.1666    1.4705 O.3     1  LIG1       -0.3609
     23 H          -2.0191   -2.5844   -2.2250 H       1  LIG1        0.0623
     24 H          -2.3816   -0.2649   -2.9542 H       1  LIG1        0.0625
     25 H          -3.5196   -3.6389   -0.5398 H       1  LIG1        0.0642
     26 H          -9.5382   -5.9247    0.1761 H       1  LIG1        0.0643
     27 H         -11.9082   -6.6208    0.4385 H       1  LIG1        0.0651
     28 H         -12.8932   -2.8196    2.2067 H       1  LIG1        0.0657
     29 H         -10.5067   -1.0002    2.3976 H       1  LIG1        0.0651
     30 H          -6.5572    0.9097   -0.0816 H       1  LIG1        0.0651
     31 H          -4.9380    1.4834   -3.0506 H       1  LIG1        0.0280
     32 H          -4.7172    2.0944   -1.3926 H       1  LIG1        0.0280
     33 H          -3.3169    1.9069   -2.4469 H       1  LIG1        0.0280
     34 H          -7.8287   -3.7414    0.6695 H       1  LIG1        0.1529
     35 H          -5.7788   -3.0654    1.0409 H       1  LIG1        0.1529
     36 H         -14.3578   -4.4618    1.8777 H       1  LIG1        0.2182
@<TRIPOS>BOND
     1     1     2   ar
     2     1     3   ar
     3     2    11   ar
     4     3    13   ar
     5     4     5   ar
     6     4    12   ar
     7     5    14   ar
     8     6     9   ar
     9     6    14   ar
    10     7     9   ar
    11     7    15   ar
    12     8    10   ar
    13     8    16   ar
    14     9    12   ar
    15    10    11   ar
    16    10    13   ar
    17    11    18    1
    18    12    19   ar
    19    13    20   ar
    20    14    22    1
    21    15    17    1
    22    15    19   ar
    23    16    17    1
    24    16    20   ar
    25    17    21    2
    26     1    23    1
    27     2    24    1
    28     3    25    1
    29     4    26    1
    30     5    27    1
    31     6    28    1
    32     7    29    1
    33     8    30    1
    34    18    31    1
    35    18    32    1
    36    18    33    1
    37    19    34    1
    38    20    35    1
    39    22    36    1
