@<TRIPOS>MOLECULE
ChEBML232487
 40 42 0 0 0
SMALL
USER_CHARGES

@<TRIPOS>ATOM
      1 C         -10.1531   -5.2394    0.7416 C.ar    1  LIG1       -0.0376
      2 C         -11.5157   -5.5261    0.8638 C.ar    1  LIG1       -0.0299
      3 C         -11.9767   -3.2783    1.6587 C.ar    1  LIG1       -0.0226
      4 C          -9.8319   -1.8000    1.7965 C.ar    1  LIG1       -0.0275
      5 C          -5.4447   -2.5633    0.6697 C.ar    1  LIG1       -0.0204
      6 C          -5.7933   -0.3082   -0.1240 C.ar    1  LIG1       -0.0204
      7 C          -3.9505   -1.6176   -0.9765 C.ar    1  LIG1       -0.0014
      8 C         -10.6074   -2.9660    1.5437 C.ar    1  LIG1        0.0003
      9 C          -6.1752   -1.3752    0.6893 C.ar    1  LIG1        0.0290
     10 C          -9.7290   -3.9517    1.0888 C.ar    1  LIG1        0.0379
     11 C         -12.4152   -4.5622    1.3151 C.ar    1  LIG1        0.0753
     12 C          -4.3323   -2.6845   -0.1631 C.ar    1  LIG1        0.0779
     13 C          -4.6809   -0.4295   -0.9569 C.ar    1  LIG1        0.0779
     14 C          -8.5221   -2.0950    1.4961 C.ar    1  LIG1        0.0797
     15 C          -7.3778   -1.2447    1.5899 C.2     1  LIG1        0.2068
     16 C         -14.1251   -6.1952    1.0594 C.3     1  LIG1        0.0422
     17 C          -2.4931   -3.8994   -1.0559 C.3     1  LIG1        0.0422
     18 C          -3.1613    0.4198   -2.5771 C.3     1  LIG1        0.0422
     19 N          -8.4701   -3.3950    1.0698 N.ar    1  LIG1       -0.3112
     20 O          -7.3155   -0.3294    2.4434 O.2     1  LIG1       -0.2871
     21 O         -13.7380   -4.8721    1.4236 O.3     1  LIG1       -0.3493
     22 O          -3.6187   -3.8437   -0.1812 O.3     1  LIG1       -0.3492
     23 O          -4.3080    0.6117   -1.7502 O.3     1  LIG1       -0.3492
     24 H          -9.4537   -5.9903    0.3900 H       1  LIG1        0.0643
     25 H         -11.8716   -6.5195    0.6005 H       1  LIG1        0.0651
     26 H         -12.6845   -2.5319    2.0091 H       1  LIG1        0.0657
     27 H         -10.1974   -0.8486    2.1598 H       1  LIG1        0.0651
     28 H          -5.7382   -3.3978    1.3024 H       1  LIG1        0.0658
     29 H          -6.3602    0.6199   -0.1121 H       1  LIG1        0.0658
     30 H          -3.0836   -1.7120   -1.6253 H       1  LIG1        0.0678
     31 H         -15.2036   -6.3099    1.1922 H       1  LIG1        0.0535
     32 H         -13.5915   -6.9167    1.6834 H       1  LIG1        0.0535
     33 H         -13.8694   -6.3643    0.0107 H       1  LIG1        0.0535
     34 H          -2.0139   -4.8779   -0.9725 H       1  LIG1        0.0535
     35 H          -1.7845   -3.1110   -0.7899 H       1  LIG1        0.0535
     36 H          -2.8335   -3.7493   -2.0832 H       1  LIG1        0.0535
     37 H          -2.9739    1.3263   -3.1578 H       1  LIG1        0.0535
     38 H          -3.3318   -0.4264   -3.2474 H       1  LIG1        0.0535
     39 H          -2.2965    0.2111   -1.9426 H       1  LIG1        0.0535
     40 H          -7.6308   -3.8793    0.7819 H       1  LIG1        0.1529
@<TRIPOS>BOND
     1     1     2   ar
     2     1    10   ar
     3     2    11   ar
     4     3     8   ar
     5     3    11   ar
     6     4     8   ar
     7     4    14   ar
     8     5     9   ar
     9     5    12   ar
    10     6     9   ar
    11     6    13   ar
    12     7    12   ar
    13     7    13   ar
    14     8    10   ar
    15     9    15    1
    16    10    19   ar
    17    11    21    1
    18    12    22    1
    19    13    23    1
    20    14    15    1
    21    14    19   ar
    22    15    20    2
    23    16    21    1
    24    17    22    1
    25    18    23    1
    26     1    24    1
    27     2    25    1
    28     3    26    1
    29     4    27    1
    30     5    28    1
    31     6    29    1
    32     7    30    1
    33    16    31    1
    34    16    32    1
    35    16    33    1
    36    17    34    1
    37    17    35    1
    38    17    36    1
    39    18    37    1
    40    18    38    1
    41    18    39    1
    42    19    40    1
