@<TRIPOS>MOLECULE
ChEBML1084562
 32 34 0 0 0
SMALL
USER_CHARGES

@<TRIPOS>ATOM
      1 C          -2.3698    1.0194   -3.6114 C.ar    1  LIG1       -0.0621
      2 C          -1.8404   -0.2178   -3.2445 C.ar    1  LIG1       -0.0604
      3 C          -3.3921    1.5925   -2.8551 C.ar    1  LIG1       -0.0604
      4 C         -10.0754   -1.8104    2.1994 C.ar    1  LIG1       -0.0455
      5 C          -2.3333   -0.8820   -2.1213 C.ar    1  LIG1       -0.0407
      6 C          -3.8851    0.9284   -1.7320 C.ar    1  LIG1       -0.0407
      7 C         -11.1050   -2.7112    1.9235 C.ar    1  LIG1       -0.0255
      8 C          -9.5123   -4.3258    1.0392 C.ar    1  LIG1       -0.0103
      9 C          -8.7784   -2.1892    1.8879 C.ar    1  LIG1        0.0535
     10 C          -3.3558   -0.3089   -1.3651 C.ar    1  LIG1        0.0325
     11 C         -10.8256   -3.9601    1.3474 C.ar    1  LIG1        0.1240
     12 C          -8.4937   -3.4279    1.3155 C.ar    1  LIG1        0.0420
     13 C          -7.5674   -1.3760    2.1050 C.ar    1  LIG1        0.2571
     14 C          -4.8648   -0.5603    0.6359 C.2     1  LIG1        0.2346
     15 C          -5.0906   -1.5845    1.7314 C.3     1  LIG1        0.1035
     16 N          -6.4488   -2.0762    1.6733 N.ar    1  LIG1       -0.2281
     17 N          -3.8557   -0.9828   -0.2254 N.am    1  LIG1       -0.2840
     18 O          -7.6130   -0.2588    2.5962 O.2     1  LIG1       -0.2706
     19 O          -5.5197    0.4746    0.5634 O.2     1  LIG1       -0.2754
     20 F         -11.8291   -4.8099    1.0907 F       1  LIG1       -0.2069
     21 S          -6.7615   -3.6320    1.0296 S.2     1  LIG1       -0.0188
     22 H          -1.9856    1.5371   -4.4855 H       1  LIG1        0.0622
     23 H          -1.0438   -0.6640   -3.8326 H       1  LIG1        0.0623
     24 H          -3.8034    2.5565   -3.1405 H       1  LIG1        0.0623
     25 H         -10.2962   -0.8462    2.6443 H       1  LIG1        0.0632
     26 H          -1.9130   -1.8457   -1.8449 H       1  LIG1        0.0642
     27 H          -4.6820    1.3848   -1.1500 H       1  LIG1        0.0642
     28 H         -12.1324   -2.4449    2.1560 H       1  LIG1        0.0653
     29 H          -9.3073   -5.2938    0.5938 H       1  LIG1        0.0666
     30 H          -4.9088   -1.1266    2.7088 H       1  LIG1        0.0581
     31 H          -4.3891   -2.4133    1.5938 H       1  LIG1        0.0581
     32 H          -3.4179   -1.8793   -0.0242 H       1  LIG1        0.1557
@<TRIPOS>BOND
     1     1     2   ar
     2     1     3   ar
     3     2     5   ar
     4     3     6   ar
     5     4     7   ar
     6     4     9   ar
     7     5    10   ar
     8     6    10   ar
     9     7    11   ar
    10     8    11   ar
    11     8    12   ar
    12     9    12   ar
    13     9    13   ar
    14    10    17    1
    15    11    20    1
    16    12    21   ar
    17    13    16   ar
    18    13    18    2
    19    14    15    1
    20    14    17   am
    21    14    19    2
    22    15    16    1
    23    16    21   ar
    24     1    22    1
    25     2    23    1
    26     3    24    1
    27     4    25    1
    28     5    26    1
    29     6    27    1
    30     7    28    1
    31     8    29    1
    32    15    30    1
    33    15    31    1
    34    17    32    1
