@<TRIPOS>MOLECULE
ChEBML300361
 47 49 0 0 0
SMALL
USER_CHARGES

@<TRIPOS>ATOM
      1 C         -10.2967   -5.2218    0.5523 C.ar    1  LIG1       -0.0387
      2 C         -11.6492   -5.5608    0.6508 C.ar    1  LIG1       -0.0416
      3 C         -12.1368   -3.5054    1.8484 C.ar    1  LIG1       -0.0343
      4 C         -10.0211   -2.0213    2.2033 C.ar    1  LIG1       -0.0262
      5 C         -10.7781   -3.1423    1.7614 C.ar    1  LIG1       -0.0007
      6 C          -9.8912   -4.0072    1.1167 C.ar    1  LIG1        0.0379
      7 C         -12.5568   -4.7173    1.2885 C.ar    1  LIG1        0.0413
      8 C          -8.7137   -2.2236    1.8256 C.ar    1  LIG1        0.0945
      9 C          -7.5407   -1.3415    2.0554 C.2     1  LIG1        0.2576
     10 C          -4.1673   -1.3491    0.5564 C.2     1  LIG1        0.2320
     11 C          -2.4188   -1.7793   -1.5390 C.3     1  LIG1       -0.0176
     12 C          -3.4196   -0.9603   -2.3500 C.3     1  LIG1        0.0183
     13 C          -1.5568    0.4584   -1.0653 C.3     1  LIG1        0.0351
     14 C          -1.9144   -0.8758   -0.4082 C.3     1  LIG1        0.0421
     15 C          -5.0967   -1.0704    1.7246 C.3     1  LIG1        0.0887
     16 C          -2.5385    0.1585    1.7401 C.3     1  LIG1        0.0378
     17 C          -1.3076   -0.3998    2.4306 C.3     1  LIG1        0.0589
     18 N          -8.6453   -3.4239    1.1706 N.ar    1  LIG1       -0.3101
     19 N          -6.3228   -1.7975    1.5606 N.am    1  LIG1       -0.3013
     20 N          -2.9118   -0.7117    0.6220 N.am    1  LIG1       -0.2936
     21 O          -7.6921   -0.2902    2.6721 O.2     1  LIG1       -0.2704
     22 O          -4.5183   -2.0881   -0.3672 O.2     1  LIG1       -0.2756
     23 O          -3.7949    1.6039   -1.8622 O.2     1  LIG1       -0.4989
     24 O          -2.0844    0.9288   -3.6092 O.2     1  LIG1       -0.4989
     25 O          -1.6023   -1.6897    2.9513 O.3     1  LIG1       -0.3947
     26 S          -2.7728    0.7043   -2.3551 S.O2    1  LIG1       -0.2574
     27 CL        -14.2165   -5.1692    1.3885 Cl      1  LIG1       -0.0843
     28 H          -9.5910   -5.8797    0.0561 H       1  LIG1        0.0643
     29 H         -11.9824   -6.5018    0.2181 H       1  LIG1        0.0639
     30 H         -12.8434   -2.8466    2.3464 H       1  LIG1        0.0645
     31 H         -10.3970   -1.1603    2.7400 H       1  LIG1        0.0651
     32 H          -2.8768   -2.7016   -1.1670 H       1  LIG1        0.0301
     33 H          -1.5745   -2.0594   -2.1812 H       1  LIG1        0.0301
     34 H          -3.5189   -1.3213   -3.3758 H       1  LIG1        0.0462
     35 H          -4.4004   -0.9398   -1.8661 H       1  LIG1        0.0462
     36 H          -1.5796    1.3067   -0.3772 H       1  LIG1        0.0480
     37 H          -0.5792    0.3973   -1.5536 H       1  LIG1        0.0480
     38 H          -1.0371   -1.3101    0.0815 H       1  LIG1        0.0522
     39 H          -4.6393   -1.4003    2.6608 H       1  LIG1        0.0567
     40 H          -5.3473   -0.0073    1.7668 H       1  LIG1        0.0567
     41 H          -3.3878    0.2160    2.4283 H       1  LIG1        0.0493
     42 H          -2.3321    1.1564    1.3416 H       1  LIG1        0.0493
     43 H          -1.0225    0.2454    3.2675 H       1  LIG1        0.0580
     44 H          -0.4619   -0.4834    1.7403 H       1  LIG1        0.0580
     45 H          -7.8037   -3.8269    0.7818 H       1  LIG1        0.1529
     46 H          -6.2725   -2.7128    1.1143 H       1  LIG1        0.1503
     47 H          -0.7931   -2.0087    3.3822 H       1  LIG1        0.2101
@<TRIPOS>BOND
     1     1     2   ar
     2     1     6   ar
     3     2     7   ar
     4     3     5   ar
     5     3     7   ar
     6     4     5   ar
     7     4     8   ar
     8     5     6   ar
     9     6    18   ar
    10     7    27    1
    11     8     9    1
    12     8    18   ar
    13     9    19   am
    14     9    21    2
    15    10    15    1
    16    10    20   am
    17    10    22    2
    18    11    12    1
    19    11    14    1
    20    12    26    1
    21    13    14    1
    22    13    26    1
    23    14    20    1
    24    15    19    1
    25    16    17    1
    26    16    20    1
    27    17    25    1
    28    23    26    2
    29    24    26    2
    30     1    28    1
    31     2    29    1
    32     3    30    1
    33     4    31    1
    34    11    32    1
    35    11    33    1
    36    12    34    1
    37    12    35    1
    38    13    36    1
    39    13    37    1
    40    14    38    1
    41    15    39    1
    42    15    40    1
    43    16    41    1
    44    16    42    1
    45    17    43    1
    46    17    44    1
    47    18    45    1
    48    19    46    1
    49    25    47    1
