@<TRIPOS>MOLECULE
ChEBML300360
 46 48 0 0 0
SMALL
USER_CHARGES

@<TRIPOS>ATOM
      1 C          -3.5460    1.3599   -3.8919 C.ar    1  LIG1       -0.0435
      2 C          -3.3878    0.3383   -2.9620 C.ar    1  LIG1       -0.0544
      3 C         -10.3427   -5.1745    0.4638 C.ar    1  LIG1       -0.0387
      4 C         -11.6798   -5.5304    0.6621 C.ar    1  LIG1       -0.0416
      5 C         -12.0853   -3.5143    1.9536 C.ar    1  LIG1       -0.0343
      6 C          -9.9603   -2.0183    2.1778 C.ar    1  LIG1       -0.0262
      7 C          -2.5984    2.3704   -3.9128 C.ar    1  LIG1        0.0268
      8 C          -1.4098    1.4136   -2.1953 C.ar    1  LIG1        0.0316
      9 C         -10.7413   -3.1346    1.7670 C.ar    1  LIG1       -0.0007
     10 C          -2.3019    0.3583   -2.0937 C.ar    1  LIG1       -0.0123
     11 C          -9.9027   -3.9717    1.0279 C.ar    1  LIG1        0.0379
     12 C         -12.5394   -4.7147    1.3952 C.ar    1  LIG1        0.0413
     13 C          -8.6863   -2.1961    1.6895 C.ar    1  LIG1        0.0945
     14 C          -7.5058   -1.3083    1.8485 C.2     1  LIG1        0.2576
     15 C          -4.2659   -1.2383    0.0809 C.2     1  LIG1        0.2320
     16 C          -2.1029   -0.7302   -1.0790 C.3     1  LIG1        0.0408
     17 C          -5.0993   -1.0020    1.3282 C.3     1  LIG1        0.0887
     18 C          -2.5481    0.2424    1.1414 C.3     1  LIG1        0.0378
     19 C          -1.7828   -0.6036    2.1425 C.3     1  LIG1        0.0589
     20 N          -1.5305    2.4238   -3.0856 N.ar    1  LIG1       -0.2643
     21 N          -8.6615   -3.3769    0.9972 N.ar    1  LIG1       -0.3101
     22 N          -6.3285   -1.7373    1.2435 N.am    1  LIG1       -0.3013
     23 N          -3.0211   -0.5999    0.0498 N.am    1  LIG1       -0.2938
     24 O          -7.6153   -0.2762    2.5053 O.2     1  LIG1       -0.2704
     25 O          -4.6848   -1.9550   -0.8319 O.2     1  LIG1       -0.2756
     26 O          -0.6913   -1.2377    1.4880 O.3     1  LIG1       -0.3947
     27 CL        -14.1816   -5.1867    1.6167 Cl      1  LIG1       -0.0843
     28 H          -4.3846    1.3648   -4.5788 H       1  LIG1        0.0639
     29 H          -4.1146   -0.4684   -2.9213 H       1  LIG1        0.0627
     30 H          -9.6743   -5.8108   -0.1066 H       1  LIG1        0.0643
     31 H         -12.0393   -6.4625    0.2312 H       1  LIG1        0.0639
     32 H         -12.7545   -2.8773    2.5260 H       1  LIG1        0.0645
     33 H         -10.2983   -1.1766    2.7675 H       1  LIG1        0.0651
     34 H          -2.6771    3.1902   -4.6193 H       1  LIG1        0.0839
     35 H          -0.5437    1.4827   -1.5445 H       1  LIG1        0.0843
     36 H          -2.2633   -1.7146   -1.5323 H       1  LIG1        0.0521
     37 H          -1.0819   -0.7169   -0.6835 H       1  LIG1        0.0521
     38 H          -4.5643   -1.3530    2.2145 H       1  LIG1        0.0567
     39 H          -5.3545    0.0568    1.4210 H       1  LIG1        0.0567
     40 H          -3.4161    0.7200    1.6069 H       1  LIG1        0.0493
     41 H          -1.8978    1.0147    0.7193 H       1  LIG1        0.0493
     42 H          -2.4334   -1.3845    2.5480 H       1  LIG1        0.0580
     43 H          -1.3947    0.0020    2.9679 H       1  LIG1        0.0580
     44 H          -7.8511   -3.7600    0.5300 H       1  LIG1        0.1529
     45 H          -6.3071   -2.6392    0.7687 H       1  LIG1        0.1503
     46 H          -0.2309   -1.7658    2.1600 H       1  LIG1        0.2101
@<TRIPOS>BOND
     1     1     2   ar
     2     1     7   ar
     3     2    10   ar
     4     3     4   ar
     5     3    11   ar
     6     4    12   ar
     7     5     9   ar
     8     5    12   ar
     9     6     9   ar
    10     6    13   ar
    11     7    20   ar
    12     8    10   ar
    13     8    20   ar
    14     9    11   ar
    15    10    16    1
    16    11    21   ar
    17    12    27    1
    18    13    14    1
    19    13    21   ar
    20    14    22   am
    21    14    24    2
    22    15    17    1
    23    15    23   am
    24    15    25    2
    25    16    23    1
    26    17    22    1
    27    18    19    1
    28    18    23    1
    29    19    26    1
    30     1    28    1
    31     2    29    1
    32     3    30    1
    33     4    31    1
    34     5    32    1
    35     6    33    1
    36     7    34    1
    37     8    35    1
    38    16    36    1
    39    16    37    1
    40    17    38    1
    41    17    39    1
    42    18    40    1
    43    18    41    1
    44    19    42    1
    45    19    43    1
    46    21    44    1
    47    22    45    1
    48    26    46    1
