@<TRIPOS>MOLECULE
ChEBML501768
 57 60 0 0 0
SMALL
USER_CHARGES

@<TRIPOS>ATOM
      1 C         -10.2139   -5.2371    0.5973 C.ar    1  LIG1       -0.0376
      2 C         -11.5455   -5.6382    0.7381 C.ar    1  LIG1       -0.0299
      3 C         -12.1376   -3.5155    1.7583 C.ar    1  LIG1       -0.0226
      4 C         -10.1035   -1.8952    1.9629 C.ar    1  LIG1       -0.0261
      5 C         -10.8009   -3.0892    1.6270 C.ar    1  LIG1        0.0004
      6 C          -9.8718   -3.9582    1.0508 C.ar    1  LIG1        0.0380
      7 C         -12.4942   -4.7922    1.3093 C.ar    1  LIG1        0.0761
      8 C          -8.7890   -2.0594    1.5914 C.ar    1  LIG1        0.0947
      9 C          -7.7075   -1.1357    1.7265 C.2     1  LIG1        0.2599
     10 C         -15.1348   -4.2973   -0.3282 C.3     1  LIG1        0.0135
     11 C         -15.5082   -6.6386    0.5129 C.3     1  LIG1        0.0135
     12 C          -6.9474   -1.6687   -0.6173 C.3     1  LIG1        0.0381
     13 C          -5.3018   -0.8804    1.0363 C.3     1  LIG1        0.0381
     14 C         -15.9827   -4.6047   -1.5525 C.3     1  LIG1       -0.0316
     15 C         -16.3554   -6.9406   -0.7131 C.3     1  LIG1       -0.0316
     16 C          -6.3369   -0.6854   -1.6091 C.3     1  LIG1        0.0625
     17 C          -4.7698    0.0758   -0.0212 C.3     1  LIG1        0.0625
     18 C         -14.4726   -5.5531    0.2309 C.3     1  LIG1        0.0741
     19 C         -17.1461   -5.9318   -3.6387 C.3     1  LIG1       -0.0228
     20 C         -19.0188   -4.8494   -2.3366 C.3     1  LIG1       -0.0228
     21 C         -17.9446   -5.9251   -2.3450 C.3     1  LIG1       -0.0292
     22 N          -8.6592   -3.3066    1.0419 N.ar    1  LIG1       -0.3101
     23 N          -6.6955   -1.2239    0.7587 N.am    1  LIG1       -0.2921
     24 N         -17.0006   -5.6654   -1.2034 N.4     1  LIG1        0.2479
     25 O          -7.6870   -0.3194    2.6495 O.2     1  LIG1       -0.2701
     26 O          -4.9503   -0.4830   -1.3254 O.3     1  LIG1       -0.3781
     27 O         -13.7915   -5.2139    1.4335 O.3     1  LIG1       -0.3423
     28 H          -9.4762   -5.8962    0.1523 H       1  LIG1        0.0643
     29 H         -11.8377   -6.6276    0.3938 H       1  LIG1        0.0651
     30 H         -12.8834   -2.8615    2.2021 H       1  LIG1        0.0657
     31 H         -10.5227   -1.0124    2.4273 H       1  LIG1        0.0651
     32 H         -14.3671   -3.5560   -0.5808 H       1  LIG1        0.0348
     33 H         -15.7532   -3.8280    0.4485 H       1  LIG1        0.0348
     34 H         -16.1507   -6.3291    1.3479 H       1  LIG1        0.0348
     35 H         -15.0044   -7.5518    0.8517 H       1  LIG1        0.0348
     36 H          -8.0136   -1.7924   -0.8210 H       1  LIG1        0.0493
     37 H          -6.4669   -2.6492   -0.7158 H       1  LIG1        0.0493
     38 H          -4.7395   -1.8215    1.0124 H       1  LIG1        0.0493
     39 H          -5.1929   -0.4457    2.0342 H       1  LIG1        0.0493
     40 H         -16.5324   -3.7146   -1.8752 H       1  LIG1        0.0815
     41 H         -15.3777   -4.9842   -2.3836 H       1  LIG1        0.0815
     42 H         -15.7550   -7.3474   -1.5345 H       1  LIG1        0.0815
     43 H         -17.1590   -7.6413   -0.4640 H       1  LIG1        0.0815
     44 H          -6.4177   -1.0802   -2.6267 H       1  LIG1        0.0583
     45 H          -6.8553    0.2804   -1.5823 H       1  LIG1        0.0583
     46 H          -5.2731    1.0487    0.0285 H       1  LIG1        0.0583
     47 H          -3.6987    0.2437    0.1276 H       1  LIG1        0.0583
     48 H         -13.7274   -5.9229   -0.4834 H       1  LIG1        0.0613
     49 H         -16.7035   -4.9473   -3.8231 H       1  LIG1        0.0287
     50 H         -16.3333   -6.6659   -3.6063 H       1  LIG1        0.0287
     51 H         -17.7862   -6.1757   -4.4936 H       1  LIG1        0.0287
     52 H         -18.5780   -3.8637   -2.5197 H       1  LIG1        0.0287
     53 H         -19.5424   -4.8109   -1.3751 H       1  LIG1        0.0287
     54 H         -19.7633   -5.0325   -3.1188 H       1  LIG1        0.0287
     55 H         -18.3864   -6.9098   -2.1619 H       1  LIG1        0.0846
     56 H          -7.7990   -3.6961    0.6808 H       1  LIG1        0.1529
     57 H         -17.5730   -5.2966   -0.4314 H       1  LIG1        0.2006
@<TRIPOS>BOND
     1     1     2   ar
     2     1     6   ar
     3     2     7   ar
     4     3     5   ar
     5     3     7   ar
     6     4     5   ar
     7     4     8   ar
     8     5     6   ar
     9     6    22   ar
    10     7    27    1
    11     8     9    1
    12     8    22   ar
    13     9    23   am
    14     9    25    2
    15    10    14    1
    16    10    18    1
    17    11    15    1
    18    11    18    1
    19    12    16    1
    20    12    23    1
    21    13    17    1
    22    13    23    1
    23    14    24    1
    24    15    24    1
    25    16    26    1
    26    17    26    1
    27    18    27    1
    28    19    21    1
    29    20    21    1
    30    21    24    1
    31     1    28    1
    32     2    29    1
    33     3    30    1
    34     4    31    1
    35    10    32    1
    36    10    33    1
    37    11    34    1
    38    11    35    1
    39    12    36    1
    40    12    37    1
    41    13    38    1
    42    13    39    1
    43    14    40    1
    44    14    41    1
    45    15    42    1
    46    15    43    1
    47    16    44    1
    48    16    45    1
    49    17    46    1
    50    17    47    1
    51    18    48    1
    52    19    49    1
    53    19    50    1
    54    19    51    1
    55    20    52    1
    56    20    53    1
    57    20    54    1
    58    21    55    1
    59    22    56    1
    60    24    57    1
