@<TRIPOS>MOLECULE
ChEBML903451
 42 45 0 0 0
SMALL
USER_CHARGES

@<TRIPOS>ATOM
      1 C          -2.3273   -0.4093   -3.2154 C.ar    1  LIG1       -0.0613
      2 C          -2.7869    0.8841   -3.4567 C.ar    1  LIG1       -0.0601
      3 C          -2.7015   -1.0776   -2.0506 C.ar    1  LIG1       -0.0475
      4 C         -13.1425   -3.2683    1.4165 C.ar    1  LIG1       -0.0568
      5 C         -12.1198   -2.3834    1.7703 C.ar    1  LIG1       -0.0349
      6 C          -3.6230    1.5138   -2.5331 C.ar    1  LIG1       -0.0356
      7 C         -11.5190   -4.9028    0.6607 C.ar    1  LIG1       -0.0427
      8 C          -3.5394   -0.4428   -1.1277 C.ar    1  LIG1        0.0633
      9 C         -12.8438   -4.5111    0.8690 C.ar    1  LIG1       -0.0470
     10 C         -10.7724   -2.7543    1.5704 C.ar    1  LIG1        0.0799
     11 C          -4.0083    0.8573   -1.3590 C.ar    1  LIG1        0.0771
     12 C         -10.4967   -4.0091    1.0186 C.ar    1  LIG1        0.0411
     13 C          -8.5691   -2.6444    1.5542 C.ar    1  LIG1        0.1645
     14 C          -5.1871    0.8866    0.6204 C.ar    1  LIG1        0.0905
     15 C          -3.9468   -1.1370    0.1156 C.ar    1  LIG1        0.2532
     16 C          -6.7734   -1.0059    2.2138 C.2     1  LIG1        0.2355
     17 C         -14.3439   -6.3632    1.6476 C.3     1  LIG1       -0.0613
     18 C         -13.9513   -5.4403    0.4974 C.3     1  LIG1       -0.0307
     19 C          -5.2576   -0.9609    2.2054 C.3     1  LIG1        0.0978
     20 N          -9.6583   -1.9847    1.8720 N.ar    1  LIG1       -0.2252
     21 N          -4.8509    1.5230   -0.4528 N.ar    1  LIG1       -0.2403
     22 N          -4.7857   -0.3948    0.9512 N.ar    1  LIG1       -0.2487
     23 N          -7.2277   -2.2179    1.7007 N.am    1  LIG1       -0.2628
     24 O          -3.5448   -2.2751    0.3379 O.2     1  LIG1       -0.2711
     25 O          -7.4528   -0.0760    2.6370 O.2     1  LIG1       -0.2754
     26 S          -8.7887   -4.2033    0.8852 S.2     1  LIG1       -0.0519
     27 H          -1.6766   -0.8970   -3.9356 H       1  LIG1        0.0623
     28 H          -2.4942    1.4035   -4.3647 H       1  LIG1        0.0623
     29 H          -2.3332   -2.0854   -1.8812 H       1  LIG1        0.0631
     30 H         -14.1763   -2.9717    1.5753 H       1  LIG1        0.0626
     31 H         -12.3648   -1.4152    2.1978 H       1  LIG1        0.0646
     32 H          -3.9726    2.5233   -2.7365 H       1  LIG1        0.0645
     33 H         -11.2850   -5.8734    0.2322 H       1  LIG1        0.0638
     34 H          -5.8460    1.3603    1.3653 H       1  LIG1        0.1017
     35 H         -13.4842   -6.9463    1.9949 H       1  LIG1        0.0234
     36 H         -15.1236   -7.0636    1.3325 H       1  LIG1        0.0234
     37 H         -14.7266   -5.7897    2.4987 H       1  LIG1        0.0234
     38 H         -14.8366   -4.8706    0.1737 H       1  LIG1        0.0313
     39 H         -13.6628   -6.0510   -0.3727 H       1  LIG1        0.0313
     40 H          -4.8569   -1.9726    2.3237 H       1  LIG1        0.0575
     41 H          -4.9151   -0.3453    3.0430 H       1  LIG1        0.0575
     42 H          -6.5237   -2.8848    1.3913 H       1  LIG1        0.1577
@<TRIPOS>BOND
     1     1     2   ar
     2     1     3   ar
     3     2     6   ar
     4     3     8   ar
     5     4     5   ar
     6     4     9   ar
     7     5    10   ar
     8     6    11   ar
     9     7     9   ar
    10     7    12   ar
    11     8    11   ar
    12     8    15   ar
    13     9    18    1
    14    10    12   ar
    15    10    20   ar
    16    11    21   ar
    17    12    26   ar
    18    13    20   ar
    19    13    23    1
    20    13    26   ar
    21    14    21   ar
    22    14    22   ar
    23    15    22   ar
    24    15    24    2
    25    16    19    1
    26    16    23   am
    27    16    25    2
    28    17    18    1
    29    19    22    1
    30     1    27    1
    31     2    28    1
    32     3    29    1
    33     4    30    1
    34     5    31    1
    35     6    32    1
    36     7    33    1
    37    14    34    1
    38    17    35    1
    39    17    36    1
    40    17    37    1
    41    18    38    1
    42    18    39    1
    43    19    40    1
    44    19    41    1
    45    23    42    1
