@<TRIPOS>MOLECULE
ChEBML486730
 37 39 0 0 0
SMALL
USER_CHARGES

@<TRIPOS>ATOM
      1 C          -2.8407    1.6165   -3.1782 C.ar    1  LIG1       -0.0601
      2 C          -1.7519    0.7594   -3.3377 C.ar    1  LIG1       -0.0592
      3 C         -10.8191   -2.7972    2.5580 C.ar    1  LIG1       -0.0566
      4 C          -3.8966    1.2546   -2.3415 C.ar    1  LIG1       -0.0407
      5 C          -9.9245   -1.7608    2.8158 C.ar    1  LIG1       -0.0302
      6 C          -9.3139   -3.6900    0.8807 C.ar    1  LIG1       -0.0494
      7 C          -2.7748   -0.8216   -1.8240 C.ar    1  LIG1       -0.0378
      8 C          -8.4112   -2.6541    1.1327 C.ar    1  LIG1        0.0067
      9 C         -10.5148   -3.7597    1.5929 C.ar    1  LIG1       -0.0503
     10 C          -1.7190   -0.4596   -2.6607 C.ar    1  LIG1       -0.0492
     11 C          -3.8635    0.0355   -1.6645 C.ar    1  LIG1        0.0330
     12 C          -8.7314   -1.7041    2.0981 C.ar    1  LIG1        0.0929
     13 C          -7.1488   -2.5353    0.4202 C.ar    1  LIG1       -0.0335
     14 C          -6.3172   -1.5264    0.6958 C.ar    1  LIG1        0.1108
     15 C          -6.6323   -0.5042    1.7160 C.ar    1  LIG1        0.3032
     16 C          -5.0654   -1.4961   -0.0713 C.2     1  LIG1        0.2534
     17 C         -11.4751   -4.8690    1.3223 C.3     1  LIG1       -0.0397
     18 C          -0.5547   -1.3756   -2.8315 C.3     1  LIG1       -0.0397
     19 N          -4.9355   -0.3313   -0.8146 N.am    1  LIG1       -0.2811
     20 O          -5.8677    0.4204    1.9682 O.2     1  LIG1       -0.2600
     21 O          -4.2827   -2.4416    0.0017 O.2     1  LIG1       -0.2712
     22 O          -7.8473   -0.6441    2.3814 O.2     1  LIG1       -0.2735
     23 H          -2.8662    2.5660   -3.7050 H       1  LIG1        0.0623
     24 H          -0.9346    1.0498   -3.9921 H       1  LIG1        0.0625
     25 H         -11.7520   -2.8493    3.1127 H       1  LIG1        0.0626
     26 H          -4.7400    1.9303   -2.2249 H       1  LIG1        0.0642
     27 H         -10.1596   -1.0115    3.5653 H       1  LIG1        0.0651
     28 H          -9.0878   -4.4456    0.1313 H       1  LIG1        0.0633
     29 H          -2.7472   -1.7732   -1.2976 H       1  LIG1        0.0645
     30 H          -6.9191   -3.2876   -0.3282 H       1  LIG1        0.0640
     31 H         -12.1815   -4.5784    0.5354 H       1  LIG1        0.0280
     32 H         -10.9520   -5.7791    1.0022 H       1  LIG1        0.0280
     33 H         -12.0453   -5.1301    2.2232 H       1  LIG1        0.0280
     34 H           0.2165   -1.1573   -2.0825 H       1  LIG1        0.0280
     35 H          -0.8550   -2.4262   -2.7254 H       1  LIG1        0.0280
     36 H          -0.1092   -1.2722   -3.8297 H       1  LIG1        0.0280
     37 H          -5.6888    0.3508   -0.7541 H       1  LIG1        0.1560
@<TRIPOS>BOND
     1     1     2   ar
     2     1     4   ar
     3     2    10   ar
     4     3     5   ar
     5     3     9   ar
     6     4    11   ar
     7     5    12   ar
     8     6     8   ar
     9     6     9   ar
    10     7    10   ar
    11     7    11   ar
    12     8    12   ar
    13     8    13   ar
    14     9    17    1
    15    10    18    1
    16    11    19    1
    17    12    22   ar
    18    13    14   ar
    19    14    15   ar
    20    14    16    1
    21    15    20    2
    22    15    22   ar
    23    16    19   am
    24    16    21    2
    25     1    23    1
    26     2    24    1
    27     3    25    1
    28     4    26    1
    29     5    27    1
    30     6    28    1
    31     7    29    1
    32    13    30    1
    33    17    31    1
    34    17    32    1
    35    17    33    1
    36    18    34    1
    37    18    35    1
    38    18    36    1
    39    19    37    1
