@<TRIPOS>MOLECULE
ChEBML968432
 39 42 0 0 0
SMALL
USER_CHARGES

@<TRIPOS>ATOM
      1 C         -12.6667   -3.8102    2.3147 C.ar    1  LIG1       -0.0600
      2 C         -12.2447   -5.0272    1.7909 C.ar    1  LIG1       -0.0610
      3 C         -11.8160   -2.7010    2.3088 C.ar    1  LIG1       -0.0352
      4 C          -2.4102   -0.7721   -1.8898 C.ar    1  LIG1       -0.0382
      5 C          -3.5079    1.3389   -2.3085 C.ar    1  LIG1       -0.0382
      6 C          -1.9031   -0.7662   -3.1893 C.ar    1  LIG1       -0.0299
      7 C          -3.0008    1.3449   -3.6080 C.ar    1  LIG1       -0.0299
      8 C         -10.9649   -5.1689    1.2487 C.ar    1  LIG1       -0.0459
      9 C         -10.5176   -2.8169    1.7668 C.ar    1  LIG1        0.0799
     10 C          -3.2126    0.2805   -1.4495 C.ar    1  LIG1        0.0305
     11 C          -2.1985    0.2923   -4.0483 C.ar    1  LIG1        0.0747
     12 C         -10.1156   -4.0507    1.2461 C.ar    1  LIG1        0.0409
     13 C          -8.4772   -2.2710    1.1299 C.ar    1  LIG1        0.1885
     14 C          -5.4316   -1.4116   -0.4070 C.ar    1  LIG1        0.0689
     15 C          -4.8958   -0.2458    0.3064 C.ar    1  LIG1        0.0749
     16 C          -5.6503    0.1567    1.3308 C.ar    1  LIG1        0.1283
     17 C          -6.9217   -0.5341    1.7027 C.ar    1  LIG1        0.2850
     18 C          -2.0448    1.4110   -6.1413 C.3     1  LIG1        0.0422
     19 N          -9.5684   -1.8079    1.6932 N.ar    1  LIG1       -0.2236
     20 N          -6.5336   -2.0316   -0.1616 N.ar    1  LIG1       -0.1778
     21 N          -7.3160   -1.5915    0.8737 N.ar    1  LIG1       -0.1309
     22 N          -3.7226    0.2745   -0.1425 N.pl3   1  LIG1       -0.3122
     23 O          -7.5686   -0.1530    2.6796 O.2     1  LIG1       -0.2682
     24 O          -1.7036    0.2981   -5.3162 O.3     1  LIG1       -0.3493
     25 S          -8.5015   -3.9142    0.6555 S.2     1  LIG1       -0.0499
     26 CL         -5.1932    1.5090    2.3076 Cl      1  LIG1       -0.0763
     27 H         -13.6657   -3.7187    2.7319 H       1  LIG1        0.0623
     28 H         -12.9178   -5.8808    1.8032 H       1  LIG1        0.0623
     29 H         -12.1558   -1.7552    2.7214 H       1  LIG1        0.0646
     30 H          -2.1737   -1.6019   -1.2287 H       1  LIG1        0.0643
     31 H          -4.1321    2.1643   -1.9757 H       1  LIG1        0.0643
     32 H          -1.2787   -1.5889   -3.5266 H       1  LIG1        0.0651
     33 H          -3.2343    2.1723   -4.2725 H       1  LIG1        0.0651
     34 H         -10.6425   -6.1218    0.8402 H       1  LIG1        0.0635
     35 H          -4.8162   -1.7828   -1.2439 H       1  LIG1        0.0878
     36 H          -1.5858    1.2901   -7.1256 H       1  LIG1        0.0535
     37 H          -1.6923    2.3339   -5.6739 H       1  LIG1        0.0535
     38 H          -3.1311    1.4524   -6.2510 H       1  LIG1        0.0535
     39 H          -3.1500    0.7130    0.5670 H       1  LIG1        0.1529
@<TRIPOS>BOND
     1     1     2   ar
     2     1     3   ar
     3     2     8   ar
     4     3     9   ar
     5     4     6   ar
     6     4    10   ar
     7     5     7   ar
     8     5    10   ar
     9     6    11   ar
    10     7    11   ar
    11     8    12   ar
    12     9    12   ar
    13     9    19   ar
    14    10    22    1
    15    11    24    1
    16    12    25   ar
    17    13    19   ar
    18    13    21    1
    19    13    25   ar
    20    14    15   ar
    21    14    20   ar
    22    15    16   ar
    23    15    22    1
    24    16    17   ar
    25    16    26    1
    26    17    21   ar
    27    17    23    2
    28    18    24    1
    29    20    21   ar
    30     1    27    1
    31     2    28    1
    32     3    29    1
    33     4    30    1
    34     5    31    1
    35     6    32    1
    36     7    33    1
    37     8    34    1
    38    14    35    1
    39    18    36    1
    40    18    37    1
    41    18    38    1
    42    22    39    1
