@<TRIPOS>MOLECULE
ChEBML1137470
 49 52 0 0 0
SMALL
USER_CHARGES

@<TRIPOS>ATOM
      1 C         -14.7823   -4.0123    1.4031 C.ar    1  LIG1       -0.0622
      2 C         -14.3331   -2.7929    1.8768 C.ar    1  LIG1       -0.0616
      3 C         -13.8819   -4.9534    0.9376 C.ar    1  LIG1       -0.0616
      4 C          -3.6528    1.2135   -3.2082 C.ar    1  LIG1       -0.0602
      5 C          -2.3856    0.8225   -3.5990 C.ar    1  LIG1       -0.0595
      6 C         -12.9823   -2.5091    1.8874 C.ar    1  LIG1       -0.0527
      7 C         -12.5294   -4.6774    0.9380 C.ar    1  LIG1       -0.0527
      8 C          -4.2546    0.6236   -2.1126 C.ar    1  LIG1       -0.0382
      9 C          -1.7136   -0.1605   -2.8959 C.ar    1  LIG1       -0.0299
     10 C         -10.0163   -1.9652    1.8824 C.ar    1  LIG1       -0.0059
     11 C         -12.0710   -3.4532    1.4194 C.ar    1  LIG1        0.0018
     12 C          -3.5886   -0.3671   -1.4056 C.ar    1  LIG1        0.0594
     13 C          -2.3094   -0.7563   -1.7966 C.ar    1  LIG1        0.0957
     14 C         -10.6172   -3.1532    1.4279 C.ar    1  LIG1        0.0905
     15 C          -8.6595   -2.1479    1.6952 C.ar    1  LIG1        0.1123
     16 C          -7.5890   -1.1895    2.0144 C.2     1  LIG1        0.2614
     17 C          -4.5882    0.1136    0.6099 C.3     1  LIG1        0.0275
     18 C          -5.4310   -1.5984   -0.7876 C.3     1  LIG1        0.0275
     19 C          -5.2438   -0.4779    1.8619 C.3     1  LIG1        0.0303
     20 C          -6.1423   -2.3028    0.3721 C.3     1  LIG1        0.0303
     21 C          -0.3818   -1.8951   -1.7409 C.3     1  LIG1        0.0423
     22 N          -9.6561   -3.9510    1.0123 N.ar    1  LIG1       -0.1834
     23 N          -8.5081   -3.3918    1.1496 N.ar    1  LIG1       -0.2326
     24 N          -4.1981   -0.9700   -0.2994 N.pl3   1  LIG1       -0.3255
     25 N          -6.3764   -1.3179    1.4403 N.am    1  LIG1       -0.2935
     26 O          -7.7987   -0.2817    2.7962 O.2     1  LIG1       -0.2701
     27 O          -1.6493   -1.7230   -1.1039 O.3     1  LIG1       -0.3473
     28 H         -15.8400   -4.2305    1.3969 H       1  LIG1        0.0622
     29 H         -15.0403   -2.0618    2.2396 H       1  LIG1        0.0623
     30 H         -14.2379   -5.9041    0.5691 H       1  LIG1        0.0623
     31 H          -4.1737    1.9820   -3.7601 H       1  LIG1        0.0623
     32 H          -1.9191    1.2865   -4.4555 H       1  LIG1        0.0623
     33 H         -12.6325   -1.5570    2.2584 H       1  LIG1        0.0630
     34 H         -11.8275   -5.4110    0.5699 H       1  LIG1        0.0630
     35 H          -5.2445    0.9310   -1.8092 H       1  LIG1        0.0643
     36 H          -0.7238   -0.4636   -3.2039 H       1  LIG1        0.0651
     37 H         -10.5102   -1.0957    2.2906 H       1  LIG1        0.0668
     38 H          -3.7038    0.6821    0.8974 H       1  LIG1        0.0485
     39 H          -5.2955    0.7728    0.1066 H       1  LIG1        0.0485
     40 H          -6.0868   -0.8347   -1.2055 H       1  LIG1        0.0485
     41 H          -5.1856   -2.3277   -1.5597 H       1  LIG1        0.0485
     42 H          -4.5187   -1.0846    2.4042 H       1  LIG1        0.0486
     43 H          -5.6026    0.3270    2.5034 H       1  LIG1        0.0486
     44 H          -5.5167   -3.1118    0.7495 H       1  LIG1        0.0486
     45 H          -7.0953   -2.7049    0.0284 H       1  LIG1        0.0486
     46 H          -0.5339   -2.1971   -2.7771 H       1  LIG1        0.0535
     47 H           0.1691   -0.9550   -1.7136 H       1  LIG1        0.0535
     48 H           0.1862   -2.6644   -1.2178 H       1  LIG1        0.0535
     49 H          -7.6598   -3.7936    0.9053 H       1  LIG1        0.1757
@<TRIPOS>BOND
     1     1     2   ar
     2     1     3   ar
     3     2     6   ar
     4     3     7   ar
     5     4     5   ar
     6     4     8   ar
     7     5     9   ar
     8     6    11   ar
     9     7    11   ar
    10     8    12   ar
    11     9    13   ar
    12    10    14   ar
    13    10    15   ar
    14    11    14    1
    15    12    13   ar
    16    12    24    1
    17    13    27    1
    18    14    22   ar
    19    15    16    1
    20    15    23   ar
    21    16    25   am
    22    16    26    2
    23    17    19    1
    24    17    24    1
    25    18    20    1
    26    18    24    1
    27    19    25    1
    28    20    25    1
    29    21    27    1
    30    22    23   ar
    31     1    28    1
    32     2    29    1
    33     3    30    1
    34     4    31    1
    35     5    32    1
    36     6    33    1
    37     7    34    1
    38     8    35    1
    39     9    36    1
    40    10    37    1
    41    17    38    1
    42    17    39    1
    43    18    40    1
    44    18    41    1
    45    19    42    1
    46    19    43    1
    47    20    44    1
    48    20    45    1
    49    21    46    1
    50    21    47    1
    51    21    48    1
    52    23    49    1
