@<TRIPOS>MOLECULE
ChEBML311569
 44 46 0 0 0
SMALL
USER_CHARGES

@<TRIPOS>ATOM
      1 C         -11.9846   -2.9689    0.9376 C.ar    1  LIG1       -0.0482
      2 C         -11.6375   -5.3561    0.8034 C.ar    1  LIG1       -0.0482
      3 C         -10.6184   -2.7821    1.1481 C.ar    1  LIG1       -0.0401
      4 C         -10.2713   -5.1693    1.0138 C.ar    1  LIG1       -0.0401
      5 C          -1.9904   -0.3700   -3.2180 C.ar    1  LIG1       -0.0355
      6 C          -2.2896    0.9609   -3.4292 C.ar    1  LIG1        0.0500
      7 C         -12.4941   -4.2560    0.7653 C.ar    1  LIG1        0.0556
      8 C          -2.8110   -1.0914   -2.3688 C.ar    1  LIG1       -0.0072
      9 C          -9.7617   -3.8823    1.1862 C.ar    1  LIG1        0.0340
     10 C          -3.8763   -0.4340   -1.7869 C.ar    1  LIG1        0.1458
     11 C          -7.8735   -2.4280    1.6441 C.2     1  LIG1        0.3050
     12 C          -4.8358   -0.6845    0.4465 C.3     1  LIG1        0.0289
     13 C          -5.7885   -1.9209   -1.5234 C.3     1  LIG1        0.0289
     14 C          -6.3027   -0.6744    0.8710 C.3     1  LIG1        0.0315
     15 C          -6.4774   -2.7699   -0.4540 C.3     1  LIG1        0.0315
     16 C          -2.5234   -2.5316   -2.1138 C.3     1  LIG1       -0.0362
     17 C         -13.9548   -4.4556    0.5403 C.3     1  LIG1        0.4160
     18 N          -3.3388    1.5785   -2.8463 N.ar    1  LIG1       -0.1572
     19 N          -4.1451    0.8696   -2.0114 N.ar    1  LIG1       -0.1350
     20 N          -4.7003   -1.1321   -0.9423 N.pl3   1  LIG1       -0.3110
     21 N          -6.9208   -1.9883    0.7057 N.am    1  LIG1       -0.2824
     22 N          -8.3908   -3.6951    1.3970 N.am    1  LIG1       -0.2691
     23 O          -8.2179   -1.7468    2.6155 O.2     1  LIG1       -0.2537
     24 F         -14.6708   -3.2924    0.5273 F       1  LIG1       -0.1661
     25 F         -14.2469   -5.0667   -0.6459 F       1  LIG1       -0.1661
     26 F         -14.5334   -5.2306    1.5035 F       1  LIG1       -0.1661
     27 H         -12.6450   -2.1062    0.9117 H       1  LIG1        0.0629
     28 H         -12.0259   -6.3625    0.6708 H       1  LIG1        0.0629
     29 H         -10.2322   -1.7746    1.2807 H       1  LIG1        0.0642
     30 H          -9.6127   -6.0338    1.0427 H       1  LIG1        0.0642
     31 H          -1.1372   -0.8274   -3.7077 H       1  LIG1        0.0643
     32 H          -1.6858    1.5797   -4.0827 H       1  LIG1        0.0859
     33 H          -4.4190    0.3216    0.5787 H       1  LIG1        0.0485
     34 H          -4.2627   -1.3640    1.0886 H       1  LIG1        0.0485
     35 H          -5.4009   -2.5788   -2.3103 H       1  LIG1        0.0485
     36 H          -6.5197   -1.2449   -1.9851 H       1  LIG1        0.0485
     37 H          -6.3865   -0.3458    1.9123 H       1  LIG1        0.0486
     38 H          -6.8780    0.0298    0.2576 H       1  LIG1        0.0486
     39 H          -7.3371   -3.2808   -0.8999 H       1  LIG1        0.0486
     40 H          -5.7887   -3.5348   -0.0754 H       1  LIG1        0.0486
     41 H          -1.8538   -2.6413   -1.2516 H       1  LIG1        0.0281
     42 H          -3.4450   -3.0931   -1.9114 H       1  LIG1        0.0281
     43 H          -2.0493   -3.0042   -2.9842 H       1  LIG1        0.0281
     44 H          -7.8121   -4.5268    1.4160 H       1  LIG1        0.1573
@<TRIPOS>BOND
     1     1     3   ar
     2     1     7   ar
     3     2     4   ar
     4     2     7   ar
     5     3     9   ar
     6     4     9   ar
     7     5     6   ar
     8     5     8   ar
     9     6    18   ar
    10     7    17    1
    11     8    10   ar
    12     8    16    1
    13     9    22    1
    14    10    19   ar
    15    10    20    1
    16    11    21   am
    17    11    22   am
    18    11    23    2
    19    12    14    1
    20    12    20    1
    21    13    15    1
    22    13    20    1
    23    14    21    1
    24    15    21    1
    25    17    24    1
    26    17    25    1
    27    17    26    1
    28    18    19   ar
    29     1    27    1
    30     2    28    1
    31     3    29    1
    32     4    30    1
    33     5    31    1
    34     6    32    1
    35    12    33    1
    36    12    34    1
    37    13    35    1
    38    13    36    1
    39    14    37    1
    40    14    38    1
    41    15    39    1
    42    15    40    1
    43    16    41    1
    44    16    42    1
    45    16    43    1
    46    22    44    1
