@<TRIPOS>MOLECULE
ChEBML1082138
 51 54 0 0 0
SMALL
USER_CHARGES

@<TRIPOS>ATOM
      1 C         -11.6849   -5.6181    0.5830 C.ar    1  LIG1       -0.0600
      2 C         -12.4886   -5.0345    1.5562 C.ar    1  LIG1       -0.0610
      3 C         -10.4320   -5.0779    0.2787 C.ar    1  LIG1       -0.0352
      4 C          -2.2634   -0.7198   -1.7935 C.ar    1  LIG1       -0.0382
      5 C          -4.0851    0.8661   -1.8505 C.ar    1  LIG1       -0.0382
      6 C          -1.8243   -0.2601   -3.0350 C.ar    1  LIG1       -0.0299
      7 C          -3.6460    1.3259   -3.0919 C.ar    1  LIG1       -0.0299
      8 C         -12.0639   -3.8984    2.2498 C.ar    1  LIG1       -0.0459
      9 C          -9.9787   -3.9303    0.9646 C.ar    1  LIG1        0.0799
     10 C          -3.3939   -0.1568   -1.2012 C.ar    1  LIG1        0.0302
     11 C          -2.5156    0.7628   -3.6843 C.ar    1  LIG1        0.0747
     12 C         -10.8045   -3.3610    1.9388 C.ar    1  LIG1        0.0409
     13 C          -8.6792   -2.2568    1.5793 C.ar    1  LIG1        0.1885
     14 C          -5.7011   -0.2902    1.4329 C.2     1  LIG1        0.0799
     15 C          -6.5448    0.3298    2.4545 C.2     1  LIG1        0.0834
     16 C          -6.4703   -1.4455    0.9307 C.2     1  LIG1        0.2751
     17 C          -4.4926    0.0831    1.0187 C.2     1  LIG1        0.0185
     18 C          -7.2547    1.9294    4.2044 C.2     1  LIG1        0.2667
     19 C          -3.7625    1.2730    1.5706 C.3     1  LIG1       -0.0256
     20 C          -0.9248    0.5915   -5.4438 C.3     1  LIG1        0.0422
     21 C          -7.7935    3.5588    5.8353 C.3     1  LIG1        0.0453
     22 C          -6.1614    1.5398    3.2352 C.3     1  LIG1        0.0786
     23 N          -8.7653   -3.2866    0.7701 N.ar    1  LIG1       -0.2236
     24 N          -7.6710   -0.3135    2.5963 N.2     1  LIG1       -0.1749
     25 N          -7.6414   -1.3708    1.6966 N.am    1  LIG1       -0.1314
     26 N          -3.8331   -0.6168    0.0410 N.pl3   1  LIG1       -0.3178
     27 O          -6.1297   -2.2331    0.0689 O.2     1  LIG1       -0.2691
     28 O          -8.3235    1.3515    4.3468 O.2     1  LIG1       -0.2661
     29 O          -2.0871    1.2115   -4.8957 O.3     1  LIG1       -0.3493
     30 O          -6.8552    3.0473    4.8831 O.3     1  LIG1       -0.3190
     31 S         -10.0147   -1.9844    2.6127 S.2     1  LIG1       -0.0499
     32 H         -12.0317   -6.5017    0.0543 H       1  LIG1        0.0623
     33 H         -13.4606   -5.4661    1.7812 H       1  LIG1        0.0623
     34 H          -9.8127   -5.5415   -0.4840 H       1  LIG1        0.0646
     35 H          -1.7172   -1.5174   -1.2964 H       1  LIG1        0.0643
     36 H          -4.9671    1.3119   -1.3979 H       1  LIG1        0.0643
     37 H          -0.9431   -0.7027   -3.4914 H       1  LIG1        0.0651
     38 H          -4.1886    2.1231   -3.5929 H       1  LIG1        0.0651
     39 H         -12.6961   -3.4488    3.0092 H       1  LIG1        0.0635
     40 H          -3.1458    0.9837    2.4281 H       1  LIG1        0.0293
     41 H          -4.4545    2.0529    1.9064 H       1  LIG1        0.0293
     42 H          -3.1107    1.7129    0.8085 H       1  LIG1        0.0293
     43 H          -0.6920    1.0429   -6.4113 H       1  LIG1        0.0535
     44 H          -1.1043   -0.4800   -5.5633 H       1  LIG1        0.0535
     45 H          -0.0852    0.7444   -4.7615 H       1  LIG1        0.0535
     46 H          -7.3772    4.4465    6.3176 H       1  LIG1        0.0536
     47 H          -8.0095    2.7919    6.5835 H       1  LIG1        0.0536
     48 H          -8.7162    3.8281    5.3157 H       1  LIG1        0.0536
     49 H          -5.9906    2.3754    2.5505 H       1  LIG1        0.0440
     50 H          -5.2442    1.3273    3.7914 H       1  LIG1        0.0440
     51 H          -3.6535   -1.5808    0.2690 H       1  LIG1        0.1524
@<TRIPOS>BOND
     1     1     2   ar
     2     1     3   ar
     3     2     8   ar
     4     3     9   ar
     5     4     6   ar
     6     4    10   ar
     7     5     7   ar
     8     5    10   ar
     9     6    11   ar
    10     7    11   ar
    11     8    12   ar
    12     9    12   ar
    13     9    23   ar
    14    10    26    1
    15    11    29    1
    16    12    31   ar
    17    13    23   ar
    18    13    25    1
    19    13    31   ar
    20    14    15    1
    21    14    16    1
    22    14    17    2
    23    15    22    1
    24    15    24    2
    25    16    25   am
    26    16    27    2
    27    17    19    1
    28    17    26    1
    29    18    22    1
    30    18    28    2
    31    18    30    1
    32    20    29    1
    33    21    30    1
    34    24    25    1
    35     1    32    1
    36     2    33    1
    37     3    34    1
    38     4    35    1
    39     5    36    1
    40     6    37    1
    41     7    38    1
    42     8    39    1
    43    19    40    1
    44    19    41    1
    45    19    42    1
    46    20    43    1
    47    20    44    1
    48    20    45    1
    49    21    46    1
    50    21    47    1
    51    21    48    1
    52    22    49    1
    53    22    50    1
    54    26    51    1
