@<TRIPOS>MOLECULE
ChEBML1088799
 32 34 0 0 0
SMALL
USER_CHARGES

@<TRIPOS>ATOM
      1 C         -10.9645   -2.6359    1.7971 C.ar    1  LIG1       -0.0614
      2 C          -3.2094    1.4939   -2.9503 C.ar    1  LIG1       -0.0603
      3 C         -10.6955   -3.9012    1.2528 C.ar    1  LIG1       -0.0610
      4 C          -2.1870    0.9293   -3.7126 C.ar    1  LIG1       -0.0611
      5 C          -9.9262   -1.7421    2.0633 C.ar    1  LIG1       -0.0484
      6 C          -3.6915    0.8249   -1.8251 C.ar    1  LIG1       -0.0396
      7 C          -9.3839   -4.2906    0.9671 C.ar    1  LIG1       -0.0462
      8 C          -1.6465   -0.3045   -3.3501 C.ar    1  LIG1       -0.0469
      9 C          -8.6311   -2.1445    1.7743 C.ar    1  LIG1        0.0533
     10 C          -3.1510   -0.4088   -1.4626 C.ar    1  LIG1        0.0460
     11 C          -8.3567   -3.3997    1.2336 C.ar    1  LIG1        0.0391
     12 C          -2.1285   -0.9736   -2.2250 C.ar    1  LIG1        0.0344
     13 C          -7.4119   -1.3421    1.9857 C.ar    1  LIG1        0.2571
     14 C          -4.6840   -0.5950    0.5274 C.2     1  LIG1        0.2346
     15 C          -4.9343   -1.5907    1.6434 C.3     1  LIG1        0.1035
     16 N          -6.2981   -2.0663    1.5821 N.ar    1  LIG1       -0.2281
     17 N          -3.6715   -1.0500   -0.3132 N.am    1  LIG1       -0.2831
     18 O          -7.4481   -0.2134    2.4505 O.2     1  LIG1       -0.2706
     19 O          -5.3244    0.4463    0.4242 O.2     1  LIG1       -0.2754
     20 S          -6.6243   -3.6324    0.9710 S.2     1  LIG1       -0.0189
     21 I          -1.2678   -2.8232   -1.7430 I       1  LIG1       -0.0422
     22 H         -11.9907   -2.3511    2.0126 H       1  LIG1        0.0623
     23 H          -3.6296    2.4546   -3.2323 H       1  LIG1        0.0623
     24 H         -11.5160   -4.5846    1.0518 H       1  LIG1        0.0623
     25 H          -1.8123    1.4505   -4.5887 H       1  LIG1        0.0623
     26 H         -10.1391   -0.7653    2.4836 H       1  LIG1        0.0631
     27 H          -4.4884    1.2768   -1.2397 H       1  LIG1        0.0643
     28 H          -9.1868   -5.2713    0.5462 H       1  LIG1        0.0635
     29 H          -0.8504   -0.7234   -3.9606 H       1  LIG1        0.0634
     30 H          -4.7570   -1.1128    2.6120 H       1  LIG1        0.0581
     31 H          -4.2422   -2.4313    1.5324 H       1  LIG1        0.0581
     32 H          -3.2474   -1.9471   -0.0869 H       1  LIG1        0.1557
@<TRIPOS>BOND
     1     1     3   ar
     2     1     5   ar
     3     2     4   ar
     4     2     6   ar
     5     3     7   ar
     6     4     8   ar
     7     5     9   ar
     8     6    10   ar
     9     7    11   ar
    10     8    12   ar
    11     9    11   ar
    12     9    13   ar
    13    10    12   ar
    14    10    17    1
    15    11    20   ar
    16    12    21    1
    17    13    16   ar
    18    13    18    2
    19    14    15    1
    20    14    17   am
    21    14    19    2
    22    15    16    1
    23    16    20   ar
    24     1    22    1
    25     2    23    1
    26     3    24    1
    27     4    25    1
    28     5    26    1
    29     6    27    1
    30     7    28    1
    31     8    29    1
    32    15    30    1
    33    15    31    1
    34    17    32    1
