@<TRIPOS>MOLECULE
ChEBML253229
 56 60 0 0 0
SMALL
USER_CHARGES

@<TRIPOS>ATOM
      1 C          -6.6684   -1.6476    3.4393 C.ar    1  LIG1       -0.0524
      2 C          -5.3302   -1.2770    3.5716 C.ar    1  LIG1       -0.0560
      3 C         -12.4550   -3.6642    1.5434 C.ar    1  LIG1       -0.0376
      4 C          -6.3722   -1.8648    1.0514 C.ar    1  LIG1       -0.0221
      5 C         -10.2908   -5.2356    0.8026 C.ar    1  LIG1       -0.0046
      6 C          -9.5898   -1.4800    2.4380 C.ar    1  LIG1       -0.0050
      7 C         -15.2303   -5.1929    1.4561 C.ar    1  LIG1        0.0608
      8 C         -15.5783   -6.5148   -0.1423 C.ar    1  LIG1        0.1342
      9 C         -11.1456   -3.1868    1.7232 C.ar    1  LIG1        0.0311
     10 C          -7.1893   -1.9416    2.1791 C.ar    1  LIG1        0.0028
     11 C         -12.6761   -4.9240    0.9944 C.ar    1  LIG1        0.0381
     12 C          -4.5130   -1.2002    2.4438 C.ar    1  LIG1       -0.0207
     13 C         -10.0406   -3.9797    1.3489 C.ar    1  LIG1        0.0762
     14 C          -5.0340   -1.4941    1.1837 C.ar    1  LIG1        0.0787
     15 C         -11.5924   -5.7104    0.6237 C.ar    1  LIG1        0.0867
     16 C         -10.8943   -1.9228    2.2734 C.ar    1  LIG1        0.0829
     17 C          -8.5739   -2.3264    2.0422 C.ar    1  LIG1        0.0736
     18 C         -14.0311   -5.3923    0.8182 C.ar    1  LIG1        0.1115
     19 C          -1.9052   -0.3491   -3.4224 C.3     1  LIG1       -0.0270
     20 C          -2.5982   -1.1040   -2.3160 C.3     1  LIG1       -0.0222
     21 C          -2.9872    0.6093   -3.8727 C.3     1  LIG1        0.0472
     22 C          -3.4174   -0.0028   -1.6654 C.3     1  LIG1        0.0815
     23 C          -3.0833   -0.8006    2.6048 C.3     1  LIG1       -0.0372
     24 C         -11.8253   -8.0488    0.9889 C.3     1  LIG1        0.0423
     25 C          -4.6495   -0.5106   -0.9472 C.3     1  LIG1        0.0796
     26 N         -16.2180   -5.9145    0.8359 N.ar    1  LIG1       -0.2367
     27 N          -8.7734   -3.5528    1.5075 N.ar    1  LIG1       -0.2474
     28 O         -14.2458   -6.2480   -0.2198 O.2     1  LIG1       -0.2962
     29 O          -3.8029    0.8888   -2.7251 O.3     1  LIG1       -0.3757
     30 O         -11.9098   -1.0979    2.6617 O.3     1  LIG1       -0.3601
     31 O         -11.7686   -6.9499    0.0826 O.3     1  LIG1       -0.3485
     32 O          -4.2494   -1.4245    0.0721 O.3     1  LIG1       -0.3431
     33 H          -7.2923   -1.7038    4.3281 H       1  LIG1        0.0630
     34 H          -4.9326   -1.0500    4.5574 H       1  LIG1        0.0626
     35 H         -13.3076   -3.0515    1.8323 H       1  LIG1        0.0639
     36 H          -6.7708   -2.0928    0.0649 H       1  LIG1        0.0657
     37 H          -9.4531   -5.8656    0.5063 H       1  LIG1        0.0673
     38 H          -9.3846   -0.5026    2.8634 H       1  LIG1        0.0673
     39 H         -15.4372   -4.5763    2.3185 H       1  LIG1        0.0869
     40 H         -15.9787   -7.1879   -0.8854 H       1  LIG1        0.1125
     41 H          -1.0552    0.2108   -3.0144 H       1  LIG1        0.0291
     42 H          -1.5382   -0.9883   -4.2294 H       1  LIG1        0.0291
     43 H          -3.2469   -1.8761   -2.7476 H       1  LIG1        0.0295
     44 H          -1.9066   -1.5872   -1.6203 H       1  LIG1        0.0295
     45 H          -2.5813    1.5427   -4.2726 H       1  LIG1        0.0566
     46 H          -3.6291    0.1528   -4.6334 H       1  LIG1        0.0566
     47 H          -2.7945    0.5721   -0.9695 H       1  LIG1        0.0628
     48 H          -2.4573   -1.6856    2.7684 H       1  LIG1        0.0281
     49 H          -2.7165   -0.2727    1.7159 H       1  LIG1        0.0281
     50 H          -2.9551   -0.1198    3.4556 H       1  LIG1        0.0281
     51 H         -11.9683   -8.9765    0.4293 H       1  LIG1        0.0535
     52 H         -12.6514   -7.9023    1.6893 H       1  LIG1        0.0535
     53 H         -10.8853   -8.1014    1.5430 H       1  LIG1        0.0535
     54 H          -5.3137   -1.0295   -1.6448 H       1  LIG1        0.0599
     55 H          -5.1929    0.3183   -0.4840 H       1  LIG1        0.0599
     56 H         -11.5496   -0.2716    3.0181 H       1  LIG1        0.2182
@<TRIPOS>BOND
     1     1     2   ar
     2     1    10   ar
     3     2    12   ar
     4     3     9   ar
     5     3    11   ar
     6     4    10   ar
     7     4    14   ar
     8     5    13   ar
     9     5    15   ar
    10     6    16   ar
    11     6    17   ar
    12     7    18   ar
    13     7    26   ar
    14     8    26   ar
    15     8    28   ar
    16     9    13   ar
    17     9    16   ar
    18    10    17    1
    19    11    15   ar
    20    11    18    1
    21    12    14   ar
    22    12    23    1
    23    13    27   ar
    24    14    32    1
    25    15    31    1
    26    16    30    1
    27    17    27   ar
    28    18    28   ar
    29    19    20    1
    30    19    21    1
    31    20    22    1
    32    21    29    1
    33    22    25    1
    34    22    29    1
    35    24    31    1
    36    25    32    1
    37     1    33    1
    38     2    34    1
    39     3    35    1
    40     4    36    1
    41     5    37    1
    42     6    38    1
    43     7    39    1
    44     8    40    1
    45    19    41    1
    46    19    42    1
    47    20    43    1
    48    20    44    1
    49    21    45    1
    50    21    46    1
    51    22    47    1
    52    23    48    1
    53    23    49    1
    54    23    50    1
    55    24    51    1
    56    24    52    1
    57    24    53    1
    58    25    54    1
    59    25    55    1
    60    30    56    1
