@<TRIPOS>MOLECULE
ChEBML233574
 35 37 0 0 0
SMALL
USER_CHARGES

@<TRIPOS>ATOM
      1 C          -5.0688   -1.5791   -0.8812 C.ar    1  LIG1       -0.0615
      2 C          -3.8831   -1.7553   -0.1682 C.ar    1  LIG1       -0.0619
      3 C          -6.2756   -1.4213   -0.1996 C.ar    1  LIG1       -0.0507
      4 C          -3.9039   -1.7740    1.2263 C.ar    1  LIG1       -0.0586
      5 C         -10.3305   -5.0590    0.2830 C.ar    1  LIG1       -0.0376
      6 C         -11.6329   -5.5034    0.5281 C.ar    1  LIG1       -0.0299
      7 C         -12.0306   -3.6694    2.0693 C.ar    1  LIG1       -0.0226
      8 C          -9.9618   -2.1008    2.3223 C.ar    1  LIG1       -0.0275
      9 C         -10.7215   -3.2024    1.8381 C.ar    1  LIG1        0.0003
     10 C          -6.2964   -1.4399    1.1951 C.ar    1  LIG1        0.0267
     11 C          -5.1106   -1.6164    1.9080 C.ar    1  LIG1       -0.0399
     12 C          -9.9032   -3.9065    0.9521 C.ar    1  LIG1        0.0379
     13 C         -12.4716   -4.8209    1.4070 C.ar    1  LIG1        0.0753
     14 C          -8.7202   -2.1567    1.7321 C.ar    1  LIG1        0.0797
     15 C          -7.6153   -1.2678    1.9058 C.2     1  LIG1        0.2068
     16 C          -5.1042   -1.6409    3.4015 C.3     1  LIG1       -0.0390
     17 C         -14.1290   -6.4562    0.9228 C.3     1  LIG1        0.0422
     18 N          -8.6945   -3.2491    0.9072 N.ar    1  LIG1       -0.3112
     19 O          -7.6890   -0.2805    2.6741 O.2     1  LIG1       -0.2871
     20 O         -13.7365   -5.2791    1.6253 O.3     1  LIG1       -0.3493
     21 H          -5.0531   -1.5642   -1.9673 H       1  LIG1        0.0623
     22 H          -2.9437   -1.8784   -0.6996 H       1  LIG1        0.0623
     23 H          -7.1930   -1.2857   -0.7667 H       1  LIG1        0.0630
     24 H          -2.9742   -1.9116    1.7722 H       1  LIG1        0.0625
     25 H          -9.6784   -5.5908   -0.4018 H       1  LIG1        0.0643
     26 H         -11.9897   -6.3968    0.0207 H       1  LIG1        0.0651
     27 H         -12.6910   -3.1424    2.7526 H       1  LIG1        0.0657
     28 H         -10.2925   -1.3498    3.0276 H       1  LIG1        0.0651
     29 H          -4.9603   -0.6290    3.7973 H       1  LIG1        0.0280
     30 H          -6.0471   -2.0398    3.7952 H       1  LIG1        0.0280
     31 H          -4.3013   -2.2835    3.7836 H       1  LIG1        0.0280
     32 H         -15.1579   -6.7129    1.1867 H       1  LIG1        0.0535
     33 H         -13.4585   -7.2785    1.1846 H       1  LIG1        0.0535
     34 H         -14.0674   -6.2662   -0.1514 H       1  LIG1        0.0535
     35 H          -7.9045   -3.5345    0.3450 H       1  LIG1        0.1529
@<TRIPOS>BOND
     1     1     2   ar
     2     1     3   ar
     3     2     4   ar
     4     3    10   ar
     5     4    11   ar
     6     5     6   ar
     7     5    12   ar
     8     6    13   ar
     9     7     9   ar
    10     7    13   ar
    11     8     9   ar
    12     8    14   ar
    13     9    12   ar
    14    10    11   ar
    15    10    15    1
    16    11    16    1
    17    12    18   ar
    18    13    20    1
    19    14    15    1
    20    14    18   ar
    21    15    19    2
    22    17    20    1
    23     1    21    1
    24     2    22    1
    25     3    23    1
    26     4    24    1
    27     5    25    1
    28     6    26    1
    29     7    27    1
    30     8    28    1
    31    16    29    1
    32    16    30    1
    33    16    31    1
    34    17    32    1
    35    17    33    1
    36    17    34    1
    37    18    35    1
