@<TRIPOS>MOLECULE
ChEBML1137607
 49 52 0 0 0
SMALL
USER_CHARGES

@<TRIPOS>ATOM
      1 C         -14.4008   -2.5856    1.6873 C.ar    1  LIG1       -0.0614
      2 C          -3.5726    1.2882   -3.1802 C.ar    1  LIG1       -0.0602
      3 C          -2.3162    0.8741   -3.5816 C.ar    1  LIG1       -0.0595
      4 C         -14.8870   -3.7694    1.1617 C.ar    1  LIG1       -0.0593
      5 C         -13.0420   -2.3456    1.7159 C.ar    1  LIG1       -0.0498
      6 C          -4.1986    0.6727   -2.1125 C.ar    1  LIG1       -0.0382
      7 C          -1.6791   -0.1579   -2.9173 C.ar    1  LIG1       -0.0299
      8 C         -14.0159   -4.7195    0.6620 C.ar    1  LIG1       -0.0256
      9 C         -10.0603   -1.8961    1.7474 C.ar    1  LIG1       -0.0058
     10 C         -12.1580   -3.2979    1.2138 C.ar    1  LIG1        0.0376
     11 C          -3.5678   -0.3667   -1.4446 C.ar    1  LIG1        0.0594
     12 C          -2.2993   -0.7796   -1.8461 C.ar    1  LIG1        0.0957
     13 C         -12.6527   -4.4878    0.6795 C.ar    1  LIG1        0.1322
     14 C         -10.6956   -3.0449    1.2416 C.ar    1  LIG1        0.0934
     15 C          -8.7088   -2.1137    1.5585 C.ar    1  LIG1        0.1124
     16 C          -7.6105   -1.2035    1.9217 C.2     1  LIG1        0.2614
     17 C          -4.5628    0.0613    0.5850 C.3     1  LIG1        0.0275
     18 C          -5.4512   -1.5640   -0.8860 C.3     1  LIG1        0.0275
     19 C          -5.2435   -0.5605    1.8087 C.3     1  LIG1        0.0303
     20 C          -6.1906   -2.2930    0.2407 C.3     1  LIG1        0.0303
     21 C          -0.4086   -1.9799   -1.8297 C.3     1  LIG1        0.0423
     22 N          -9.7576   -3.8547    0.7973 N.ar    1  LIG1       -0.1833
     23 N          -8.5935   -3.3382    0.9626 N.ar    1  LIG1       -0.2326
     24 N          -4.2020   -0.9955   -0.3668 N.pl3   1  LIG1       -0.3255
     25 N          -6.3994   -1.3462    1.3478 N.am    1  LIG1       -0.2935
     26 O          -7.7959   -0.3227    2.7397 O.2     1  LIG1       -0.2701
     27 O          -1.6737   -1.7945   -1.1914 O.3     1  LIG1       -0.3473
     28 F         -11.8019   -5.4138    0.1856 F       1  LIG1       -0.2062
     29 H         -15.0864   -1.8473    2.0765 H       1  LIG1        0.0623
     30 H          -4.0662    2.0949   -3.7019 H       1  LIG1        0.0623
     31 H          -1.8306    1.3581   -4.4162 H       1  LIG1        0.0623
     32 H         -15.9512   -3.9522    1.1421 H       1  LIG1        0.0623
     33 H         -12.6646   -1.4211    2.1272 H       1  LIG1        0.0631
     34 H          -5.1800    0.9984   -1.8008 H       1  LIG1        0.0643
     35 H          -0.6976   -0.4790   -3.2333 H       1  LIG1        0.0651
     36 H         -14.4007   -5.6422    0.2535 H       1  LIG1        0.0653
     37 H         -10.5288   -1.0292    2.1895 H       1  LIG1        0.0668
     38 H          -3.6626    0.5893    0.8996 H       1  LIG1        0.0485
     39 H          -5.2464    0.7628    0.1066 H       1  LIG1        0.0485
     40 H          -6.0805   -0.7633   -1.2744 H       1  LIG1        0.0485
     41 H          -5.2246   -2.2681   -1.6865 H       1  LIG1        0.0485
     42 H          -4.5407   -1.2116    2.3284 H       1  LIG1        0.0486
     43 H          -5.5804    0.2281    2.4815 H       1  LIG1        0.0486
     44 H          -5.5927   -3.1362    0.5866 H       1  LIG1        0.0486
     45 H          -7.1538   -2.6503   -0.1234 H       1  LIG1        0.0486
     46 H           0.1713   -1.0595   -1.7611 H       1  LIG1        0.0535
     47 H           0.1320   -2.7878   -1.3367 H       1  LIG1        0.0535
     48 H          -0.5644   -2.2338   -2.8782 H       1  LIG1        0.0535
     49 H          -7.7568   -3.7559    0.7049 H       1  LIG1        0.1757
@<TRIPOS>BOND
     1     1     4   ar
     2     1     5   ar
     3     2     3   ar
     4     2     6   ar
     5     3     7   ar
     6     4     8   ar
     7     5    10   ar
     8     6    11   ar
     9     7    12   ar
    10     8    13   ar
    11     9    14   ar
    12     9    15   ar
    13    10    13   ar
    14    10    14    1
    15    11    12   ar
    16    11    24    1
    17    12    27    1
    18    13    28    1
    19    14    22   ar
    20    15    16    1
    21    15    23   ar
    22    16    25   am
    23    16    26    2
    24    17    19    1
    25    17    24    1
    26    18    20    1
    27    18    24    1
    28    19    25    1
    29    20    25    1
    30    21    27    1
    31    22    23   ar
    32     1    29    1
    33     2    30    1
    34     3    31    1
    35     4    32    1
    36     5    33    1
    37     6    34    1
    38     7    35    1
    39     8    36    1
    40     9    37    1
    41    17    38    1
    42    17    39    1
    43    18    40    1
    44    18    41    1
    45    19    42    1
    46    19    43    1
    47    20    44    1
    48    20    45    1
    49    21    46    1
    50    21    47    1
    51    21    48    1
    52    23    49    1
