@<TRIPOS>MOLECULE
ChEBML300292
 53 55 0 0 0
SMALL
USER_CHARGES

@<TRIPOS>ATOM
      1 C         -10.6649   -5.1936    0.9872 C.ar    1  LIG1       -0.0387
      2 C         -12.0187   -5.3480    1.2990 C.ar    1  LIG1       -0.0416
      3 C         -12.1381   -3.0811    2.1615 C.ar    1  LIG1       -0.0343
      4 C          -9.8589   -1.8224    2.0023 C.ar    1  LIG1       -0.0262
      5 C         -10.7743   -2.9021    1.8560 C.ar    1  LIG1       -0.0007
      6 C         -10.0706   -3.9603    1.2770 C.ar    1  LIG1        0.0379
      7 C         -12.7459   -4.3094    1.8771 C.ar    1  LIG1        0.0413
      8 C          -8.6400   -2.2384    1.5187 C.ar    1  LIG1        0.0945
      9 C          -7.3660   -1.4771    1.4522 C.2     1  LIG1        0.2576
     10 C          -4.8382   -0.8434   -0.5335 C.2     1  LIG1        0.2318
     11 C          -2.1201    1.5704   -3.4980 C.3     1  LIG1       -0.0515
     12 C          -1.6359    0.2317   -4.0621 C.3     1  LIG1       -0.0515
     13 C          -2.7917    1.2482   -2.1657 C.3     1  LIG1       -0.0345
     14 C          -2.0422   -0.8279   -3.0412 C.3     1  LIG1       -0.0345
     15 C          -3.2338   -0.2012   -2.3272 C.3     1  LIG1        0.0253
     16 C           1.2665   -3.4788    0.2808 C.3     1  LIG1        0.0355
     17 C          -4.9735   -1.5574    0.7998 C.3     1  LIG1        0.0887
     18 C          -2.2168   -2.9248   -0.7799 C.3     1  LIG1       -0.0137
     19 C          -2.3992   -1.4658   -0.3833 C.3     1  LIG1        0.0166
     20 C          -1.0569   -3.5941   -0.0524 C.3     1  LIG1        0.0477
     21 N          -8.7776   -3.5291    1.0833 N.ar    1  LIG1       -0.3101
     22 N          -6.2758   -2.1499    0.9094 N.am    1  LIG1       -0.3013
     23 N          -3.5306   -0.8320   -1.0739 N.am    1  LIG1       -0.2974
     24 O          -7.3299   -0.3286    1.8862 O.2     1  LIG1       -0.2704
     25 O          -5.8187   -0.3259   -1.0749 O.2     1  LIG1       -0.2756
     26 O           0.1394   -2.8868   -0.3507 O.3     1  LIG1       -0.3845
     27 CL        -14.4135   -4.5374    2.2457 Cl      1  LIG1       -0.0843
     28 H         -10.0997   -6.0033    0.5376 H       1  LIG1        0.0643
     29 H         -12.4973   -6.3005    1.0810 H       1  LIG1        0.0639
     30 H         -12.7039   -2.2703    2.6129 H       1  LIG1        0.0645
     31 H         -10.0736   -0.8466    2.4176 H       1  LIG1        0.0651
     32 H          -1.2969    2.2799   -3.3675 H       1  LIG1        0.0267
     33 H          -2.8402    2.0247   -4.1882 H       1  LIG1        0.0267
     34 H          -2.1205    0.0389   -5.0262 H       1  LIG1        0.0267
     35 H          -0.5544    0.2278   -4.2314 H       1  LIG1        0.0267
     36 H          -2.0677    1.3491   -1.3470 H       1  LIG1        0.0285
     37 H          -3.6292    1.9192   -1.9504 H       1  LIG1        0.0285
     38 H          -2.2916   -1.7838   -3.5123 H       1  LIG1        0.0285
     39 H          -1.2157   -1.0095   -2.3424 H       1  LIG1        0.0285
     40 H          -4.1317   -0.2632   -2.9535 H       1  LIG1        0.0506
     41 H           2.1656   -2.9107    0.0301 H       1  LIG1        0.0529
     42 H           1.3712   -4.5138   -0.0544 H       1  LIG1        0.0529
     43 H           1.1174   -3.4617    1.3630 H       1  LIG1        0.0529
     44 H          -4.2370   -2.3613    0.8766 H       1  LIG1        0.0567
     45 H          -4.8638   -0.8484    1.6246 H       1  LIG1        0.0567
     46 H          -3.1392   -3.4774   -0.5620 H       1  LIG1        0.0306
     47 H          -2.0644   -3.0112   -1.8632 H       1  LIG1        0.0306
     48 H          -2.5980   -1.3899    0.6902 H       1  LIG1        0.0470
     49 H          -1.5007   -0.8817   -0.6071 H       1  LIG1        0.0470
     50 H          -1.2058   -3.5775    1.0317 H       1  LIG1        0.0567
     51 H          -0.9379   -4.6318   -0.3803 H       1  LIG1        0.0567
     52 H          -8.0391   -4.0877    0.6778 H       1  LIG1        0.1529
     53 H          -6.3755   -3.1251    0.6294 H       1  LIG1        0.1503
@<TRIPOS>BOND
     1     1     2   ar
     2     1     6   ar
     3     2     7   ar
     4     3     5   ar
     5     3     7   ar
     6     4     5   ar
     7     4     8   ar
     8     5     6   ar
     9     6    21   ar
    10     7    27    1
    11     8     9    1
    12     8    21   ar
    13     9    22   am
    14     9    24    2
    15    10    17    1
    16    10    23   am
    17    10    25    2
    18    11    12    1
    19    11    13    1
    20    12    14    1
    21    13    15    1
    22    14    15    1
    23    15    23    1
    24    16    26    1
    25    17    22    1
    26    18    19    1
    27    18    20    1
    28    19    23    1
    29    20    26    1
    30     1    28    1
    31     2    29    1
    32     3    30    1
    33     4    31    1
    34    11    32    1
    35    11    33    1
    36    12    34    1
    37    12    35    1
    38    13    36    1
    39    13    37    1
    40    14    38    1
    41    14    39    1
    42    15    40    1
    43    16    41    1
    44    16    42    1
    45    16    43    1
    46    17    44    1
    47    17    45    1
    48    18    46    1
    49    18    47    1
    50    19    48    1
    51    19    49    1
    52    20    50    1
    53    20    51    1
    54    21    52    1
    55    22    53    1
