@<TRIPOS>MOLECULE
ChEBML352066
 52 55 0 0 0
SMALL
USER_CHARGES

@<TRIPOS>ATOM
      1 C          -1.3693    0.7908   -3.5723 C.ar    1  LIG1       -0.0622
      2 C          -2.5164    1.5824   -3.6280 C.ar    1  LIG1       -0.0620
      3 C          -1.3620   -0.3735   -2.8040 C.ar    1  LIG1       -0.0620
      4 C         -11.8240   -5.5517    0.8679 C.ar    1  LIG1       -0.0601
      5 C          -3.6562    1.2100   -2.9154 C.ar    1  LIG1       -0.0590
      6 C          -2.5017   -0.7459   -2.0914 C.ar    1  LIG1       -0.0590
      7 C         -12.3443   -5.0735    2.0688 C.ar    1  LIG1       -0.0581
      8 C         -10.6948   -4.9665    0.2877 C.ar    1  LIG1       -0.0402
      9 C          -9.7707   -2.3008    2.5428 C.ar    1  LIG1       -0.0269
     10 C         -10.6091   -3.3857    2.1616 C.ar    1  LIG1        0.0012
     11 C          -3.6488    0.0457   -2.1471 C.ar    1  LIG1       -0.0475
     12 C         -11.7483   -3.9918    2.7274 C.ar    1  LIG1       -0.0336
     13 C         -10.1096   -3.8861    0.9573 C.ar    1  LIG1        0.0381
     14 C          -8.7964   -2.1664    1.5806 C.ar    1  LIG1        0.0841
     15 C          -7.7296   -1.2401    1.4979 C.ar    1  LIG1        0.2202
     16 C          -6.0613   -0.1888    0.8727 C.ar    1  LIG1        0.1593
     17 C         -13.2112   -1.5781    6.0115 C.3     1  LIG1       -0.0457
     18 C         -15.5075   -1.6025    5.0486 C.3     1  LIG1       -0.0457
     19 C          -4.8817   -0.3577   -1.3755 C.3     1  LIG1       -0.0207
     20 C         -12.3524   -3.5211    4.0125 C.3     1  LIG1        0.0123
     21 C          -4.9130    0.2287    0.0607 C.3     1  LIG1        0.0140
     22 C         -13.6378   -2.7146    3.8370 C.3     1  LIG1       -0.0307
     23 N          -6.8679   -1.2288    0.5125 N.ar    1  LIG1       -0.2028
     24 N          -6.3826    0.4275    2.0141 N.ar    1  LIG1       -0.1113
     25 N          -9.0093   -3.1267    0.6283 N.ar    1  LIG1       -0.3108
     26 N         -14.1962   -2.3409    5.1599 N.4     1  LIG1        0.2420
     27 O          -7.5123   -0.2835    2.4382 O.2     1  LIG1       -0.1898
     28 H          -0.4824    1.0804   -4.1283 H       1  LIG1        0.0622
     29 H          -2.5226    2.4884   -4.2270 H       1  LIG1        0.0623
     30 H          -0.4695   -0.9906   -2.7613 H       1  LIG1        0.0623
     31 H         -12.3027   -6.3927    0.3728 H       1  LIG1        0.0623
     32 H          -4.5453    1.8330   -2.9645 H       1  LIG1        0.0625
     33 H          -2.4868   -1.6546   -1.4954 H       1  LIG1        0.0625
     34 H         -13.2245   -5.5524    2.4916 H       1  LIG1        0.0626
     35 H         -10.2905   -5.3396   -0.6472 H       1  LIG1        0.0642
     36 H          -9.8734   -1.6864    3.4279 H       1  LIG1        0.0651
     37 H         -12.9727   -0.6473    5.4935 H       1  LIG1        0.0777
     38 H         -13.6850   -1.3808    6.9749 H       1  LIG1        0.0777
     39 H         -12.3217   -2.1995    6.1312 H       1  LIG1        0.0777
     40 H         -15.3221   -0.6723    4.5083 H       1  LIG1        0.0777
     41 H         -16.2053   -2.2408    4.5034 H       1  LIG1        0.0777
     42 H         -15.8660   -1.4037    6.0604 H       1  LIG1        0.0777
     43 H          -5.7634   -0.0308   -1.9419 H       1  LIG1        0.0320
     44 H          -4.9500   -1.4523   -1.3284 H       1  LIG1        0.0320
     45 H         -12.5808   -4.3963    4.6383 H       1  LIG1        0.0370
     46 H         -11.6242   -2.9328    4.5894 H       1  LIG1        0.0370
     47 H          -4.8931    1.3358   -0.0387 H       1  LIG1        0.0353
     48 H          -3.9459   -0.0080    0.5574 H       1  LIG1        0.0353
     49 H         -14.4073   -3.3088    3.3354 H       1  LIG1        0.0818
     50 H         -13.4804   -1.7839    3.2834 H       1  LIG1        0.0818
     51 H          -8.4436   -3.2642   -0.1983 H       1  LIG1        0.1529
     52 H         -14.4026   -3.2144    5.6742 H       1  LIG1        0.1997
@<TRIPOS>BOND
     1     1     2   ar
     2     1     3   ar
     3     2     5   ar
     4     3     6   ar
     5     4     7   ar
     6     4     8   ar
     7     5    11   ar
     8     6    11   ar
     9     7    12   ar
    10     8    13   ar
    11     9    10   ar
    12     9    14   ar
    13    10    12   ar
    14    10    13   ar
    15    11    19    1
    16    12    20    1
    17    13    25   ar
    18    14    15    1
    19    14    25   ar
    20    15    23   ar
    21    15    27   ar
    22    16    21    1
    23    16    23   ar
    24    16    24   ar
    25    17    26    1
    26    18    26    1
    27    19    21    1
    28    20    22    1
    29    22    26    1
    30    24    27   ar
    31     1    28    1
    32     2    29    1
    33     3    30    1
    34     4    31    1
    35     5    32    1
    36     6    33    1
    37     7    34    1
    38     8    35    1
    39     9    36    1
    40    17    37    1
    41    17    38    1
    42    17    39    1
    43    18    40    1
    44    18    41    1
    45    18    42    1
    46    19    43    1
    47    19    44    1
    48    20    45    1
    49    20    46    1
    50    21    47    1
    51    21    48    1
    52    22    49    1
    53    22    50    1
    54    25    51    1
    55    26    52    1
