@<TRIPOS>MOLECULE
ChEBML300404
 50 52 0 0 0
SMALL
USER_CHARGES

@<TRIPOS>ATOM
      1 C         -10.3464   -5.1708    0.4644 C.ar    1  LIG1       -0.0387
      2 C         -11.6839   -5.5239    0.6649 C.ar    1  LIG1       -0.0416
      3 C         -12.0824   -3.5079    1.9589 C.ar    1  LIG1       -0.0343
      4 C          -9.9534   -2.0171    2.1806 C.ar    1  LIG1       -0.0262
      5 C         -10.7378   -3.1312    1.7703 C.ar    1  LIG1       -0.0007
      6 C          -9.9026   -3.9696    1.0288 C.ar    1  LIG1        0.0379
      7 C         -12.5403   -4.7068    1.4003 C.ar    1  LIG1        0.0413
      8 C          -8.6808   -2.1975    1.6898 C.ar    1  LIG1        0.0945
      9 C          -7.4979   -1.3126    1.8474 C.2     1  LIG1        0.2576
     10 C          -4.6246   -0.6214   -0.0684 C.2     1  LIG1        0.2319
     11 C          -2.6628   -0.3469   -3.8725 C.3     1  LIG1       -0.0515
     12 C          -2.6921    1.1317   -3.4754 C.3     1  LIG1       -0.0515
     13 C          -3.0265   -1.1289   -2.6132 C.3     1  LIG1       -0.0344
     14 C          -3.0706    1.1638   -1.9970 C.3     1  LIG1       -0.0344
     15 C          -2.6169   -0.1960   -1.4799 C.3     1  LIG1        0.0255
     16 C          -0.8705   -2.6348   -0.1373 C.3     1  LIG1       -0.0374
     17 C          -5.0916   -1.0115    1.3228 C.3     1  LIG1        0.0887
     18 C          -2.2977   -0.8298    0.8804 C.3     1  LIG1        0.0403
     19 C          -1.9425   -2.3145    0.8956 C.3     1  LIG1        0.0670
     20 N          -8.6600   -3.3778    0.9962 N.ar    1  LIG1       -0.3101
     21 N          -6.3228   -1.7439    1.2399 N.am    1  LIG1       -0.3013
     22 N          -3.2205   -0.5486   -0.2276 N.am    1  LIG1       -0.2949
     23 O          -7.6037   -0.2809    2.5053 O.2     1  LIG1       -0.2704
     24 O          -5.4388   -0.3947   -0.9673 O.2     1  LIG1       -0.2756
     25 O          -1.4444   -2.6507    2.1892 O.3     1  LIG1       -0.3917
     26 CL        -14.1832   -5.1752    1.6244 Cl      1  LIG1       -0.0843
     27 H          -9.6806   -5.8082   -0.1078 H       1  LIG1        0.0643
     28 H         -12.0465   -6.4547    0.2338 H       1  LIG1        0.0639
     29 H         -12.7491   -2.8699    2.5332 H       1  LIG1        0.0645
     30 H         -10.2884   -1.1752    2.7717 H       1  LIG1        0.0651
     31 H          -3.3573   -0.5637   -4.6903 H       1  LIG1        0.0267
     32 H          -1.6572   -0.6193   -4.2135 H       1  LIG1        0.0267
     33 H          -1.7011    1.5753   -3.6257 H       1  LIG1        0.0267
     34 H          -3.4030    1.7025   -4.0811 H       1  LIG1        0.0267
     35 H          -4.1066   -1.3228   -2.5913 H       1  LIG1        0.0285
     36 H          -2.5165   -2.0959   -2.5637 H       1  LIG1        0.0285
     37 H          -2.5952    1.9939   -1.4651 H       1  LIG1        0.0285
     38 H          -4.1564    1.2827   -1.8920 H       1  LIG1        0.0285
     39 H          -1.5292   -0.2104   -1.3424 H       1  LIG1        0.0506
     40 H           0.0318   -2.0381    0.0275 H       1  LIG1        0.0257
     41 H          -0.6015   -3.6965   -0.1070 H       1  LIG1        0.0257
     42 H          -1.2402   -2.4329   -1.1486 H       1  LIG1        0.0257
     43 H          -4.3536   -1.6588    1.8035 H       1  LIG1        0.0567
     44 H          -5.2791   -0.1193    1.9259 H       1  LIG1        0.0567
     45 H          -2.7792   -0.5354    1.8191 H       1  LIG1        0.0496
     46 H          -1.3989   -0.2184    0.7490 H       1  LIG1        0.0496
     47 H          -2.8334   -2.9248    0.7075 H       1  LIG1        0.0614
     48 H          -7.8513   -3.7623    0.5272 H       1  LIG1        0.1529
     49 H          -6.3044   -2.6453    0.7641 H       1  LIG1        0.1503
     50 H          -1.2460   -3.5995    2.1695 H       1  LIG1        0.2105
@<TRIPOS>BOND
     1     1     2   ar
     2     1     6   ar
     3     2     7   ar
     4     3     5   ar
     5     3     7   ar
     6     4     5   ar
     7     4     8   ar
     8     5     6   ar
     9     6    20   ar
    10     7    26    1
    11     8     9    1
    12     8    20   ar
    13     9    21   am
    14     9    23    2
    15    10    17    1
    16    10    22   am
    17    10    24    2
    18    11    12    1
    19    11    13    1
    20    12    14    1
    21    13    15    1
    22    14    15    1
    23    15    22    1
    24    16    19    1
    25    17    21    1
    26    18    19    1
    27    18    22    1
    28    19    25    1
    29     1    27    1
    30     2    28    1
    31     3    29    1
    32     4    30    1
    33    11    31    1
    34    11    32    1
    35    12    33    1
    36    12    34    1
    37    13    35    1
    38    13    36    1
    39    14    37    1
    40    14    38    1
    41    15    39    1
    42    16    40    1
    43    16    41    1
    44    16    42    1
    45    17    43    1
    46    17    44    1
    47    18    45    1
    48    18    46    1
    49    19    47    1
    50    20    48    1
    51    21    49    1
    52    25    50    1
