@<TRIPOS>MOLECULE
ChEBML300258
 43 45 0 0 0
SMALL
USER_CHARGES

@<TRIPOS>ATOM
      1 C          -2.6983   -0.3080   -3.8120 C.ar    1  LIG1       -0.0622
      2 C          -3.0679    1.0346   -3.7315 C.ar    1  LIG1       -0.0619
      3 C          -2.4926   -1.0458   -2.6463 C.ar    1  LIG1       -0.0619
      4 C          -3.2317    1.6393   -2.4853 C.ar    1  LIG1       -0.0574
      5 C          -2.6563   -0.4411   -1.4001 C.ar    1  LIG1       -0.0574
      6 C         -10.2160   -5.2217    0.4073 C.ar    1  LIG1       -0.0387
      7 C         -11.5734   -5.5549    0.3824 C.ar    1  LIG1       -0.0416
      8 C         -12.1587   -3.4983    1.5335 C.ar    1  LIG1       -0.0343
      9 C         -10.0777   -2.0239    2.0807 C.ar    1  LIG1       -0.0262
     10 C         -10.7961   -3.1412    1.5706 C.ar    1  LIG1       -0.0007
     11 C          -3.0259    0.9014   -1.3196 C.ar    1  LIG1       -0.0306
     12 C          -9.8582   -4.0094    1.0078 C.ar    1  LIG1        0.0379
     13 C         -12.5314   -4.7080    0.9362 C.ar    1  LIG1        0.0413
     14 C          -8.7422   -2.2316    1.8228 C.ar    1  LIG1        0.0945
     15 C          -7.5910   -1.3549    2.1592 C.2     1  LIG1        0.2576
     16 C          -4.8154   -0.1452    0.9075 C.2     1  LIG1        0.2316
     17 C          -2.7596    0.4806    2.1974 C.3     1  LIG1        0.0031
     18 C          -3.2017    1.5519    0.0222 C.3     1  LIG1        0.0389
     19 C          -5.1260   -1.0940    2.0517 C.3     1  LIG1        0.0887
     20 N          -8.6198   -3.4317    1.1752 N.ar    1  LIG1       -0.3101
     21 N          -6.3353   -1.8158    1.7763 N.am    1  LIG1       -0.3013
     22 N          -3.6383    0.6004    1.0365 N.am    1  LIG1       -0.2992
     23 O          -7.7933   -0.3035    2.7611 O.2     1  LIG1       -0.2704
     24 O          -5.5710   -0.0592   -0.0642 O.2     1  LIG1       -0.2756
     25 CL        -14.1952   -5.1526    0.8847 Cl      1  LIG1       -0.0843
     26 H          -2.5721   -0.7791   -4.7826 H       1  LIG1        0.0622
     27 H          -3.2292    1.6090   -4.6391 H       1  LIG1        0.0623
     28 H          -2.2058   -2.0915   -2.7087 H       1  LIG1        0.0623
     29 H          -3.5196    2.6860   -2.4321 H       1  LIG1        0.0626
     30 H          -2.4937   -1.0238   -0.4972 H       1  LIG1        0.0626
     31 H          -9.4711   -5.8823   -0.0237 H       1  LIG1        0.0643
     32 H         -11.8700   -6.4939   -0.0800 H       1  LIG1        0.0639
     33 H         -12.9048   -2.8370    1.9663 H       1  LIG1        0.0645
     34 H         -10.4970   -1.1617    2.5822 H       1  LIG1        0.0651
     35 H          -2.0097   -0.2953    2.0225 H       1  LIG1        0.0433
     36 H          -3.3401    0.2152    3.0851 H       1  LIG1        0.0433
     37 H          -2.2481    1.4287    2.3837 H       1  LIG1        0.0433
     38 H          -2.2606    1.9982    0.3612 H       1  LIG1        0.0520
     39 H          -3.9444    2.3552   -0.0249 H       1  LIG1        0.0520
     40 H          -4.3228   -1.8265    2.1664 H       1  LIG1        0.0567
     41 H          -5.2796   -0.5357    2.9787 H       1  LIG1        0.0567
     42 H          -7.7482   -3.8379    0.8638 H       1  LIG1        0.1529
     43 H          -6.2487   -2.7308    1.3352 H       1  LIG1        0.1503
@<TRIPOS>BOND
     1     1     2   ar
     2     1     3   ar
     3     2     4   ar
     4     3     5   ar
     5     4    11   ar
     6     5    11   ar
     7     6     7   ar
     8     6    12   ar
     9     7    13   ar
    10     8    10   ar
    11     8    13   ar
    12     9    10   ar
    13     9    14   ar
    14    10    12   ar
    15    11    18    1
    16    12    20   ar
    17    13    25    1
    18    14    15    1
    19    14    20   ar
    20    15    21   am
    21    15    23    2
    22    16    19    1
    23    16    22   am
    24    16    24    2
    25    17    22    1
    26    18    22    1
    27    19    21    1
    28     1    26    1
    29     2    27    1
    30     3    28    1
    31     4    29    1
    32     5    30    1
    33     6    31    1
    34     7    32    1
    35     8    33    1
    36     9    34    1
    37    17    35    1
    38    17    36    1
    39    17    37    1
    40    18    38    1
    41    18    39    1
    42    19    40    1
    43    19    41    1
    44    20    42    1
    45    21    43    1
