@<TRIPOS>MOLECULE
ChEBML300358
 54 56 0 0 0
SMALL
USER_CHARGES

@<TRIPOS>ATOM
      1 C         -10.3426   -5.1744    0.4638 C.ar    1  LIG1       -0.0387
      2 C         -11.6797   -5.5304    0.6621 C.ar    1  LIG1       -0.0416
      3 C         -12.0854   -3.5144    1.9536 C.ar    1  LIG1       -0.0343
      4 C          -9.9603   -2.0183    2.1779 C.ar    1  LIG1       -0.0262
      5 C         -10.7413   -3.1346    1.7670 C.ar    1  LIG1       -0.0007
      6 C          -9.9027   -3.9717    1.0279 C.ar    1  LIG1        0.0379
      7 C         -12.5394   -4.7147    1.3951 C.ar    1  LIG1        0.0413
      8 C          -8.6864   -2.1961    1.6896 C.ar    1  LIG1        0.0945
      9 C          -7.5059   -1.3083    1.8486 C.2     1  LIG1        0.2576
     10 C          -4.6307   -0.6119   -0.0625 C.2     1  LIG1        0.2319
     11 C          -2.7286   -0.3188   -3.9303 C.3     1  LIG1       -0.0515
     12 C          -2.7623    1.1599   -3.5343 C.3     1  LIG1       -0.0515
     13 C          -3.0669   -1.1019   -2.6646 C.3     1  LIG1       -0.0344
     14 C          -3.1176    1.1911   -2.0502 C.3     1  LIG1       -0.0344
     15 C          -2.6462   -0.1648   -1.5388 C.3     1  LIG1        0.0255
     16 C          -1.3752    0.0965    2.9638 C.3     1  LIG1       -0.0322
     17 C          -5.0993   -1.0019    1.3283 C.3     1  LIG1        0.0887
     18 C          -2.3031   -0.7946    0.8192 C.3     1  LIG1        0.0454
     19 C          -1.0276    1.4384    0.8604 C.3     1  LIG1        0.0732
     20 C          -1.9736    0.4860    1.6068 C.3     1  LIG1        0.1006
     21 N          -8.6615   -3.3769    0.9972 N.ar    1  LIG1       -0.3101
     22 N          -6.3286   -1.7372    1.2436 N.am    1  LIG1       -0.3013
     23 N          -3.2403   -0.5281   -0.2489 N.am    1  LIG1       -0.2945
     24 O          -7.6154   -0.2762    2.5053 O.2     1  LIG1       -0.2704
     25 O          -5.4438   -0.3878   -0.9631 O.2     1  LIG1       -0.2756
     26 O          -0.4240    2.3600    1.7550 O.3     1  LIG1       -0.3933
     27 O          -3.1894    1.1880    1.8819 O.3     1  LIG1       -0.3861
     28 CL        -14.1815   -5.1869    1.6167 Cl      1  LIG1       -0.0843
     29 H          -9.6742   -5.8107   -0.1067 H       1  LIG1        0.0643
     30 H         -12.0392   -6.4625    0.2311 H       1  LIG1        0.0639
     31 H         -12.7545   -2.8774    2.5260 H       1  LIG1        0.0645
     32 H         -10.2985   -1.1766    2.7676 H       1  LIG1        0.0651
     33 H          -3.4343   -0.5415   -4.7368 H       1  LIG1        0.0267
     34 H          -1.7266   -0.5843   -4.2867 H       1  LIG1        0.0267
     35 H          -1.7770    1.6105   -3.7008 H       1  LIG1        0.0267
     36 H          -3.4868    1.7249   -4.1294 H       1  LIG1        0.0267
     37 H          -4.1450   -1.3035   -2.6255 H       1  LIG1        0.0285
     38 H          -2.5492   -2.0652   -2.6220 H       1  LIG1        0.0285
     39 H          -2.6400    2.0253   -1.5268 H       1  LIG1        0.0285
     40 H          -4.2025    1.3023   -1.9282 H       1  LIG1        0.0285
     41 H          -1.5564   -0.1712   -1.4185 H       1  LIG1        0.0506
     42 H          -1.1287    0.9886    3.5514 H       1  LIG1        0.0261
     43 H          -2.0589   -0.5263    3.5496 H       1  LIG1        0.0261
     44 H          -0.4356   -0.4526    2.8317 H       1  LIG1        0.0261
     45 H          -4.3607   -1.6469    1.8110 H       1  LIG1        0.0567
     46 H          -5.2901   -0.1096    1.9302 H       1  LIG1        0.0567
     47 H          -2.7237   -1.5629    1.4768 H       1  LIG1        0.0500
     48 H          -1.3914   -1.2043    0.3697 H       1  LIG1        0.0500
     49 H          -1.5606    1.9974    0.0831 H       1  LIG1        0.0594
     50 H          -0.2383    0.8725    0.3515 H       1  LIG1        0.0594
     51 H          -7.8511   -3.7599    0.5299 H       1  LIG1        0.1529
     52 H          -6.3072   -2.6390    0.7687 H       1  LIG1        0.1503
     53 H           0.1576    2.9290    1.2241 H       1  LIG1        0.2102
     54 H          -3.7541    0.5709    2.3695 H       1  LIG1        0.2110
@<TRIPOS>BOND
     1     1     2   ar
     2     1     6   ar
     3     2     7   ar
     4     3     5   ar
     5     3     7   ar
     6     4     5   ar
     7     4     8   ar
     8     5     6   ar
     9     6    21   ar
    10     7    28    1
    11     8     9    1
    12     8    21   ar
    13     9    22   am
    14     9    24    2
    15    10    17    1
    16    10    23   am
    17    10    25    2
    18    11    12    1
    19    11    13    1
    20    12    14    1
    21    13    15    1
    22    14    15    1
    23    15    23    1
    24    16    20    1
    25    17    22    1
    26    18    20    1
    27    18    23    1
    28    19    20    1
    29    19    26    1
    30    20    27    1
    31     1    29    1
    32     2    30    1
    33     3    31    1
    34     4    32    1
    35    11    33    1
    36    11    34    1
    37    12    35    1
    38    12    36    1
    39    13    37    1
    40    13    38    1
    41    14    39    1
    42    14    40    1
    43    15    41    1
    44    16    42    1
    45    16    43    1
    46    16    44    1
    47    17    45    1
    48    17    46    1
    49    18    47    1
    50    18    48    1
    51    19    49    1
    52    19    50    1
    53    21    51    1
    54    22    52    1
    55    26    53    1
    56    27    54    1
