@<TRIPOS>MOLECULE
ChEBML300264
 40 42 0 0 0
SMALL
USER_CHARGES

@<TRIPOS>ATOM
      1 C          -2.5412    0.9931   -3.5484 C.ar    1  LIG1       -0.0621
      2 C          -3.7292    1.3602   -2.9160 C.ar    1  LIG1       -0.0604
      3 C          -1.7944   -0.0797   -3.0614 C.ar    1  LIG1       -0.0604
      4 C         -10.3224   -5.2596    0.5994 C.ar    1  LIG1       -0.0387
      5 C          -4.1702    0.6543   -1.7967 C.ar    1  LIG1       -0.0405
      6 C          -2.2356   -0.7855   -1.9420 C.ar    1  LIG1       -0.0405
      7 C         -11.6961   -5.5154    0.5611 C.ar    1  LIG1       -0.0416
      8 C         -12.1868   -3.3381    1.5181 C.ar    1  LIG1       -0.0343
      9 C         -10.0361   -1.9441    2.0033 C.ar    1  LIG1       -0.0262
     10 C         -10.8067   -3.0578    1.5666 C.ar    1  LIG1       -0.0007
     11 C          -9.9082   -4.0230    1.1070 C.ar    1  LIG1        0.0379
     12 C          -3.4235   -0.4185   -1.3097 C.ar    1  LIG1        0.0351
     13 C         -12.6157   -4.5708    1.0128 C.ar    1  LIG1        0.0413
     14 C          -8.7093   -2.2492    1.8045 C.ar    1  LIG1        0.0945
     15 C          -7.5625   -1.4464    2.0899 C.2     1  LIG1        0.2576
     16 C          -4.6416   -0.4742    0.8334 C.2     1  LIG1        0.2356
     17 C          -3.5421   -2.5779   -0.0243 C.3     1  LIG1        0.0080
     18 C          -5.0387   -1.3046    2.0456 C.3     1  LIG1        0.0890
     19 N          -8.6423   -3.5051    1.2633 N.ar    1  LIG1       -0.3101
     20 N          -6.2905   -1.9823    1.7949 N.am    1  LIG1       -0.3013
     21 N          -3.8821   -1.1517   -0.1468 N.am    1  LIG1       -0.2734
     22 O          -7.6713   -0.3058    2.6068 O.2     1  LIG1       -0.2704
     23 O          -4.9555    0.7178    0.7828 O.2     1  LIG1       -0.2752
     24 CL        -14.3012   -4.9222    0.9481 Cl      1  LIG1       -0.0843
     25 H          -2.1978    1.5420   -4.4204 H       1  LIG1        0.0622
     26 H          -4.3112    2.1947   -3.2954 H       1  LIG1        0.0623
     27 H          -0.8700   -0.3658   -3.5547 H       1  LIG1        0.0623
     28 H          -9.6074   -5.9960    0.2480 H       1  LIG1        0.0643
     29 H          -5.0977    0.9493   -1.3122 H       1  LIG1        0.0642
     30 H          -1.6453   -1.6200   -1.5715 H       1  LIG1        0.0642
     31 H         -12.0363   -6.4719    0.1700 H       1  LIG1        0.0639
     32 H         -12.9029   -2.6007    1.8712 H       1  LIG1        0.0645
     33 H         -10.4159   -1.0197    2.4181 H       1  LIG1        0.0651
     34 H          -2.5922   -2.6937    0.5041 H       1  LIG1        0.0437
     35 H          -3.4514   -3.0313   -1.0150 H       1  LIG1        0.0437
     36 H          -4.3212   -3.1056    0.5325 H       1  LIG1        0.0437
     37 H          -4.2887   -2.0749    2.2420 H       1  LIG1        0.0567
     38 H          -5.1810   -0.6624    2.9186 H       1  LIG1        0.0567
     39 H          -7.7888   -3.9857    1.0136 H       1  LIG1        0.1529
     40 H          -6.2383   -2.9305    1.4374 H       1  LIG1        0.1503
@<TRIPOS>BOND
     1     1     2   ar
     2     1     3   ar
     3     2     5   ar
     4     3     6   ar
     5     4     7   ar
     6     4    11   ar
     7     5    12   ar
     8     6    12   ar
     9     7    13   ar
    10     8    10   ar
    11     8    13   ar
    12     9    10   ar
    13     9    14   ar
    14    10    11   ar
    15    11    19   ar
    16    12    21    1
    17    13    24    1
    18    14    15    1
    19    14    19   ar
    20    15    20   am
    21    15    22    2
    22    16    18    1
    23    16    21   am
    24    16    23    2
    25    17    21    1
    26    18    20    1
    27     1    25    1
    28     2    26    1
    29     3    27    1
    30     4    28    1
    31     5    29    1
    32     6    30    1
    33     7    31    1
    34     8    32    1
    35     9    33    1
    36    17    34    1
    37    17    35    1
    38    17    36    1
    39    18    37    1
    40    18    38    1
    41    19    39    1
    42    20    40    1
