@<TRIPOS>MOLECULE
ChEBML331541
 39 41 0 0 0
SMALL
USER_CHARGES

@<TRIPOS>ATOM
      1 C         -10.0747   -5.3585    0.9717 C.ar    1  LIG1       -0.0373
      2 C         -11.4319   -5.6853    0.9004 C.ar    1  LIG1       -0.0241
      3 C         -10.0105   -1.8400    1.7851 C.ar    1  LIG1       -0.0258
      4 C         -10.7069   -3.0496    1.5075 C.ar    1  LIG1        0.0036
      5 C         -12.0689   -3.4026    1.4301 C.ar    1  LIG1       -0.0061
      6 C          -9.7433   -4.0337    1.2771 C.ar    1  LIG1        0.0383
      7 C         -12.4153   -4.7240    1.1256 C.ar    1  LIG1        0.1264
      8 C          -8.6627   -2.1084    1.7193 C.ar    1  LIG1        0.0947
      9 C          -7.5657   -1.2084    1.9249 C.2     1  LIG1        0.2602
     10 C          -6.4033   -2.1579   -0.1004 C.3     1  LIG1        0.0539
     11 C          -5.0605   -1.1557    1.7018 C.3     1  LIG1        0.0539
     12 C          -5.6934   -1.3022   -1.1391 C.3     1  LIG1       -0.0183
     13 C          -4.3189   -0.2876    0.6947 C.3     1  LIG1       -0.0183
     14 C         -13.1647   -2.4114    1.6622 C.3     1  LIG1       -0.0362
     15 C          -3.5035   -0.2214   -1.6651 C.3     1  LIG1       -0.0453
     16 N          -8.5115   -3.4339    1.4121 N.ar    1  LIG1       -0.3101
     17 N          -6.3958   -1.4936    1.2093 N.am    1  LIG1       -0.2863
     18 N          -4.2966   -0.9897   -0.6456 N.4     1  LIG1        0.2462
     19 O          -7.6776   -0.2523    2.6901 O.2     1  LIG1       -0.2701
     20 F         -13.7061   -5.0803    1.0491 F       1  LIG1       -0.2066
     21 H          -9.3099   -6.1076    0.7956 H       1  LIG1        0.0644
     22 H         -11.7235   -6.7059    0.6663 H       1  LIG1        0.0654
     23 H         -10.4507   -0.8773    2.0090 H       1  LIG1        0.0651
     24 H          -7.4199   -2.3705   -0.4399 H       1  LIG1        0.0525
     25 H          -5.8943   -3.1218    0.0210 H       1  LIG1        0.0525
     26 H          -4.5249   -2.0974    1.8716 H       1  LIG1        0.0525
     27 H          -5.1204   -0.6356    2.6628 H       1  LIG1        0.0525
     28 H          -5.5958   -1.8387   -2.0882 H       1  LIG1        0.0831
     29 H          -6.2057   -0.3470   -1.3009 H       1  LIG1        0.0831
     30 H          -4.8137    0.6793    0.5491 H       1  LIG1        0.0831
     31 H          -3.2804   -0.1311    1.0036 H       1  LIG1        0.0831
     32 H         -13.4443   -1.9298    0.7190 H       1  LIG1        0.0281
     33 H         -14.0518   -2.8965    2.0856 H       1  LIG1        0.0281
     34 H         -12.8519   -1.6374    2.3729 H       1  LIG1        0.0281
     35 H          -4.0017    0.7370   -1.8224 H       1  LIG1        0.0777
     36 H          -2.4966   -0.0800   -1.2677 H       1  LIG1        0.0777
     37 H          -3.4837   -0.8089   -2.5850 H       1  LIG1        0.0777
     38 H          -7.6254   -3.9077    1.3006 H       1  LIG1        0.1529
     39 H          -3.8106   -1.8874   -0.5127 H       1  LIG1        0.2001
@<TRIPOS>BOND
     1     1     2   ar
     2     1     6   ar
     3     2     7   ar
     4     3     4   ar
     5     3     8   ar
     6     4     5   ar
     7     4     6   ar
     8     5     7   ar
     9     5    14    1
    10     6    16   ar
    11     7    20    1
    12     8     9    1
    13     8    16   ar
    14     9    17   am
    15     9    19    2
    16    10    12    1
    17    10    17    1
    18    11    13    1
    19    11    17    1
    20    12    18    1
    21    13    18    1
    22    15    18    1
    23     1    21    1
    24     2    22    1
    25     3    23    1
    26    10    24    1
    27    10    25    1
    28    11    26    1
    29    11    27    1
    30    12    28    1
    31    12    29    1
    32    13    30    1
    33    13    31    1
    34    14    32    1
    35    14    33    1
    36    14    34    1
    37    15    35    1
    38    15    36    1
    39    15    37    1
    40    16    38    1
    41    18    39    1
