@<TRIPOS>MOLECULE
ChEBML2083
 42 46 0 0 0
SMALL
USER_CHARGES

@<TRIPOS>ATOM
      1 C          -3.3108   -0.9382   -2.5449 C.ar    1  LIG1       -0.0615
      2 C          -2.4918   -0.6508   -1.4548 C.ar    1  LIG1       -0.0603
      3 C          -4.6750   -1.1968   -2.3676 C.ar    1  LIG1       -0.0530
      4 C          -3.0075   -0.6123   -0.1562 C.ar    1  LIG1       -0.0402
      5 C         -10.3022   -5.1669    0.4560 C.ar    1  LIG1       -0.0376
      6 C         -11.6375   -5.5331    0.6478 C.ar    1  LIG1       -0.0292
      7 C         -12.0632   -3.5228    1.9420 C.ar    1  LIG1       -0.0219
      8 C          -6.5191   -1.3699   -0.5309 C.ar    1  LIG1       -0.0276
      9 C          -9.9500   -2.0118    2.1785 C.ar    1  LIG1       -0.0275
     10 C          -5.2174   -1.1637   -1.0675 C.ar    1  LIG1       -0.0022
     11 C         -10.7212   -3.1328    1.7619 C.ar    1  LIG1        0.0004
     12 C          -4.3728   -0.8728    0.0061 C.ar    1  LIG1        0.0378
     13 C          -9.8734   -3.9622    1.0245 C.ar    1  LIG1        0.0379
     14 C         -12.5062   -4.7252    1.3791 C.ar    1  LIG1        0.0861
     15 C          -6.4410   -1.2037    0.8327 C.ar    1  LIG1        0.0811
     16 C          -8.6728   -2.1793    1.6953 C.ar    1  LIG1        0.0811
     17 C          -7.5446   -1.3171    1.8541 C.2     1  LIG1        0.2206
     18 C         -14.5158   -5.2626    0.3493 C.2     1  LIG1        0.2691
     19 C         -16.4624   -6.9302   -0.0004 C.3     1  LIG1       -0.0403
     20 C         -16.1622   -6.9139    1.4698 C.3     1  LIG1       -0.0403
     21 C         -15.9250   -5.6851    0.6418 C.3     1  LIG1        0.0456
     22 N          -5.1426   -0.9038    1.1470 N.ar    1  LIG1       -0.3112
     23 N          -8.6364   -3.3584    1.0004 N.ar    1  LIG1       -0.3112
     24 O          -7.4136   -0.5979    2.8718 O.2     1  LIG1       -0.2856
     25 O         -14.0713   -5.0811   -0.7764 O.2     1  LIG1       -0.2658
     26 O         -13.8028   -5.1093    1.5489 O.3     1  LIG1       -0.2779
     27 H          -2.8869   -0.9616   -3.5454 H       1  LIG1        0.0623
     28 H          -1.4353   -0.4534   -1.6156 H       1  LIG1        0.0623
     29 H          -5.3022   -1.4191   -3.2263 H       1  LIG1        0.0629
     30 H          -2.3696   -0.3890    0.6924 H       1  LIG1        0.0642
     31 H          -9.6268   -5.7963   -0.1137 H       1  LIG1        0.0643
     32 H         -11.9963   -6.4647    0.2164 H       1  LIG1        0.0651
     33 H         -12.7470   -2.8980    2.5103 H       1  LIG1        0.0657
     34 H          -7.4145   -1.6137   -1.0871 H       1  LIG1        0.0651
     35 H         -10.2969   -1.1742    2.7690 H       1  LIG1        0.0651
     36 H         -15.7990   -7.4955   -0.6434 H       1  LIG1        0.0275
     37 H         -17.5030   -6.9522   -0.3012 H       1  LIG1        0.0275
     38 H         -17.0015   -6.9271    2.1543 H       1  LIG1        0.0275
     39 H         -15.2957   -7.4655    1.8138 H       1  LIG1        0.0275
     40 H         -16.6234   -4.8657    0.7740 H       1  LIG1        0.0409
     41 H          -4.7956   -0.7307    2.0805 H       1  LIG1        0.1529
     42 H          -7.8214   -3.7343    0.5354 H       1  LIG1        0.1529
@<TRIPOS>BOND
     1     1     2   ar
     2     1     3   ar
     3     2     4   ar
     4     3    10   ar
     5     4    12   ar
     6     5     6   ar
     7     5    13   ar
     8     6    14   ar
     9     7    11   ar
    10     7    14   ar
    11     8    10   ar
    12     8    15   ar
    13     9    11   ar
    14     9    16   ar
    15    10    12   ar
    16    11    13   ar
    17    12    22   ar
    18    13    23   ar
    19    14    26    1
    20    15    17    1
    21    15    22   ar
    22    16    17    1
    23    16    23   ar
    24    17    24    2
    25    18    21    1
    26    18    25    2
    27    18    26    1
    28    19    20    1
    29    19    21    1
    30    20    21    1
    31     1    27    1
    32     2    28    1
    33     3    29    1
    34     4    30    1
    35     5    31    1
    36     6    32    1
    37     7    33    1
    38     8    34    1
    39     9    35    1
    40    19    36    1
    41    19    37    1
    42    20    38    1
    43    20    39    1
    44    21    40    1
    45    22    41    1
    46    23    42    1
