@<TRIPOS>MOLECULE
ChEBML311744
 53 55 0 0 0
SMALL
USER_CHARGES

@<TRIPOS>ATOM
      1 C         -11.6413   -5.3593    0.8038 C.ar    1  LIG1       -0.0566
      2 C         -11.9888   -2.9724    0.9420 C.ar    1  LIG1       -0.0566
      3 C         -10.2750   -5.1726    1.0137 C.ar    1  LIG1       -0.0404
      4 C         -10.6226   -2.7856    1.1521 C.ar    1  LIG1       -0.0404
      5 C          -2.8229   -1.1018   -2.3542 C.ar    1  LIG1       -0.0153
      6 C          -2.2757    0.9372   -3.4273 C.ar    1  LIG1        0.0527
      7 C         -12.4982   -4.2593    0.7678 C.ar    1  LIG1       -0.0425
      8 C          -1.9916   -0.3954   -3.2055 C.ar    1  LIG1       -0.0274
      9 C          -9.7657   -3.8858    1.1879 C.ar    1  LIG1        0.0340
     10 C          -3.8831   -0.4288   -1.7806 C.ar    1  LIG1        0.1432
     11 C          -7.8783   -2.4310    1.6478 C.2     1  LIG1        0.3050
     12 C          -4.8421   -0.6835    0.4525 C.3     1  LIG1        0.0289
     13 C          -5.7942   -1.9174   -1.5192 C.3     1  LIG1        0.0289
     14 C          -6.3088   -0.6751    0.8773 C.3     1  LIG1        0.0315
     15 C          -6.4824   -2.7686   -0.4511 C.3     1  LIG1        0.0315
     16 C          -0.8287   -1.0508   -3.8613 C.3     1  LIG1       -0.0381
     17 C         -14.5861   -5.3510    1.6595 C.3     1  LIG1       -0.0561
     18 C         -14.2309   -5.1576   -0.8251 C.3     1  LIG1       -0.0561
     19 C         -14.8199   -3.1526    0.5220 C.3     1  LIG1       -0.0561
     20 C         -13.9589   -4.4591    0.5434 C.3     1  LIG1       -0.0132
     21 N          -3.3203    1.5701   -2.8526 N.ar    1  LIG1       -0.1569
     22 N          -4.1370    0.8759   -2.0155 N.ar    1  LIG1       -0.1352
     23 N          -4.7064   -1.1289   -0.9370 N.pl3   1  LIG1       -0.3112
     24 N          -6.9261   -1.9892    0.7100 N.am    1  LIG1       -0.2824
     25 N          -8.3949   -3.6980    1.3988 N.am    1  LIG1       -0.2691
     26 O          -8.2230   -1.7516    2.6203 O.2     1  LIG1       -0.2537
     27 H         -12.0291   -6.3653    0.6668 H       1  LIG1        0.0626
     28 H         -12.6492   -2.1097    0.9149 H       1  LIG1        0.0626
     29 H          -9.6165   -6.0372    1.0402 H       1  LIG1        0.0642
     30 H         -10.2361   -1.7784    1.2855 H       1  LIG1        0.0642
     31 H          -2.6420   -2.1522   -2.1472 H       1  LIG1        0.0663
     32 H          -1.6674    1.5512   -4.0822 H       1  LIG1        0.0862
     33 H          -4.4258    0.3226    0.5862 H       1  LIG1        0.0485
     34 H          -4.2682   -1.3637    1.0934 H       1  LIG1        0.0485
     35 H          -5.4063   -2.5738   -2.3074 H       1  LIG1        0.0485
     36 H          -6.5259   -1.2412   -1.9798 H       1  LIG1        0.0485
     37 H          -6.3926   -0.3483    1.9191 H       1  LIG1        0.0486
     38 H          -6.8847    0.0296    0.2652 H       1  LIG1        0.0486
     39 H          -7.3418   -3.2794   -0.8976 H       1  LIG1        0.0486
     40 H          -5.7931   -3.5337   -0.0738 H       1  LIG1        0.0486
     41 H          -1.1226   -1.4805   -4.8283 H       1  LIG1        0.0280
     42 H          -0.0103   -0.3381   -4.0353 H       1  LIG1        0.0280
     43 H          -0.4162   -1.8566   -3.2372 H       1  LIG1        0.0280
     44 H         -15.6609   -5.5137    1.5178 H       1  LIG1        0.0239
     45 H         -14.1149   -6.3395    1.6952 H       1  LIG1        0.0239
     46 H         -14.4458   -4.8839    2.6415 H       1  LIG1        0.0239
     47 H         -15.3031   -5.3062   -0.9937 H       1  LIG1        0.0239
     48 H         -13.8495   -4.5830   -1.6772 H       1  LIG1        0.0239
     49 H         -13.7543   -6.1448   -0.8482 H       1  LIG1        0.0239
     50 H         -15.8854   -3.3512    0.3540 H       1  LIG1        0.0239
     51 H         -14.7390   -2.6165    1.4747 H       1  LIG1        0.0239
     52 H         -14.4881   -2.4801   -0.2778 H       1  LIG1        0.0239
     53 H          -7.8156   -4.5294    1.4163 H       1  LIG1        0.1573
@<TRIPOS>BOND
     1     1     3   ar
     2     1     7   ar
     3     2     4   ar
     4     2     7   ar
     5     3     9   ar
     6     4     9   ar
     7     5     8   ar
     8     5    10   ar
     9     6     8   ar
    10     6    21   ar
    11     7    20    1
    12     8    16    1
    13     9    25    1
    14    10    22   ar
    15    10    23    1
    16    11    24   am
    17    11    25   am
    18    11    26    2
    19    12    14    1
    20    12    23    1
    21    13    15    1
    22    13    23    1
    23    14    24    1
    24    15    24    1
    25    17    20    1
    26    18    20    1
    27    19    20    1
    28    21    22   ar
    29     1    27    1
    30     2    28    1
    31     3    29    1
    32     4    30    1
    33     5    31    1
    34     6    32    1
    35    12    33    1
    36    12    34    1
    37    13    35    1
    38    13    36    1
    39    14    37    1
    40    14    38    1
    41    15    39    1
    42    15    40    1
    43    16    41    1
    44    16    42    1
    45    16    43    1
    46    17    44    1
    47    17    45    1
    48    17    46    1
    49    18    47    1
    50    18    48    1
    51    18    49    1
    52    19    50    1
    53    19    51    1
    54    19    52    1
    55    25    53    1
