@<TRIPOS>MOLECULE
ChEBML1066929
 30 32 0 0 0
SMALL
USER_CHARGES

@<TRIPOS>ATOM
      1 C         -12.4105   -4.7484    1.2295 C.ar    1  LIG1       -0.0615
      2 C         -11.4734   -5.5735    0.6109 C.ar    1  LIG1       -0.0603
      3 C          -4.0906   -0.4133   -1.3433 C.ar    1  LIG1       -0.0435
      4 C         -12.0260   -3.5290    1.7991 C.ar    1  LIG1       -0.0530
      5 C          -4.4035   -0.8807   -0.0717 C.ar    1  LIG1       -0.0555
      6 C         -10.1259   -5.2085    0.5415 C.ar    1  LIG1       -0.0402
      7 C          -9.9474   -2.0049    2.2000 C.ar    1  LIG1       -0.0280
      8 C          -5.1253   -0.2655   -2.2529 C.ar    1  LIG1        0.0268
      9 C          -6.6846   -0.9996   -0.7337 C.ar    1  LIG1        0.0304
     10 C         -10.6730   -3.1398    1.7413 C.ar    1  LIG1       -0.0023
     11 C          -5.7230   -1.1820    0.2470 C.ar    1  LIG1       -0.0218
     12 C          -9.7560   -3.9868    1.1152 C.ar    1  LIG1        0.0377
     13 C          -8.6285   -2.1817    1.8502 C.ar    1  LIG1        0.0750
     14 C          -7.5219   -1.3120    2.0958 C.2     1  LIG1        0.1808
     15 C          -6.0950   -1.6905    1.6182 C.3     1  LIG1        0.0389
     16 N          -6.4189   -0.5477   -1.9798 N.ar    1  LIG1       -0.2644
     17 N          -8.5230   -3.3798    1.1961 N.ar    1  LIG1       -0.3115
     18 O          -7.6640   -0.2167    2.7055 O.2     1  LIG1       -0.2923
     19 H         -13.4528   -5.0535    1.2702 H       1  LIG1        0.0623
     20 H         -11.7941   -6.5163    0.1754 H       1  LIG1        0.0623
     21 H          -3.0690   -0.1719   -1.6138 H       1  LIG1        0.0639
     22 H         -12.7670   -2.8950    2.2779 H       1  LIG1        0.0629
     23 H          -3.6136   -1.0070    0.6637 H       1  LIG1        0.0627
     24 H          -9.3964   -5.8513    0.0603 H       1  LIG1        0.0642
     25 H         -10.3515   -1.1521    2.7292 H       1  LIG1        0.0651
     26 H          -4.9331    0.0954   -3.2579 H       1  LIG1        0.0839
     27 H          -7.7310   -1.2177   -0.5432 H       1  LIG1        0.0842
     28 H          -6.0157   -2.7841    1.6223 H       1  LIG1        0.0401
     29 H          -5.3781   -1.2959    2.3481 H       1  LIG1        0.0401
     30 H          -7.6656   -3.7663    0.8257 H       1  LIG1        0.1529
@<TRIPOS>BOND
     1     1     2   ar
     2     1     4   ar
     3     2     6   ar
     4     3     5   ar
     5     3     8   ar
     6     4    10   ar
     7     5    11   ar
     8     6    12   ar
     9     7    10   ar
    10     7    13   ar
    11     8    16   ar
    12     9    11   ar
    13     9    16   ar
    14    10    12   ar
    15    11    15    1
    16    12    17   ar
    17    13    14    1
    18    13    17   ar
    19    14    15    1
    20    14    18    2
    21     1    19    1
    22     2    20    1
    23     3    21    1
    24     4    22    1
    25     5    23    1
    26     6    24    1
    27     7    25    1
    28     8    26    1
    29     9    27    1
    30    15    28    1
    31    15    29    1
    32    17    30    1
