@<TRIPOS>MOLECULE
ChEBML208889
 42 45 0 0 0
SMALL
USER_CHARGES

@<TRIPOS>ATOM
      1 C          -2.4955    0.8148   -3.4616 C.ar    1  LIG1       -0.0573
      2 C          -1.4396   -0.0840   -3.3594 C.ar    1  LIG1       -0.0437
      3 C          -3.5501    0.7454   -2.5580 C.ar    1  LIG1       -0.0217
      4 C         -11.8943   -3.8602    1.8839 C.ar    1  LIG1       -0.0201
      5 C         -11.3007   -5.6980    0.4011 C.ar    1  LIG1       -0.0316
      6 C          -1.4854   -1.0257   -2.3441 C.ar    1  LIG1        0.0290
      7 C         -10.6033   -3.3335    1.7095 C.ar    1  LIG1        0.0887
      8 C          -9.7023   -4.0043    0.8874 C.ar    1  LIG1        0.0720
      9 C         -12.2270   -5.0476    1.2198 C.ar    1  LIG1        0.0209
     10 C         -10.0115   -5.1878    0.2161 C.ar    1  LIG1        0.0422
     11 C          -3.5016   -0.2335   -1.5787 C.ar    1  LIG1        0.1202
     12 C          -8.8102   -2.1751    1.7548 C.ar    1  LIG1        0.1434
     13 C          -4.2088   -0.7870    0.6501 C.3     1  LIG1        0.0523
     14 C          -5.8134   -0.7948   -1.2527 C.3     1  LIG1        0.0523
     15 C          -5.3629   -0.5741    1.6203 C.3     1  LIG1       -0.0176
     16 C          -6.9651   -0.5869   -0.2772 C.3     1  LIG1       -0.0176
     17 C          -7.7588   -1.1385    2.0217 C.3     1  LIG1        0.0233
     18 N          -2.4927   -1.1240   -1.4478 N.ar    1  LIG1       -0.2414
     19 N         -10.0315   -2.1996    2.2393 N.ar    1  LIG1       -0.2302
     20 N          -8.5640   -3.2411    0.9349 N.ar    1  LIG1       -0.2960
     21 N          -4.5581   -0.2901   -0.6873 N.pl3   1  LIG1       -0.3054
     22 N          -6.6113   -1.2006    1.0530 N.4     1  LIG1        0.2537
     23 BR        -13.9594   -5.7797    1.4377 Br      1  LIG1       -0.0507
     24 BR         -8.7704   -6.0730   -0.8908 Br      1  LIG1       -0.0486
     25 H          -2.4971    1.5673   -4.2445 H       1  LIG1        0.0624
     26 H          -0.6070   -0.0490   -4.0526 H       1  LIG1        0.0639
     27 H          -4.3779    1.4432   -2.6300 H       1  LIG1        0.0659
     28 H         -12.6094   -3.3493    2.5218 H       1  LIG1        0.0658
     29 H         -11.5856   -6.6198   -0.1038 H       1  LIG1        0.0647
     30 H          -0.6862   -1.7492   -2.2211 H       1  LIG1        0.0840
     31 H          -3.3273   -0.2577    1.0325 H       1  LIG1        0.0524
     32 H          -3.9558   -1.8540    0.5953 H       1  LIG1        0.0524
     33 H          -5.7120   -1.8620   -1.4898 H       1  LIG1        0.0524
     34 H          -6.0472   -0.2697   -2.1871 H       1  LIG1        0.0524
     35 H          -5.1554   -1.0560    2.5812 H       1  LIG1        0.0831
     36 H          -5.5699    0.4905    1.7798 H       1  LIG1        0.0831
     37 H          -7.1667    0.4770   -0.1070 H       1  LIG1        0.0831
     38 H          -7.8733   -1.0792   -0.6400 H       1  LIG1        0.0831
     39 H          -8.1736   -0.1271    1.9533 H       1  LIG1        0.0899
     40 H          -7.3317   -1.2571    3.0233 H       1  LIG1        0.0899
     41 H          -7.6984   -3.4345    0.4486 H       1  LIG1        0.1543
     42 H          -6.4149   -2.1984    0.8935 H       1  LIG1        0.2009
@<TRIPOS>BOND
     1     1     2   ar
     2     1     3   ar
     3     2     6   ar
     4     3    11   ar
     5     4     7   ar
     6     4     9   ar
     7     5     9   ar
     8     5    10   ar
     9     6    18   ar
    10     7     8   ar
    11     7    19   ar
    12     8    10   ar
    13     8    20   ar
    14     9    23    1
    15    10    24    1
    16    11    18   ar
    17    11    21    1
    18    12    17    1
    19    12    19   ar
    20    12    20   ar
    21    13    15    1
    22    13    21    1
    23    14    16    1
    24    14    21    1
    25    15    22    1
    26    16    22    1
    27    17    22    1
    28     1    25    1
    29     2    26    1
    30     3    27    1
    31     4    28    1
    32     5    29    1
    33     6    30    1
    34    13    31    1
    35    13    32    1
    36    14    33    1
    37    14    34    1
    38    15    35    1
    39    15    36    1
    40    16    37    1
    41    16    38    1
    42    17    39    1
    43    17    40    1
    44    20    41    1
    45    22    42    1
