@<TRIPOS>MOLECULE
ChEBML459400
 34 37 0 0 0
SMALL
USER_CHARGES

@<TRIPOS>ATOM
      1 C         -12.5772   -5.0831    1.4483 C.ar    1  LIG1       -0.0616
      2 C         -11.8926   -5.5488    0.3296 C.ar    1  LIG1       -0.0616
      3 C         -12.0382   -4.0514    2.2175 C.ar    1  LIG1       -0.0544
      4 C         -10.6667   -4.9848   -0.0242 C.ar    1  LIG1       -0.0543
      5 C         -10.2480   -2.4328    2.6390 C.ar    1  LIG1       -0.0525
      6 C          -9.0219   -1.8687    2.2853 C.ar    1  LIG1       -0.0401
      7 C          -3.7886   -3.2695   -1.0698 C.ar    1  LIG1       -0.0150
      8 C          -8.8763   -3.3662    0.3973 C.ar    1  LIG1       -0.0328
      9 C          -4.6169   -4.0568   -0.2962 C.ar    1  LIG1        0.0329
     10 C          -1.8138   -0.1716   -3.2377 C.ar    1  LIG1        0.0350
     11 C          -2.5502    0.9760   -3.0309 C.ar    1  LIG1       -0.0042
     12 C         -10.8053   -3.4720    1.8762 C.ar    1  LIG1       -0.0182
     13 C         -10.1093   -3.9456    0.7386 C.ar    1  LIG1       -0.0165
     14 C          -8.3375   -2.3345    1.1666 C.ar    1  LIG1        0.0333
     15 C          -4.1492   -1.9412   -1.1689 C.ar    1  LIG1        0.1009
     16 C          -3.3747   -1.0098   -1.9448 C.ar    1  LIG1        0.1261
     17 C          -5.9599   -2.2812    0.1625 C.ar    1  LIG1        0.2186
     18 N          -2.2849   -1.3112   -2.6154 N.ar    1  LIG1       -0.2467
     19 N          -5.7148   -3.5939    0.3366 N.ar    1  LIG1       -0.2233
     20 N          -5.2326   -1.4113   -0.5639 N.ar    1  LIG1       -0.2125
     21 N          -7.0983   -1.7629    0.8097 N.pl3   1  LIG1       -0.2836
     22 S          -3.8900    0.6254   -2.0193 S.2     1  LIG1       -0.0743
     23 H         -13.5314   -5.5229    1.7234 H       1  LIG1        0.0623
     24 H         -12.3132   -6.3518   -0.2689 H       1  LIG1        0.0623
     25 H         -12.5894   -3.7038    3.0887 H       1  LIG1        0.0629
     26 H         -10.1491   -5.3657   -0.9022 H       1  LIG1        0.0629
     27 H         -10.7659   -2.0534    3.5174 H       1  LIG1        0.0630
     28 H          -8.6106   -1.0651    2.8909 H       1  LIG1        0.0642
     29 H          -2.9161   -3.6812   -1.5619 H       1  LIG1        0.0663
     30 H          -8.3321   -3.7224   -0.4760 H       1  LIG1        0.0649
     31 H          -4.4151   -5.1140   -0.1607 H       1  LIG1        0.0842
     32 H          -0.9175   -0.2316   -3.8401 H       1  LIG1        0.0846
     33 H          -2.3722    1.9702   -3.4152 H       1  LIG1        0.0717
     34 H          -7.0108   -0.7856    1.0722 H       1  LIG1        0.1559
@<TRIPOS>BOND
     1     1     2   ar
     2     1     3   ar
     3     2     4   ar
     4     3    12   ar
     5     4    13   ar
     6     5     6   ar
     7     5    12   ar
     8     6    14   ar
     9     7     9   ar
    10     7    15   ar
    11     8    13   ar
    12     8    14   ar
    13     9    19   ar
    14    10    11   ar
    15    10    18   ar
    16    11    22   ar
    17    12    13   ar
    18    14    21    1
    19    15    16    1
    20    15    20   ar
    21    16    18   ar
    22    16    22   ar
    23    17    19   ar
    24    17    20   ar
    25    17    21    1
    26     1    23    1
    27     2    24    1
    28     3    25    1
    29     4    26    1
    30     5    27    1
    31     6    28    1
    32     7    29    1
    33     8    30    1
    34     9    31    1
    35    10    32    1
    36    11    33    1
    37    21    34    1
