@<TRIPOS>MOLECULE
ChEBML92731
 49 53 0 0 0
SMALL
USER_CHARGES

@<TRIPOS>ATOM
      1 C          -1.3441    0.6180   -3.0387 C.ar    1  LIG1        0.0000
      2 C          -2.5688    1.2033   -3.3959 C.ar    1  LIG1        0.0000
      3 C          -7.7990   -0.1465    2.6145 C.ar    1  LIG1        0.0000
      4 C         -11.6954   -5.5036    0.6800 C.ar    1  LIG1        0.0000
      5 C          -1.3035   -0.4698   -2.1640 C.ar    1  LIG1        0.0000
      6 C          -3.7702    0.7091   -2.8834 C.ar    1  LIG1        0.0000
      7 C         -10.3518   -5.1842    0.4582 C.ar    1  LIG1        0.0000
      8 C          -6.7147    0.7140    2.7861 C.ar    1  LIG1        0.0000
      9 C          -6.4081   -1.6417    1.3233 C.ar    1  LIG1        0.0000
     10 C         -12.0423   -3.4680    1.9700 C.ar    1  LIG1        0.0000
     11 C          -7.6457   -1.3244    1.8830 C.ar    1  LIG1        0.0000
     12 C         -12.5275   -4.6622    1.4222 C.ar    1  LIG1        0.0000
     13 C          -2.4990   -0.9459   -1.6516 C.ar    1  LIG1        0.0000
     14 C          -3.7194   -0.3626   -2.0076 C.ar    1  LIG1        0.0000
     15 C         -10.6948   -3.1315    1.7572 C.ar    1  LIG1        0.0000
     16 C          -9.8904   -3.9901    1.0133 C.ar    1  LIG1        0.0000
     17 C          -5.4771    0.3966    2.2264 C.ar    1  LIG1        0.0000
     18 C          -5.3238   -0.7812    1.4950 C.ar    1  LIG1        0.0000
     19 C          -8.7672   -2.2143    1.7059 C.ar    1  LIG1        0.0000
     20 C         -13.9367   -5.0352    1.6327 C.2     1  LIG1        0.0000
     21 C          -2.7058   -2.1122   -0.7339 C.3     1  LIG1        0.0000
     22 C          -4.8675   -1.0789   -1.3642 C.3     1  LIG1        0.0000
     23 C          -4.1507   -1.8752   -0.2608 C.3     1  LIG1        0.0000
     24 C          -3.6029    1.0308    3.5457 C.3     1  LIG1        0.0000
     25 N          -9.9799   -2.0339    2.1788 N.ar    1  LIG1        0.0000
     26 N          -8.6631   -3.3785    0.9967 N.ar    1  LIG1        0.0000
     27 O         -14.6890   -4.2481    2.3194 O.co2   1  LIG1       -0.5000
     28 O         -14.3683   -6.1358    1.1230 O.co2   1  LIG1       -0.5000
     29 O          -4.1160   -1.1037    0.9416 O.3     1  LIG1        0.0000
     30 O          -4.4255    1.2449    2.4005 O.3     1  LIG1        0.0000
     31 H          -0.4199    1.0129   -3.4517 H       1  LIG1        0.0000
     32 H          -2.5812    2.0452   -4.0830 H       1  LIG1        0.0000
     33 H          -8.7571    0.1152    3.0571 H       1  LIG1        0.0000
     34 H         -12.0885   -6.4283    0.2623 H       1  LIG1        0.0000
     35 H          -0.3569   -0.9278   -1.8980 H       1  LIG1        0.0000
     36 H          -4.7160    1.1566   -3.1687 H       1  LIG1        0.0000
     37 H          -9.7046   -5.8359   -0.1176 H       1  LIG1        0.0000
     38 H          -6.8410    1.6299    3.3568 H       1  LIG1        0.0000
     39 H          -6.2786   -2.5583    0.7518 H       1  LIG1        0.0000
     40 H         -12.6888   -2.8137    2.5470 H       1  LIG1        0.0000
     41 H          -2.6269   -3.0406   -1.3085 H       1  LIG1        0.0000
     42 H          -1.9892   -2.1068    0.0926 H       1  LIG1        0.0000
     43 H          -5.6050   -0.3772   -0.9641 H       1  LIG1        0.0000
     44 H          -5.3292   -1.7496   -2.0964 H       1  LIG1        0.0000
     45 H          -4.6612   -2.8146   -0.0253 H       1  LIG1        0.0000
     46 H          -2.8028    1.7748    3.5648 H       1  LIG1        0.0000
     47 H          -3.1783    0.0245    3.5074 H       1  LIG1        0.0000
     48 H          -4.2135    1.1325    4.4460 H       1  LIG1        0.0000
     49 H          -7.8320   -3.7297    0.5390 H       1  LIG1        0.0000
@<TRIPOS>BOND
     1     1     2   ar
     2     1     5   ar
     3     2     6   ar
     4     3     8   ar
     5     3    11   ar
     6     4     7   ar
     7     4    12   ar
     8     5    13   ar
     9     6    14   ar
    10     7    16   ar
    11     8    17   ar
    12     9    11   ar
    13     9    18   ar
    14    10    12   ar
    15    10    15   ar
    16    11    19    1
    17    12    20    1
    18    13    14   ar
    19    13    21    1
    20    14    22    1
    21    15    16   ar
    22    15    25   ar
    23    16    26   ar
    24    17    18   ar
    25    17    30    1
    26    18    29    1
    27    19    25   ar
    28    19    26   ar
    29    20    27   ar
    30    20    28   ar
    31    21    23    1
    32    22    23    1
    33    23    29    1
    34    24    30    1
    35     1    31    1
    36     2    32    1
    37     3    33    1
    38     4    34    1
    39     5    35    1
    40     6    36    1
    41     7    37    1
    42     8    38    1
    43     9    39    1
    44    10    40    1
    45    21    41    1
    46    21    42    1
    47    22    43    1
    48    22    44    1
    49    23    45    1
    50    24    46    1
    51    24    47    1
    52    24    48    1
    53    26    49    1
