@<TRIPOS>MOLECULE
ChEBML208604
 44 47 0 0 0
SMALL
USER_CHARGES

@<TRIPOS>ATOM
      1 C          -2.2001    1.0156   -3.5136 C.ar    1  LIG1       -0.0622
      2 C          -3.4121    1.4885   -3.0462 C.ar    1  LIG1       -0.0620
      3 C          -1.6642   -0.1469   -2.9920 C.ar    1  LIG1       -0.0620
      4 C         -12.1733   -3.4089    1.9069 C.ar    1  LIG1       -0.0504
      5 C          -4.0884    0.7985   -2.0576 C.ar    1  LIG1       -0.0587
      6 C          -2.3384   -0.8347   -2.0004 C.ar    1  LIG1       -0.0587
      7 C         -12.6598   -4.5709    1.3864 C.ar    1  LIG1       -0.0313
      8 C         -10.0299   -1.9839    2.1582 C.ar    1  LIG1       -0.0262
      9 C         -10.4811   -5.1468    0.5290 C.ar    1  LIG1       -0.0100
     10 C         -10.8187   -3.0847    1.7472 C.ar    1  LIG1       -0.0020
     11 C          -3.5529   -0.3647   -1.5367 C.ar    1  LIG1       -0.0448
     12 C          -9.9670   -3.9634    1.0486 C.ar    1  LIG1        0.0404
     13 C         -11.8209   -5.4437    0.6938 C.ar    1  LIG1        0.0732
     14 C          -8.7604   -2.1980    1.7224 C.ar    1  LIG1        0.0947
     15 C          -7.6221   -1.2942    1.9370 C.2     1  LIG1        0.2598
     16 C          -4.4752   -0.2104    0.7602 C.3     1  LIG1       -0.0303
     17 C          -5.6595   -1.5516   -0.9861 C.3     1  LIG1       -0.0303
     18 C          -5.1942   -0.9893    1.8662 C.3     1  LIG1        0.0150
     19 C          -6.3913   -2.3503    0.1032 C.3     1  LIG1        0.0150
     20 C          -4.2901   -1.1169   -0.4589 C.3     1  LIG1       -0.0132
     21 N          -8.7113   -3.4025    1.0445 N.ar    1  LIG1       -0.3100
     22 N          -6.4463   -1.5340    1.3238 N.am    1  LIG1       -0.2967
     23 O          -7.7411   -0.3293    2.6685 O.2     1  LIG1       -0.2702
     24 O         -12.3234   -6.5973    0.1821 O.3     1  LIG1       -0.3608
     25 H          -1.6721    1.5545   -4.2865 H       1  LIG1        0.0622
     26 H          -3.8308    2.3968   -3.4536 H       1  LIG1        0.0623
     27 H          -0.7175   -0.5165   -3.3575 H       1  LIG1        0.0623
     28 H         -12.8304   -2.7388    2.4411 H       1  LIG1        0.0630
     29 H          -5.0353    1.1679   -1.6924 H       1  LIG1        0.0625
     30 H          -1.9179   -1.7410   -1.5902 H       1  LIG1        0.0625
     31 H         -13.7037   -4.8177    1.5111 H       1  LIG1        0.0650
     32 H         -10.3751   -1.1269    2.7175 H       1  LIG1        0.0651
     33 H          -9.8364   -5.8295   -0.0046 H       1  LIG1        0.0670
     34 H          -5.0713    0.6582    0.4804 H       1  LIG1        0.0289
     35 H          -3.5004    0.1176    1.1209 H       1  LIG1        0.0289
     36 H          -6.2445   -0.6703   -1.2493 H       1  LIG1        0.0289
     37 H          -5.5276   -2.1781   -1.8682 H       1  LIG1        0.0289
     38 H          -5.4166   -0.3211    2.6982 H       1  LIG1        0.0470
     39 H          -4.5592   -1.8056    2.2101 H       1  LIG1        0.0470
     40 H          -5.8519   -3.2754    0.3064 H       1  LIG1        0.0470
     41 H          -7.4038   -2.5804   -0.2283 H       1  LIG1        0.0470
     42 H          -3.7150   -1.9976   -0.1727 H       1  LIG1        0.0353
     43 H          -7.9215   -3.7883    0.6341 H       1  LIG1        0.1529
     44 H         -12.2324   -7.2711    0.8697 H       1  LIG1        0.2182
@<TRIPOS>BOND
     1     1     2   ar
     2     1     3   ar
     3     2     5   ar
     4     3     6   ar
     5     4     7   ar
     6     4    10   ar
     7     5    11   ar
     8     6    11   ar
     9     7    13   ar
    10     8    10   ar
    11     8    14   ar
    12     9    12   ar
    13     9    13   ar
    14    10    12   ar
    15    11    20    1
    16    12    21   ar
    17    13    24    1
    18    14    15    1
    19    14    21   ar
    20    15    22   am
    21    15    23    2
    22    16    18    1
    23    16    20    1
    24    17    19    1
    25    17    20    1
    26    18    22    1
    27    19    22    1
    28     1    25    1
    29     2    26    1
    30     3    27    1
    31     4    28    1
    32     5    29    1
    33     6    30    1
    34     7    31    1
    35     8    32    1
    36     9    33    1
    37    16    34    1
    38    16    35    1
    39    17    36    1
    40    17    37    1
    41    18    38    1
    42    18    39    1
    43    19    40    1
    44    19    41    1
    45    20    42    1
    46    21    43    1
    47    24    44    1
