@<TRIPOS>MOLECULE
ChEBML596930
 38 41 0 0 0
SMALL
USER_CHARGES

@<TRIPOS>ATOM
      1 C         -12.7664   -6.6543    1.8409 C.1     1  LIG1        0.0992
      2 C         -12.7431   -4.2456    2.2298 C.ar    1  LIG1       -0.0437
      3 C         -12.0897   -3.0079    2.2363 C.ar    1  LIG1       -0.0517
      4 C          -6.9560   -0.6668    1.7129 C.ar    1  LIG1       -0.0505
      5 C          -6.4991   -2.3331    0.0242 C.ar    1  LIG1       -0.0505
      6 C          -5.7302   -0.0579    1.4439 C.ar    1  LIG1       -0.0306
      7 C          -5.2733   -1.7242   -0.2448 C.ar    1  LIG1       -0.0306
      8 C          -4.2808    0.6882   -2.0301 C.ar    1  LIG1       -0.0283
      9 C          -2.0536   -0.1196   -1.5563 C.ar    1  LIG1       -0.0283
     10 C          -3.9290    0.8738   -3.3670 C.ar    1  LIG1       -0.0237
     11 C          -1.7019    0.0659   -2.8932 C.ar    1  LIG1       -0.0237
     12 C         -10.7342   -5.3620    1.4407 C.ar    1  LIG1       -0.0223
     13 C          -9.7897   -1.8877    1.7271 C.ar    1  LIG1       -0.0310
     14 C         -12.0738   -5.4033    1.8378 C.ar    1  LIG1        0.0539
     15 C         -10.7391   -2.9415    1.8400 C.ar    1  LIG1       -0.0023
     16 C          -7.3404   -1.8045    1.0031 C.ar    1  LIG1       -0.0040
     17 C         -10.0939   -4.1177    1.4522 C.ar    1  LIG1        0.0390
     18 C          -4.8889   -0.5866    0.4651 C.ar    1  LIG1        0.0821
     19 C          -3.3430    0.1915   -1.1247 C.ar    1  LIG1        0.0822
     20 C          -2.6396    0.5626   -3.7986 C.ar    1  LIG1        0.1229
     21 C          -8.6083   -2.4343    1.2815 C.ar    1  LIG1        0.0383
     22 N         -13.3285   -7.6696    1.8436 N.1     1  LIG1       -0.1924
     23 N          -8.8017   -3.7798    1.1183 N.ar    1  LIG1       -0.3139
     24 O          -3.6928    0.0075    0.2025 O.3     1  LIG1       -0.3104
     25 F          -2.3017    0.7421   -5.0822 F       1  LIG1       -0.2069
     26 H         -13.7860   -4.2861    2.5377 H       1  LIG1        0.0637
     27 H         -12.6232   -2.1131    2.5442 H       1  LIG1        0.0630
     28 H          -7.6008   -0.2426    2.4790 H       1  LIG1        0.0630
     29 H          -6.7843   -3.2193   -0.5377 H       1  LIG1        0.0630
     30 H          -5.4363    0.8279    2.0002 H       1  LIG1        0.0650
     31 H          -4.6220   -2.1407   -1.0086 H       1  LIG1        0.0650
     32 H          -5.2868    0.9323   -1.6999 H       1  LIG1        0.0651
     33 H          -1.3190   -0.5071   -0.8557 H       1  LIG1        0.0651
     34 H          -4.6583    1.2610   -4.0725 H       1  LIG1        0.0654
     35 H          -0.6979   -0.1750   -3.2294 H       1  LIG1        0.0654
     36 H         -10.2017   -6.2571    1.1330 H       1  LIG1        0.0656
     37 H          -9.9587   -0.8423    1.9500 H       1  LIG1        0.0650
     38 H          -8.1012   -4.4352    0.7994 H       1  LIG1        0.1528
@<TRIPOS>BOND
     1     1    14    1
     2     1    22    3
     3     2     3   ar
     4     2    14   ar
     5     3    15   ar
     6     4     6   ar
     7     4    16   ar
     8     5     7   ar
     9     5    16   ar
    10     6    18   ar
    11     7    18   ar
    12     8    10   ar
    13     8    19   ar
    14     9    11   ar
    15     9    19   ar
    16    10    20   ar
    17    11    20   ar
    18    12    14   ar
    19    12    17   ar
    20    13    15   ar
    21    13    21   ar
    22    15    17   ar
    23    16    21    1
    24    17    23   ar
    25    18    24    1
    26    19    24    1
    27    20    25    1
    28    21    23   ar
    29     2    26    1
    30     3    27    1
    31     4    28    1
    32     5    29    1
    33     6    30    1
    34     7    31    1
    35     8    32    1
    36     9    33    1
    37    10    34    1
    38    11    35    1
    39    12    36    1
    40    13    37    1
    41    23    38    1
