@<TRIPOS>MOLECULE
ChEBML367250
 37 39 0 0 0
SMALL
USER_CHARGES

@<TRIPOS>ATOM
      1 C         -10.3957   -5.2749    0.4840 C.ar    1  LIG1       -0.0387
      2 C          -5.6133   -0.0004   -2.2338 C.ar    1  LIG1       -0.0471
      3 C          -3.6206   -0.9844   -1.2862 C.ar    1  LIG1       -0.0471
      4 C         -11.7464   -5.5969    0.6446 C.ar    1  LIG1       -0.0416
      5 C          -4.8288    0.9229   -2.9249 C.ar    1  LIG1       -0.0424
      6 C          -2.8361   -0.0611   -1.9775 C.ar    1  LIG1       -0.0424
      7 C         -12.1467   -3.5488    1.8864 C.ar    1  LIG1       -0.0343
      8 C          -9.9959   -2.0972    2.1537 C.ar    1  LIG1       -0.0328
      9 C         -10.7889   -3.2030    1.7373 C.ar    1  LIG1       -0.0011
     10 C          -9.9465   -4.0723    1.0408 C.ar    1  LIG1        0.0376
     11 C          -5.0092   -0.9540   -1.4145 C.ar    1  LIG1        0.0074
     12 C          -3.4402    0.8926   -2.7967 C.ar    1  LIG1        0.0406
     13 C         -12.6102   -4.7486    1.3346 C.ar    1  LIG1        0.0413
     14 C          -8.7113   -2.3128    1.7107 C.ar    1  LIG1        0.0404
     15 C          -6.3532   -2.2494    2.6146 C.3     1  LIG1       -0.0297
     16 C          -7.0037   -0.9757    0.4656 C.3     1  LIG1        0.0322
     17 C          -7.4919   -1.4970    1.8594 C.3     1  LIG1        0.1089
     18 N          -8.6915   -3.5064    1.0404 N.ar    1  LIG1       -0.3154
     19 O          -7.7396   -0.3138    2.6688 O.3     1  LIG1       -0.3832
     20 S          -6.0018   -2.1219   -0.5394 S.3     1  LIG1       -0.1227
     21 CL         -2.4722    2.0297   -3.6517 Cl      1  LIG1       -0.0843
     22 CL        -14.2693   -5.1792    1.5102 Cl      1  LIG1       -0.0843
     23 H          -9.7244   -5.9364   -0.0532 H       1  LIG1        0.0643
     24 H          -6.6941    0.0387   -2.3464 H       1  LIG1        0.0635
     25 H          -3.1315   -1.7205   -0.6529 H       1  LIG1        0.0635
     26 H         -12.1134   -6.5282    0.2181 H       1  LIG1        0.0639
     27 H          -5.3130    1.6604   -3.5600 H       1  LIG1        0.0639
     28 H          -1.7551   -0.0966   -1.8682 H       1  LIG1        0.0639
     29 H         -12.8190   -2.8864    2.4253 H       1  LIG1        0.0645
     30 H         -10.3316   -1.2370    2.7173 H       1  LIG1        0.0647
     31 H          -5.4386   -1.6584    2.7346 H       1  LIG1        0.0264
     32 H          -6.0887   -3.1880    2.1171 H       1  LIG1        0.0264
     33 H          -6.6876   -2.4872    3.6323 H       1  LIG1        0.0264
     34 H          -7.8620   -0.6754   -0.1454 H       1  LIG1        0.0418
     35 H          -6.3827   -0.0855    0.6213 H       1  LIG1        0.0418
     36 H          -7.8754   -3.9160    0.6066 H       1  LIG1        0.1526
     37 H          -8.0303   -0.6538    3.5201 H       1  LIG1        0.2114
@<TRIPOS>BOND
     1     1     4   ar
     2     1    10   ar
     3     2     5   ar
     4     2    11   ar
     5     3     6   ar
     6     3    11   ar
     7     4    13   ar
     8     5    12   ar
     9     6    12   ar
    10     7     9   ar
    11     7    13   ar
    12     8     9   ar
    13     8    14   ar
    14     9    10   ar
    15    10    18   ar
    16    11    20    1
    17    12    21    1
    18    13    22    1
    19    14    17    1
    20    14    18   ar
    21    15    17    1
    22    16    17    1
    23    16    20    1
    24    17    19    1
    25     1    23    1
    26     2    24    1
    27     3    25    1
    28     4    26    1
    29     5    27    1
    30     6    28    1
    31     7    29    1
    32     8    30    1
    33    15    31    1
    34    15    32    1
    35    15    33    1
    36    16    34    1
    37    16    35    1
    38    18    36    1
    39    19    37    1
