@<TRIPOS>MOLECULE
ChEBML300301
 50 52 0 0 0
SMALL
USER_CHARGES

@<TRIPOS>ATOM
      1 C         -10.3301   -5.1776    0.4766 C.ar    1  LIG1       -0.0387
      2 C         -11.6831   -5.4961    0.6255 C.ar    1  LIG1       -0.0416
      3 C         -12.0937   -3.4357    1.8433 C.ar    1  LIG1       -0.0343
      4 C          -9.9436   -1.9848    2.1203 C.ar    1  LIG1       -0.0262
      5 C         -10.7338   -3.0933    1.7057 C.ar    1  LIG1       -0.0007
      6 C          -9.8851   -3.9705    1.0269 C.ar    1  LIG1        0.0379
      7 C         -12.5530   -4.6400    1.2979 C.ar    1  LIG1        0.0413
      8 C          -8.6546   -2.2064    1.6934 C.ar    1  LIG1        0.0945
      9 C          -7.4602   -1.3428    1.8801 C.2     1  LIG1        0.2576
     10 C          -4.4885   -0.7688    0.0792 C.2     1  LIG1        0.2319
     11 C          -2.4842    0.4549   -4.1123 C.3     1  LIG1       -0.0532
     12 C          -1.6231   -0.5405   -3.3398 C.3     1  LIG1       -0.0515
     13 C          -2.8258    1.6787   -3.2671 C.3     1  LIG1       -0.0515
     14 C          -2.2717   -0.9372   -2.0147 C.3     1  LIG1       -0.0345
     15 C          -3.4764    1.2844   -1.9423 C.3     1  LIG1       -0.0345
     16 C          -2.6029    0.2942   -1.1643 C.3     1  LIG1        0.0254
     17 C          -5.0266   -1.1085    1.4580 C.3     1  LIG1        0.0887
     18 C          -2.5387    0.2483    1.2990 C.3     1  LIG1        0.0377
     19 C          -2.9727    1.6248    1.7687 C.3     1  LIG1        0.0589
     20 N          -8.6293   -3.4064    1.0347 N.ar    1  LIG1       -0.3101
     21 N          -6.2690   -1.8164    1.3393 N.am    1  LIG1       -0.3013
     22 N          -3.2500   -0.0969    0.0658 N.am    1  LIG1       -0.2952
     23 O          -7.5723   -0.2905    2.5035 O.2     1  LIG1       -0.2704
     24 O          -5.1171   -1.0762   -0.9372 O.2     1  LIG1       -0.2756
     25 O          -2.6380    2.5890    0.7786 O.3     1  LIG1       -0.3947
     26 CL        -14.2144   -5.0666    1.4597 Cl      1  LIG1       -0.0843
     27 H          -9.6538   -5.8453   -0.0466 H       1  LIG1        0.0643
     28 H         -12.0467   -6.4310    0.2044 H       1  LIG1        0.0639
     29 H         -12.7709   -2.7672    2.3684 H       1  LIG1        0.0645
     30 H         -10.2858   -1.1192    2.6718 H       1  LIG1        0.0651
     31 H          -1.9586    0.7695   -5.0209 H       1  LIG1        0.0266
     32 H          -3.4109   -0.0371   -4.4322 H       1  LIG1        0.0266
     33 H          -1.4560   -1.4349   -3.9505 H       1  LIG1        0.0267
     34 H          -0.6387   -0.0977   -3.1448 H       1  LIG1        0.0267
     35 H          -1.9122    2.2523   -3.0678 H       1  LIG1        0.0267
     36 H          -3.5003    2.3363   -3.8269 H       1  LIG1        0.0267
     37 H          -3.1860   -1.5122   -2.2126 H       1  LIG1        0.0285
     38 H          -1.5985   -1.6049   -1.4635 H       1  LIG1        0.0285
     39 H          -3.6532    2.1839   -1.3399 H       1  LIG1        0.0285
     40 H          -4.4624    0.8420   -2.1362 H       1  LIG1        0.0285
     41 H          -1.6697    0.7904   -0.8710 H       1  LIG1        0.0506
     42 H          -4.3259   -1.7573    1.9898 H       1  LIG1        0.0567
     43 H          -5.2208   -0.1955    2.0267 H       1  LIG1        0.0567
     44 H          -1.4638    0.2195    1.0946 H       1  LIG1        0.0493
     45 H          -2.7801   -0.5055    2.0545 H       1  LIG1        0.0493
     46 H          -2.4453    1.8899    2.6903 H       1  LIG1        0.0580
     47 H          -4.0517    1.6665    1.9503 H       1  LIG1        0.0580
     48 H          -7.8092   -3.8215    0.6140 H       1  LIG1        0.1529
     49 H          -6.2496   -2.7315    0.8902 H       1  LIG1        0.1503
     50 H          -2.9310    3.4502    1.1169 H       1  LIG1        0.2101
@<TRIPOS>BOND
     1     1     2   ar
     2     1     6   ar
     3     2     7   ar
     4     3     5   ar
     5     3     7   ar
     6     4     5   ar
     7     4     8   ar
     8     5     6   ar
     9     6    20   ar
    10     7    26    1
    11     8     9    1
    12     8    20   ar
    13     9    21   am
    14     9    23    2
    15    10    17    1
    16    10    22   am
    17    10    24    2
    18    11    12    1
    19    11    13    1
    20    12    14    1
    21    13    15    1
    22    14    16    1
    23    15    16    1
    24    16    22    1
    25    17    21    1
    26    18    19    1
    27    18    22    1
    28    19    25    1
    29     1    27    1
    30     2    28    1
    31     3    29    1
    32     4    30    1
    33    11    31    1
    34    11    32    1
    35    12    33    1
    36    12    34    1
    37    13    35    1
    38    13    36    1
    39    14    37    1
    40    14    38    1
    41    15    39    1
    42    15    40    1
    43    16    41    1
    44    17    42    1
    45    17    43    1
    46    18    44    1
    47    18    45    1
    48    19    46    1
    49    19    47    1
    50    20    48    1
    51    21    49    1
    52    25    50    1
