@<TRIPOS>MOLECULE
ChEBML1137622
 45 48 0 0 0
SMALL
USER_CHARGES

@<TRIPOS>ATOM
      1 C         -14.7849   -4.0165    1.4393 C.ar    1  LIG1       -0.0622
      2 C          -2.3815    0.8293   -3.5905 C.ar    1  LIG1       -0.0621
      3 C         -14.3332   -2.7978    1.9126 C.ar    1  LIG1       -0.0616
      4 C         -13.8870   -4.9559    0.9657 C.ar    1  LIG1       -0.0616
      5 C          -2.8476    1.6070   -2.5464 C.ar    1  LIG1       -0.0604
      6 C          -2.5178   -0.5461   -3.5468 C.ar    1  LIG1       -0.0604
      7 C         -12.9828   -2.5130    1.9144 C.ar    1  LIG1       -0.0527
      8 C         -12.5347   -4.6792    0.9577 C.ar    1  LIG1       -0.0527
      9 C          -3.4517    1.0120   -1.4562 C.ar    1  LIG1       -0.0409
     10 C          -3.1158   -1.1480   -2.4571 C.ar    1  LIG1       -0.0409
     11 C         -10.0172   -1.9672    1.8910 C.ar    1  LIG1       -0.0059
     12 C         -12.0740   -3.4555    1.4385 C.ar    1  LIG1        0.0018
     13 C          -3.5903   -0.3694   -1.4091 C.ar    1  LIG1        0.0286
     14 C         -10.6203   -3.1547    1.4381 C.ar    1  LIG1        0.0905
     15 C          -8.6615   -2.1486    1.6942 C.ar    1  LIG1        0.1123
     16 C          -7.5895   -1.1901    2.0082 C.2     1  LIG1        0.2614
     17 C          -4.5838    0.1057    0.6080 C.3     1  LIG1        0.0274
     18 C          -5.4368   -1.5939   -0.7984 C.3     1  LIG1        0.0274
     19 C          -5.2409   -0.4897    1.8573 C.3     1  LIG1        0.0303
     20 C          -6.1487   -2.3057    0.3624 C.3     1  LIG1        0.0303
     21 N          -9.6615   -3.9510    1.0144 N.ar    1  LIG1       -0.1834
     22 N          -8.5130   -3.3913    1.1452 N.ar    1  LIG1       -0.2326
     23 N          -4.2002   -0.9745   -0.3079 N.pl3   1  LIG1       -0.3276
     24 N          -6.3781   -1.3215    1.4323 N.am    1  LIG1       -0.2935
     25 O          -7.7954   -0.2825    2.7912 O.2     1  LIG1       -0.2701
     26 H         -15.8425   -4.2355    1.4400 H       1  LIG1        0.0622
     27 H          -1.9101    1.2973   -4.4421 H       1  LIG1        0.0622
     28 H         -15.0386   -2.0679    2.2816 H       1  LIG1        0.0623
     29 H         -14.2448   -5.9061    0.5976 H       1  LIG1        0.0623
     30 H          -2.7395    2.6809   -2.5836 H       1  LIG1        0.0623
     31 H          -2.1527   -1.1506   -4.3639 H       1  LIG1        0.0623
     32 H         -12.6311   -1.5612    2.2845 H       1  LIG1        0.0630
     33 H         -11.8348   -5.4116    0.5835 H       1  LIG1        0.0630
     34 H          -3.8162    1.6199   -0.6415 H       1  LIG1        0.0642
     35 H          -3.2179   -2.2227   -2.4215 H       1  LIG1        0.0642
     36 H         -10.5088   -1.0990    2.3045 H       1  LIG1        0.0668
     37 H          -5.2884    0.7714    0.1095 H       1  LIG1        0.0485
     38 H          -3.6963    0.6683    0.8978 H       1  LIG1        0.0485
     39 H          -6.0892   -0.8245   -1.2111 H       1  LIG1        0.0485
     40 H          -5.1960   -2.3199   -1.5748 H       1  LIG1        0.0485
     41 H          -5.5949    0.3133    2.5039 H       1  LIG1        0.0486
     42 H          -4.5182   -1.1032    2.3954 H       1  LIG1        0.0486
     43 H          -5.5248   -3.1170    0.7374 H       1  LIG1        0.0486
     44 H          -7.1034   -2.7046    0.0196 H       1  LIG1        0.0486
     45 H          -7.6661   -3.7919    0.8940 H       1  LIG1        0.1757
@<TRIPOS>BOND
     1     1     3   ar
     2     1     4   ar
     3     2     5   ar
     4     2     6   ar
     5     3     7   ar
     6     4     8   ar
     7     5     9   ar
     8     6    10   ar
     9     7    12   ar
    10     8    12   ar
    11     9    13   ar
    12    10    13   ar
    13    11    14   ar
    14    11    15   ar
    15    12    14    1
    16    13    23    1
    17    14    21   ar
    18    15    16    1
    19    15    22   ar
    20    16    24   am
    21    16    25    2
    22    17    19    1
    23    17    23    1
    24    18    20    1
    25    18    23    1
    26    19    24    1
    27    20    24    1
    28    21    22   ar
    29     1    26    1
    30     2    27    1
    31     3    28    1
    32     4    29    1
    33     5    30    1
    34     6    31    1
    35     7    32    1
    36     8    33    1
    37     9    34    1
    38    10    35    1
    39    11    36    1
    40    17    37    1
    41    17    38    1
    42    18    39    1
    43    18    40    1
    44    19    41    1
    45    19    42    1
    46    20    43    1
    47    20    44    1
    48    22    45    1
