@<TRIPOS>MOLECULE
ChEBML249092
 58 61 0 0 0
SMALL
USER_CHARGES

@<TRIPOS>ATOM
      1 C         -12.9232   -3.0056    1.2373 C.ar    1  LIG1       -0.0615
      2 C         -12.3819   -3.3328   -0.0044 C.ar    1  LIG1       -0.0603
      3 C          -1.8746    1.2918   -3.1777 C.ar    1  LIG1       -0.0418
      4 C         -12.1014   -2.8579    2.3606 C.ar    1  LIG1       -0.0530
      5 C         -11.0063   -3.5227   -0.1635 C.ar    1  LIG1       -0.0402
      6 C          -1.4127    0.0650   -2.7142 C.ar    1  LIG1       -0.0360
      7 C          -9.6093   -2.9770    3.1222 C.ar    1  LIG1       -0.0262
      8 C          -3.2227    1.5755   -3.0288 C.ar    1  LIG1        0.0292
      9 C         -10.7113   -3.0445    2.2244 C.ar    1  LIG1       -0.0022
     10 C         -10.1969   -3.3719    0.9681 C.ar    1  LIG1        0.0378
     11 C          -2.3003   -0.8280   -2.1243 C.ar    1  LIG1        0.0672
     12 C          -8.4686   -3.2596    2.4069 C.ar    1  LIG1        0.0947
     13 C          -3.6292   -0.4493   -2.0223 C.ar    1  LIG1        0.1411
     14 C          -7.1148   -3.3138    2.8759 C.2     1  LIG1        0.2598
     15 C          -4.3837   -2.6507    0.6408 C.3     1  LIG1       -0.0185
     16 C          -6.2604   -0.9956    0.2626 C.3     1  LIG1       -0.0185
     17 C          -4.7877   -2.7186    2.1129 C.3     1  LIG1        0.0162
     18 C          -6.6301   -1.1216    1.7414 C.3     1  LIG1        0.0162
     19 C          -4.7843   -1.3181   -0.0046 C.3     1  LIG1        0.0268
     20 C          -0.1877   -2.9571   -3.1688 C.3     1  LIG1       -0.0470
     21 C          -0.2018   -3.5693   -0.7252 C.3     1  LIG1       -0.0470
     22 C          -5.2268   -2.3358   -2.2444 C.3     1  LIG1        0.0018
     23 C          -0.4654   -2.4773   -1.7516 C.3     1  LIG1        0.0142
     24 N          -4.1151    0.7335   -2.4610 N.ar    1  LIG1       -0.2394
     25 N          -8.8330   -3.4963    1.1086 N.ar    1  LIG1       -0.3101
     26 N          -6.2184   -2.4231    2.2700 N.am    1  LIG1       -0.2966
     27 N          -1.8347   -2.0702   -1.6543 N.pl3   1  LIG1       -0.3393
     28 N          -4.5293   -1.3423   -1.4308 N.pl3   1  LIG1       -0.3142
     29 O          -6.7920   -4.1061    3.7594 O.2     1  LIG1       -0.2702
     30 H         -13.9960   -2.8621    1.3360 H       1  LIG1        0.0623
     31 H         -13.0389   -3.4429   -0.8632 H       1  LIG1        0.0623
     32 H          -1.2010    2.0035   -3.6410 H       1  LIG1        0.0639
     33 H         -12.5364   -2.6021    3.3226 H       1  LIG1        0.0629
     34 H         -10.5851   -3.7779   -1.1302 H       1  LIG1        0.0642
     35 H          -0.3599   -0.1835   -2.8181 H       1  LIG1        0.0644
     36 H          -9.6514   -2.7457    4.1783 H       1  LIG1        0.0651
     37 H          -3.6339    2.5184   -3.3739 H       1  LIG1        0.0840
     38 H          -3.3032   -2.8125    0.5490 H       1  LIG1        0.0302
     39 H          -4.8808   -3.4662    0.1000 H       1  LIG1        0.0302
     40 H          -6.8784   -1.6974   -0.3124 H       1  LIG1        0.0302
     41 H          -6.5053    0.0128   -0.0915 H       1  LIG1        0.0302
     42 H          -4.5350   -3.7056    2.5085 H       1  LIG1        0.0470
     43 H          -4.2342   -1.9856    2.7106 H       1  LIG1        0.0470
     44 H          -6.1269   -0.3507    2.3363 H       1  LIG1        0.0470
     45 H          -7.7078   -0.9748    1.8644 H       1  LIG1        0.0470
     46 H          -4.1667   -0.5212    0.4256 H       1  LIG1        0.0506
     47 H          -0.8055   -3.8272   -3.4140 H       1  LIG1        0.0249
     48 H          -0.3957   -2.1724   -3.9048 H       1  LIG1        0.0249
     49 H           0.8633   -3.2446   -3.2827 H       1  LIG1        0.0249
     50 H          -0.8201   -4.4505   -0.9285 H       1  LIG1        0.0249
     51 H          -0.4337   -3.2185    0.2857 H       1  LIG1        0.0249
     52 H           0.8455   -3.8911   -0.7429 H       1  LIG1        0.0249
     53 H          -5.8844   -2.9416   -1.6157 H       1  LIG1        0.0432
     54 H          -4.5062   -2.9943   -2.7369 H       1  LIG1        0.0432
     55 H          -5.8299   -1.8410   -3.0104 H       1  LIG1        0.0432
     56 H           0.1626   -1.6078   -1.5286 H       1  LIG1        0.0497
     57 H          -8.1960   -3.7298    0.3593 H       1  LIG1        0.1529
     58 H          -2.5107   -2.6837   -1.2365 H       1  LIG1        0.1469
@<TRIPOS>BOND
     1     1     2   ar
     2     1     4   ar
     3     2     5   ar
     4     3     6   ar
     5     3     8   ar
     6     4     9   ar
     7     5    10   ar
     8     6    11   ar
     9     7     9   ar
    10     7    12   ar
    11     8    24   ar
    12     9    10   ar
    13    10    25   ar
    14    11    13   ar
    15    11    27    1
    16    12    14    1
    17    12    25   ar
    18    13    24   ar
    19    13    28    1
    20    14    26   am
    21    14    29    2
    22    15    17    1
    23    15    19    1
    24    16    18    1
    25    16    19    1
    26    17    26    1
    27    18    26    1
    28    19    28    1
    29    20    23    1
    30    21    23    1
    31    22    28    1
    32    23    27    1
    33     1    30    1
    34     2    31    1
    35     3    32    1
    36     4    33    1
    37     5    34    1
    38     6    35    1
    39     7    36    1
    40     8    37    1
    41    15    38    1
    42    15    39    1
    43    16    40    1
    44    16    41    1
    45    17    42    1
    46    17    43    1
    47    18    44    1
    48    18    45    1
    49    19    46    1
    50    20    47    1
    51    20    48    1
    52    20    49    1
    53    21    50    1
    54    21    51    1
    55    21    52    1
    56    22    53    1
    57    22    54    1
    58    22    55    1
    59    23    56    1
    60    25    57    1
    61    27    58    1
