@<TRIPOS>MOLECULE
ChEBML596797
 38 41 0 0 0
SMALL
USER_CHARGES

@<TRIPOS>ATOM
      1 C          -2.1654    0.2668   -5.1760 C.1     1  LIG1        0.0991
      2 C         -12.6234   -6.5090    1.5186 C.1     1  LIG1        0.0992
      3 C         -12.6286   -4.1512    2.1467 C.ar    1  LIG1       -0.0437
      4 C          -3.3563    1.3300   -3.3229 C.ar    1  LIG1       -0.0418
      5 C          -2.1767   -0.7453   -2.9503 C.ar    1  LIG1       -0.0418
      6 C         -11.9927   -2.9103    2.2687 C.ar    1  LIG1       -0.0517
      7 C          -3.7505    1.3462   -1.9851 C.ar    1  LIG1       -0.0299
      8 C          -2.5710   -0.7292   -1.6125 C.ar    1  LIG1       -0.0299
      9 C          -5.3748   -0.2968    1.8377 C.ar    1  LIG1       -0.0274
     10 C          -6.5763   -0.9277    2.1400 C.ar    1  LIG1       -0.0318
     11 C         -10.6157   -5.1518    1.2237 C.ar    1  LIG1       -0.0223
     12 C          -9.7163   -1.7092    1.8446 C.ar    1  LIG1       -0.0294
     13 C          -5.6961   -0.8916   -0.4426 C.ar    1  LIG1        0.0584
     14 C          -2.5693    0.2843   -3.8056 C.ar    1  LIG1        0.0522
     15 C         -11.9488   -5.2533    1.6319 C.ar    1  LIG1        0.0539
     16 C         -10.6491   -2.7838    1.8636 C.ar    1  LIG1       -0.0022
     17 C          -9.9930   -3.9052    1.3515 C.ar    1  LIG1        0.0390
     18 C          -3.3579    0.3166   -1.1298 C.ar    1  LIG1        0.0822
     19 C          -4.9193   -0.2739    0.5241 C.ar    1  LIG1        0.1004
     20 C          -7.2792   -1.5161    1.1010 C.ar    1  LIG1        0.0845
     21 C          -8.5339   -2.1902    1.3312 C.ar    1  LIG1        0.0570
     22 N          -1.8372    0.2525   -6.2891 N.1     1  LIG1       -0.1924
     23 N         -13.1710   -7.5281    1.4268 N.1     1  LIG1       -0.1924
     24 N          -6.8686   -1.5144   -0.1871 N.ar    1  LIG1       -0.2521
     25 N          -8.7107   -3.5155    1.0365 N.ar    1  LIG1       -0.3126
     26 O          -3.7505    0.3325    0.2006 O.3     1  LIG1       -0.3088
     27 H         -13.6662   -4.2385    2.4624 H       1  LIG1        0.0637
     28 H          -3.6704    2.1394   -3.9776 H       1  LIG1        0.0637
     29 H          -1.5634   -1.5674   -3.3116 H       1  LIG1        0.0637
     30 H         -12.5343   -2.0593    2.6716 H       1  LIG1        0.0630
     31 H          -4.3638    2.1630   -1.6146 H       1  LIG1        0.0651
     32 H          -2.2620   -1.5344   -0.9514 H       1  LIG1        0.0651
     33 H          -4.7977    0.1744    2.6283 H       1  LIG1        0.0652
     34 H          -6.9389   -0.9500    3.1626 H       1  LIG1        0.0647
     35 H         -10.0751   -6.0032    0.8210 H       1  LIG1        0.0656
     36 H          -9.8969   -0.6942    2.1732 H       1  LIG1        0.0650
     37 H          -5.3888   -0.9056   -1.4835 H       1  LIG1        0.0868
     38 H          -8.0055   -4.1248    0.6444 H       1  LIG1        0.1528
@<TRIPOS>BOND
     1     1    14    1
     2     1    22    3
     3     2    15    1
     4     2    23    3
     5     3     6   ar
     6     3    15   ar
     7     4     7   ar
     8     4    14   ar
     9     5     8   ar
    10     5    14   ar
    11     6    16   ar
    12     7    18   ar
    13     8    18   ar
    14     9    10   ar
    15     9    19   ar
    16    10    20   ar
    17    11    15   ar
    18    11    17   ar
    19    12    16   ar
    20    12    21   ar
    21    13    19   ar
    22    13    24   ar
    23    16    17   ar
    24    17    25   ar
    25    18    26    1
    26    19    26    1
    27    20    21    1
    28    20    24   ar
    29    21    25   ar
    30     3    27    1
    31     4    28    1
    32     5    29    1
    33     6    30    1
    34     7    31    1
    35     8    32    1
    36     9    33    1
    37    10    34    1
    38    11    35    1
    39    12    36    1
    40    13    37    1
    41    25    38    1
