@<TRIPOS>MOLECULE
ChEBML345905
 35 37 0 0 0
SMALL
USER_CHARGES

@<TRIPOS>ATOM
      1 C          -2.7206    1.0356   -3.4088 C.ar    1  LIG1       -0.0621
      2 C          -2.3069    1.4261   -2.1353 C.ar    1  LIG1       -0.0604
      3 C          -3.5075   -0.1052   -3.5673 C.ar    1  LIG1       -0.0604
      4 C         -10.5668   -5.0441    0.3961 C.ar    1  LIG1       -0.0391
      5 C          -2.6799    0.6758   -1.0201 C.ar    1  LIG1       -0.0395
      6 C          -3.8805   -0.8556   -2.4522 C.ar    1  LIG1       -0.0395
      7 C         -11.8111   -5.4983    0.8421 C.ar    1  LIG1       -0.0461
      8 C         -11.9435   -3.7076    2.4770 C.ar    1  LIG1       -0.0387
      9 C          -9.8583   -2.1412    2.4250 C.ar    1  LIG1       -0.0261
     10 C         -10.6900   -3.2312    2.0441 C.ar    1  LIG1       -0.0011
     11 C         -10.0319   -3.9091    1.0157 C.ar    1  LIG1        0.0379
     12 C          -3.4667   -0.4651   -1.1786 C.ar    1  LIG1        0.0558
     13 C         -12.4906   -4.8420    1.8665 C.ar    1  LIG1        0.0182
     14 C          -8.7322   -2.1780    1.6353 C.ar    1  LIG1        0.0961
     15 C          -7.6113   -1.2921    1.6476 C.2     1  LIG1        0.2743
     16 N          -8.8462   -3.2476    0.7883 N.ar    1  LIG1       -0.3100
     17 N          -6.5729   -1.5406    0.7338 N.am    1  LIG1       -0.2197
     18 N          -5.4080   -0.6802    0.6832 N.3     1  LIG1       -0.2075
     19 O          -7.5488   -0.3181    2.4387 O.2     1  LIG1       -0.2687
     20 O          -2.9536   -1.1835    1.2759 O.2     1  LIG1       -0.4750
     21 O          -4.2019   -2.7662   -0.2295 O.2     1  LIG1       -0.4750
     22 S          -3.9368   -1.4184    0.2356 S.O2    1  LIG1       -0.1526
     23 BR        -14.1750   -5.4870    2.4387 Br      1  LIG1       -0.0508
     24 H          -2.4300    1.6190   -4.2776 H       1  LIG1        0.0622
     25 H          -1.6934    2.3136   -2.0116 H       1  LIG1        0.0623
     26 H          -3.8289   -0.4093   -4.5590 H       1  LIG1        0.0623
     27 H         -10.0382   -5.5567   -0.4007 H       1  LIG1        0.0643
     28 H          -2.3514    0.9883   -0.0326 H       1  LIG1        0.0642
     29 H          -4.4925   -1.7432   -2.5873 H       1  LIG1        0.0642
     30 H         -12.2403   -6.3802    0.3711 H       1  LIG1        0.0635
     31 H         -12.4702   -3.1933    3.2768 H       1  LIG1        0.0641
     32 H         -10.0651   -1.4101    3.1952 H       1  LIG1        0.0651
     33 H          -8.1607   -3.5159    0.0956 H       1  LIG1        0.1529
     34 H          -6.5824   -2.3212    0.0865 H       1  LIG1        0.1755
     35 H          -5.3949    0.1047    1.3457 H       1  LIG1        0.1892
@<TRIPOS>BOND
     1     1     2   ar
     2     1     3   ar
     3     2     5   ar
     4     3     6   ar
     5     4     7   ar
     6     4    11   ar
     7     5    12   ar
     8     6    12   ar
     9     7    13   ar
    10     8    10   ar
    11     8    13   ar
    12     9    10   ar
    13     9    14   ar
    14    10    11   ar
    15    11    16   ar
    16    12    22    1
    17    13    23    1
    18    14    15    1
    19    14    16   ar
    20    15    17   am
    21    15    19    2
    22    17    18    1
    23    18    22    1
    24    20    22    2
    25    21    22    2
    26     1    24    1
    27     2    25    1
    28     3    26    1
    29     4    27    1
    30     5    28    1
    31     6    29    1
    32     7    30    1
    33     8    31    1
    34     9    32    1
    35    16    33    1
    36    17    34    1
    37    18    35    1
