@<TRIPOS>MOLECULE
ChEBML233554
 55 59 0 0 0
SMALL
USER_CHARGES

@<TRIPOS>ATOM
      1 C         -12.6474   -4.7064    1.4854 C.ar    1  LIG1       -0.0615
      2 C          -2.2697    1.2984   -3.1445 C.ar    1  LIG1       -0.0614
      3 C           0.3601   -3.6884   -3.6075 C.ar    1  LIG1       -0.0614
      4 C         -11.8106   -5.5241    0.7283 C.ar    1  LIG1       -0.0603
      5 C          -3.6593    1.2628   -3.1524 C.ar    1  LIG1       -0.0603
      6 C           1.6755   -3.6070   -3.1509 C.ar    1  LIG1       -0.0593
      7 C         -12.1698   -3.5163    2.0462 C.ar    1  LIG1       -0.0530
      8 C          -1.5592    0.3458   -2.4217 C.ar    1  LIG1       -0.0509
      9 C          -0.6640   -3.0589   -2.8999 C.ar    1  LIG1       -0.0498
     10 C         -10.4739   -5.1802    0.5075 C.ar    1  LIG1       -0.0402
     11 C          -4.3415    0.2820   -2.4263 C.ar    1  LIG1       -0.0402
     12 C           1.9670   -2.8962   -1.9866 C.ar    1  LIG1       -0.0256
     13 C         -10.0251   -2.0448    2.2435 C.ar    1  LIG1       -0.0262
     14 C         -10.8257   -3.1489    1.8373 C.ar    1  LIG1       -0.0022
     15 C          -2.2466   -0.6439   -1.7025 C.ar    1  LIG1        0.0216
     16 C          -0.3727   -2.3480   -1.7357 C.ar    1  LIG1        0.0361
     17 C         -10.0104   -3.9876    1.0744 C.ar    1  LIG1        0.0378
     18 C          -3.6565   -0.6857   -1.6681 C.ar    1  LIG1        0.0382
     19 C           0.9429   -2.2667   -1.2790 C.ar    1  LIG1        0.1321
     20 C          -8.7627   -2.2313    1.7292 C.ar    1  LIG1        0.0944
     21 C          -1.4497   -1.6894   -0.9968 C.2     1  LIG1        0.0768
     22 C          -7.5700   -1.3575    1.8736 C.2     1  LIG1        0.2573
     23 C          -2.7121   -1.3474    0.9681 C.3     1  LIG1        0.0597
     24 C          -4.0970   -1.8180    0.5102 C.3     1  LIG1        0.0574
     25 C          -5.0051   -2.7333   -1.6512 C.3     1  LIG1        0.0005
     26 C          -5.1708   -1.0713    1.3096 C.3     1  LIG1        0.0317
     27 N          -1.6636   -2.0424    0.2277 N.2     1  LIG1       -0.2819
     28 N          -8.7637   -3.4056    1.0253 N.ar    1  LIG1       -0.3101
     29 N          -4.3386   -1.6513   -0.9353 N.pl3   1  LIG1       -0.3268
     30 N          -6.3982   -1.7865    1.2426 N.am    1  LIG1       -0.3083
     31 O          -7.6558   -0.3308    2.5422 O.2     1  LIG1       -0.2704
     32 F           1.2351   -1.5864   -0.1610 F       1  LIG1       -0.2062
     33 H         -13.6834   -4.9947    1.6425 H       1  LIG1        0.0623
     34 H          -1.7409    2.0635   -3.7050 H       1  LIG1        0.0623
     35 H           0.1332   -4.2421   -4.5138 H       1  LIG1        0.0623
     36 H         -12.2025   -6.4440    0.3024 H       1  LIG1        0.0623
     37 H          -4.2181    2.0025   -3.7187 H       1  LIG1        0.0623
     38 H           2.4729   -4.0972   -3.7018 H       1  LIG1        0.0623
     39 H         -12.8332   -2.8879    2.6340 H       1  LIG1        0.0629
     40 H          -0.4730    0.3818   -2.4303 H       1  LIG1        0.0630
     41 H          -1.6853   -3.1291   -3.2655 H       1  LIG1        0.0631
     42 H          -9.8226   -5.8170   -0.0815 H       1  LIG1        0.0642
     43 H          -5.4290    0.3027   -2.4451 H       1  LIG1        0.0642
     44 H           2.9911   -2.8327   -1.6310 H       1  LIG1        0.0653
     45 H         -10.3432   -1.2056    2.8477 H       1  LIG1        0.0651
     46 H          -2.5961   -0.2572    0.9038 H       1  LIG1        0.0535
     47 H          -2.5834   -1.5899    2.0303 H       1  LIG1        0.0535
     48 H          -4.1813   -2.8884    0.7402 H       1  LIG1        0.0541
     49 H          -5.4939   -3.4073   -0.9430 H       1  LIG1        0.0432
     50 H          -4.2783   -3.3038   -2.2358 H       1  LIG1        0.0432
     51 H          -5.7604   -2.3283   -2.3302 H       1  LIG1        0.0432
     52 H          -5.2985   -0.0902    0.8762 H       1  LIG1        0.0487
     53 H          -4.8492   -0.9993    2.3379 H       1  LIG1        0.0487
     54 H          -7.9663   -3.7929    0.5396 H       1  LIG1        0.1529
     55 H          -6.4066   -2.6904    0.7583 H       1  LIG1        0.1498
@<TRIPOS>BOND
     1     1     4   ar
     2     1     7   ar
     3     2     5   ar
     4     2     8   ar
     5     3     6   ar
     6     3     9   ar
     7     4    10   ar
     8     5    11   ar
     9     6    12   ar
    10     7    14   ar
    11     8    15   ar
    12     9    16   ar
    13    10    17   ar
    14    11    18   ar
    15    12    19   ar
    16    13    14   ar
    17    13    20   ar
    18    14    17   ar
    19    15    18   ar
    20    15    21    1
    21    16    19   ar
    22    16    21    1
    23    17    28   ar
    24    18    29    1
    25    19    32    1
    26    20    22    1
    27    20    28   ar
    28    21    27    2
    29    22    30   am
    30    22    31    2
    31    23    24    1
    32    23    27    1
    33    24    26    1
    34    24    29    1
    35    25    29    1
    36    26    30    1
    37     1    33    1
    38     2    34    1
    39     3    35    1
    40     4    36    1
    41     5    37    1
    42     6    38    1
    43     7    39    1
    44     8    40    1
    45     9    41    1
    46    10    42    1
    47    11    43    1
    48    12    44    1
    49    13    45    1
    50    23    46    1
    51    23    47    1
    52    24    48    1
    53    25    49    1
    54    25    50    1
    55    25    51    1
    56    26    52    1
    57    26    53    1
    58    28    54    1
    59    30    55    1
