@<TRIPOS>MOLECULE
ChEBML1028683
 37 39 0 0 0
SMALL
USER_CHARGES

@<TRIPOS>ATOM
      1 C         -10.4415   -4.7989    0.0666 C.ar    1  LIG1       -0.0326
      2 C         -11.6787   -5.3084    0.4713 C.ar    1  LIG1       -0.0296
      3 C         -11.7859   -3.7079    2.2895 C.ar    1  LIG1       -0.0155
      4 C          -9.8587   -3.7275    0.7775 C.ar    1  LIG1        0.0800
      5 C         -12.3405   -4.7685    1.5686 C.ar    1  LIG1        0.0759
      6 C         -10.5430   -3.2011    1.8774 C.ar    1  LIG1        0.0434
      7 C          -2.6692    0.3855   -3.0872 C.ar    1  LIG1        0.1360
      8 C          -3.4295   -0.1255   -1.1199 C.ar    1  LIG1        0.1971
      9 C          -8.4176   -2.1619    1.3599 C.ar    1  LIG1        0.1645
     10 C          -6.1877   -1.2921    0.5837 C.2     1  LIG1        0.2280
     11 C          -1.7658    0.4765   -4.2492 C.3     1  LIG1       -0.0049
     12 C         -14.1747   -4.6814    3.0798 C.3     1  LIG1        0.0422
     13 C          -5.1794   -0.2375    0.9868 C.3     1  LIG1        0.0783
     14 N          -8.6434   -3.1217    0.4936 N.ar    1  LIG1       -0.2252
     15 N          -3.8731    0.9015   -2.9830 N.ar    1  LIG1       -0.1360
     16 N          -4.3568    0.5764   -1.7314 N.ar    1  LIG1       -0.1245
     17 N          -2.3495   -0.2699   -1.9370 N.ar    1  LIG1       -0.1997
     18 N          -1.1414   -0.9560   -1.6699 N.pl3   1  LIG1       -0.2471
     19 N          -7.3305   -1.3309    1.4226 N.am    1  LIG1       -0.2635
     20 O          -5.9719   -2.0257   -0.3776 O.2     1  LIG1       -0.2762
     21 O         -13.5469   -5.2780    1.9471 O.3     1  LIG1       -0.3493
     22 S          -9.6163   -1.9144    2.5547 S.2     1  LIG1       -0.0518
     23 S          -3.5264   -0.7989    0.5113 S.3     1  LIG1       -0.0775
     24 H          -9.9334   -5.2285   -0.7922 H       1  LIG1        0.0647
     25 H         -12.1202   -6.1333   -0.0824 H       1  LIG1        0.0651
     26 H         -12.3038   -3.2871    3.1466 H       1  LIG1        0.0663
     27 H          -1.1179    1.3663   -4.1816 H       1  LIG1        0.0311
     28 H          -1.1109   -0.4077   -4.3363 H       1  LIG1        0.0311
     29 H          -2.3201    0.5386   -5.2021 H       1  LIG1        0.0311
     30 H         -15.1274   -5.1803    3.2740 H       1  LIG1        0.0535
     31 H         -14.3403   -3.6183    2.8879 H       1  LIG1        0.0535
     32 H         -13.5225   -4.7954    3.9489 H       1  LIG1        0.0535
     33 H          -5.4174    0.6958    0.4675 H       1  LIG1        0.0484
     34 H          -5.2047   -0.0413    2.0625 H       1  LIG1        0.0484
     35 H          -0.7160   -1.3651   -2.5078 H       1  LIG1        0.1418
     36 H          -1.2665   -1.7462   -1.0289 H       1  LIG1        0.1418
     37 H          -7.3453   -0.6327    2.1906 H       1  LIG1        0.1577
@<TRIPOS>BOND
     1     1     2   ar
     2     1     4   ar
     3     2     5   ar
     4     3     5   ar
     5     3     6   ar
     6     4     6   ar
     7     4    14   ar
     8     5    21    1
     9     6    22   ar
    10     7    11    1
    11     7    15   ar
    12     7    17   ar
    13     8    16   ar
    14     8    17   ar
    15     8    23    1
    16     9    14   ar
    17     9    19    1
    18     9    22   ar
    19    10    13    1
    20    10    19   am
    21    10    20    2
    22    12    21    1
    23    13    23    1
    24    15    16   ar
    25    17    18    1
    26     1    24    1
    27     2    25    1
    28     3    26    1
    29    11    27    1
    30    11    28    1
    31    11    29    1
    32    12    30    1
    33    12    31    1
    34    12    32    1
    35    13    33    1
    36    13    34    1
    37    18    35    1
    38    18    36    1
    39    19    37    1
