@<TRIPOS>MOLECULE
ChEBML208429
 48 51 0 0 0
SMALL
USER_CHARGES

@<TRIPOS>ATOM
      1 C          -1.8032    4.1605   -2.7745 C.ar    1  LIG1       -0.0621
      2 C          -1.4659    2.9244   -3.3257 C.ar    1  LIG1       -0.0596
      3 C          -2.9183    4.2728   -1.9440 C.ar    1  LIG1       -0.0596
      4 C         -12.1012   -3.1307    1.4092 C.ar    1  LIG1       -0.0504
      5 C          -2.2435    1.8006   -3.0466 C.ar    1  LIG1       -0.0318
      6 C          -3.6960    3.1489   -1.6648 C.ar    1  LIG1       -0.0318
      7 C         -12.6090   -4.3805    1.0363 C.ar    1  LIG1       -0.0313
      8 C          -9.8648   -1.8337    1.7562 C.ar    1  LIG1       -0.0262
      9 C         -10.3652   -5.2556    0.7143 C.ar    1  LIG1       -0.0100
     10 C         -10.7059   -2.9360    1.4365 C.ar    1  LIG1       -0.0020
     11 C          -9.8718   -4.0008    1.0891 C.ar    1  LIG1        0.0404
     12 C          -3.3586    1.9128   -2.2160 C.ar    1  LIG1        0.0750
     13 C         -11.7525   -5.4251    0.6946 C.ar    1  LIG1        0.0732
     14 C          -8.5606   -2.2431    1.5999 C.ar    1  LIG1        0.0947
     15 C          -7.3601   -1.4865    1.8047 C.2     1  LIG1        0.2598
     16 C          -5.6577   -1.5563   -1.3567 C.3     1  LIG1       -0.0322
     17 C          -4.0899   -0.8186    0.4788 C.3     1  LIG1       -0.0322
     18 C          -6.4097   -2.4072   -0.3349 C.3     1  LIG1        0.0148
     19 C          -4.8725   -1.6930    1.4554 C.3     1  LIG1        0.0148
     20 C          -4.1864   -1.3670   -0.9540 C.3     1  LIG1       -0.0143
     21 C          -3.4680   -0.4464   -1.9375 C.3     1  LIG1        0.0562
     22 N          -8.5750   -3.5516    1.1971 N.ar    1  LIG1       -0.3100
     23 N          -6.2641   -1.8465    1.0095 N.am    1  LIG1       -0.2967
     24 O          -7.3271   -0.5821    2.6371 O.2     1  LIG1       -0.2702
     25 O         -12.2739   -6.6328    0.3349 O.3     1  LIG1       -0.3608
     26 O          -4.1255    0.8072   -1.9422 O.3     1  LIG1       -0.3458
     27 H          -1.1976    5.0356   -2.9912 H       1  LIG1        0.0622
     28 H          -0.5976    2.8368   -3.9726 H       1  LIG1        0.0623
     29 H          -3.1803    5.2357   -1.5150 H       1  LIG1        0.0623
     30 H         -12.7803   -2.3245    1.6715 H       1  LIG1        0.0630
     31 H          -1.9761    0.8409   -3.4802 H       1  LIG1        0.0650
     32 H          -4.5645    3.2427   -1.0186 H       1  LIG1        0.0650
     33 H         -13.6860   -4.5290    1.0161 H       1  LIG1        0.0650
     34 H         -10.1839   -0.8477    2.0666 H       1  LIG1        0.0651
     35 H          -9.6947   -6.0667    0.4491 H       1  LIG1        0.0670
     36 H          -5.7206   -2.0292   -2.3437 H       1  LIG1        0.0286
     37 H          -6.1455   -0.5761   -1.4365 H       1  LIG1        0.0286
     38 H          -4.4880    0.2039    0.5103 H       1  LIG1        0.0286
     39 H          -3.0408   -0.7673    0.7925 H       1  LIG1        0.0286
     40 H          -7.4651   -2.4764   -0.6166 H       1  LIG1        0.0469
     41 H          -6.0077   -3.4269   -0.3123 H       1  LIG1        0.0469
     42 H          -4.4342   -2.6968    1.5075 H       1  LIG1        0.0469
     43 H          -4.8134   -1.2617    2.4576 H       1  LIG1        0.0469
     44 H          -3.6915   -2.3469   -0.9834 H       1  LIG1        0.0328
     45 H          -3.5011   -0.8752   -2.9387 H       1  LIG1        0.0575
     46 H          -2.4321   -0.3098   -1.6288 H       1  LIG1        0.0575
     47 H          -7.7543   -4.1103    1.0076 H       1  LIG1        0.1529
     48 H         -13.2424   -6.6013    0.3673 H       1  LIG1        0.2182
@<TRIPOS>BOND
     1     1     2   ar
     2     1     3   ar
     3     2     5   ar
     4     3     6   ar
     5     4     7   ar
     6     4    10   ar
     7     5    12   ar
     8     6    12   ar
     9     7    13   ar
    10     8    10   ar
    11     8    14   ar
    12     9    11   ar
    13     9    13   ar
    14    10    11   ar
    15    11    22   ar
    16    12    26    1
    17    13    25    1
    18    14    15    1
    19    14    22   ar
    20    15    23   am
    21    15    24    2
    22    16    18    1
    23    16    20    1
    24    17    19    1
    25    17    20    1
    26    18    23    1
    27    19    23    1
    28    20    21    1
    29    21    26    1
    30     1    27    1
    31     2    28    1
    32     3    29    1
    33     4    30    1
    34     5    31    1
    35     6    32    1
    36     7    33    1
    37     8    34    1
    38     9    35    1
    39    16    36    1
    40    16    37    1
    41    17    38    1
    42    17    39    1
    43    18    40    1
    44    18    41    1
    45    19    42    1
    46    19    43    1
    47    20    44    1
    48    21    45    1
    49    21    46    1
    50    22    47    1
    51    25    48    1
