@<TRIPOS>MOLECULE
ChEBML216991
 36 38 0 0 0
SMALL
USER_CHARGES

@<TRIPOS>ATOM
      1 C          -2.6037    1.0051   -3.2220 C.ar    1  LIG1       -0.0621
      2 C         -12.5939   -5.3235    1.6751 C.ar    1  LIG1       -0.0616
      3 C         -11.4115   -6.0383    1.5086 C.ar    1  LIG1       -0.0616
      4 C          -3.9681    1.1422   -2.9664 C.ar    1  LIG1       -0.0604
      5 C          -1.8457    0.0901   -2.4912 C.ar    1  LIG1       -0.0604
      6 C         -12.5558   -3.9386    1.8398 C.ar    1  LIG1       -0.0544
      7 C         -10.1863   -5.3709    1.5062 C.ar    1  LIG1       -0.0543
      8 C         -11.2744   -1.8569    2.0043 C.ar    1  LIG1       -0.0536
      9 C         -10.0492   -1.1896    2.0019 C.ar    1  LIG1       -0.0504
     10 C          -4.5746    0.3645   -1.9801 C.ar    1  LIG1       -0.0414
     11 C          -2.4522   -0.6876   -1.5048 C.ar    1  LIG1       -0.0414
     12 C          -8.9048   -3.2893    1.6708 C.ar    1  LIG1       -0.0432
     13 C         -11.3315   -3.2505    1.8399 C.ar    1  LIG1       -0.0183
     14 C         -10.1290   -3.9774    1.6707 C.ar    1  LIG1       -0.0176
     15 C          -8.8667   -1.9044    1.8355 C.ar    1  LIG1        0.0225
     16 C          -3.8166   -0.5504   -1.2492 C.ar    1  LIG1        0.0213
     17 C          -6.4594   -1.7741    1.0262 C.2     1  LIG1       -0.0007
     18 C          -5.5165   -0.9777    0.5092 C.2     1  LIG1       -0.0120
     19 C          -7.5900   -1.2081    1.8357 C.2     1  LIG1        0.1866
     20 N          -4.4416   -1.3527   -0.2320 N.4     1  LIG1       -0.3850
     21 O          -3.9139   -2.6562    0.0487 O.3     1  LIG1       -0.7640
     22 O          -7.4249   -0.1801    2.5104 O.2     1  LIG1       -0.2891
     23 H          -2.1316    1.6110   -3.9900 H       1  LIG1        0.0622
     24 H         -13.5473   -5.8439    1.6784 H       1  LIG1        0.0623
     25 H         -11.4419   -7.1163    1.3800 H       1  LIG1        0.0623
     26 H          -4.5580    1.8546   -3.5353 H       1  LIG1        0.0623
     27 H          -0.7832   -0.0165   -2.6904 H       1  LIG1        0.0623
     28 H         -13.4924   -3.4005    1.9699 H       1  LIG1        0.0629
     29 H          -9.2749   -5.9501    1.3729 H       1  LIG1        0.0629
     30 H         -12.1865   -1.2783    2.1352 H       1  LIG1        0.0629
     31 H         -10.0317   -0.1103    2.1311 H       1  LIG1        0.0630
     32 H          -5.6383    0.4791   -1.7885 H       1  LIG1        0.0642
     33 H          -1.8515   -1.3975   -0.9418 H       1  LIG1        0.0642
     34 H          -7.9735   -3.8388    1.5422 H       1  LIG1        0.0637
     35 H          -6.4138   -2.8470    0.8783 H       1  LIG1        0.0677
     36 H          -5.5387    0.0976    0.6482 H       1  LIG1        0.0784
@<TRIPOS>BOND
     1     1     4   ar
     2     1     5   ar
     3     2     3   ar
     4     2     6   ar
     5     3     7   ar
     6     4    10   ar
     7     5    11   ar
     8     6    13   ar
     9     7    14   ar
    10     8     9   ar
    11     8    13   ar
    12     9    15   ar
    13    10    16   ar
    14    11    16   ar
    15    12    14   ar
    16    12    15   ar
    17    13    14   ar
    18    15    19    1
    19    16    20    1
    20    17    18    2
    21    17    19    1
    22    18    20    1
    23    19    22    2
    24    20    21    1
    25     1    23    1
    26     2    24    1
    27     3    25    1
    28     4    26    1
    29     5    27    1
    30     6    28    1
    31     7    29    1
    32     8    30    1
    33     9    31    1
    34    10    32    1
    35    11    33    1
    36    12    34    1
    37    17    35    1
    38    18    36    1
