@<TRIPOS>MOLECULE
ChEBML212751
 36 38 0 0 0
SMALL
USER_CHARGES

@<TRIPOS>ATOM
      1 C         -12.0689   -3.4029    1.4299 C.ar    1  LIG1       -0.0342
      2 C         -10.0109   -1.8400    1.7853 C.ar    1  LIG1       -0.0261
      3 C         -11.4317   -5.6855    0.9001 C.ar    1  LIG1       -0.0229
      4 C         -10.7071   -3.0497    1.5076 C.ar    1  LIG1        0.0008
      5 C          -9.7433   -4.0336    1.2771 C.ar    1  LIG1        0.0568
      6 C         -12.4152   -4.7243    1.1253 C.ar    1  LIG1        0.0428
      7 C         -10.0745   -5.3584    0.9717 C.ar    1  LIG1        0.0640
      8 C          -8.6630   -2.1081    1.7197 C.ar    1  LIG1        0.0947
      9 C          -7.5658   -1.2085    1.9250 C.2     1  LIG1        0.2602
     10 C          -6.4038   -2.1586   -0.1002 C.3     1  LIG1        0.0539
     11 C          -5.0607   -1.1566    1.7018 C.3     1  LIG1        0.0539
     12 C          -5.6937   -1.3031   -1.1391 C.3     1  LIG1       -0.0183
     13 C          -4.3187   -0.2886    0.6946 C.3     1  LIG1       -0.0183
     14 C          -3.5035   -0.2230   -1.6653 C.3     1  LIG1       -0.0453
     15 N          -8.5116   -3.4337    1.4123 N.ar    1  LIG1       -0.3089
     16 N          -6.3960   -1.4941    1.2094 N.am    1  LIG1       -0.2863
     17 N          -4.2967   -0.9910   -0.6456 N.4     1  LIG1        0.2462
     18 O          -7.6774   -0.2522    2.6901 O.2     1  LIG1       -0.2701
     19 CL        -14.0784   -5.1644    1.0284 Cl      1  LIG1       -0.0842
     20 CL         -8.8716   -6.5518    0.6921 Cl      1  LIG1       -0.0822
     21 H         -12.8350   -2.6522    1.6058 H       1  LIG1        0.0645
     22 H         -10.4533   -0.8783    2.0091 H       1  LIG1        0.0651
     23 H         -11.7228   -6.7079    0.6645 H       1  LIG1        0.0655
     24 H          -7.4204   -2.3710   -0.4397 H       1  LIG1        0.0525
     25 H          -5.8950   -3.1226    0.0214 H       1  LIG1        0.0525
     26 H          -4.5253   -2.0984    1.8716 H       1  LIG1        0.0525
     27 H          -5.1203   -0.6362    2.6627 H       1  LIG1        0.0525
     28 H          -5.5962   -1.8399   -2.0881 H       1  LIG1        0.0831
     29 H          -6.2057   -0.3479   -1.3009 H       1  LIG1        0.0831
     30 H          -4.8133    0.6783    0.5488 H       1  LIG1        0.0831
     31 H          -3.2802   -0.1325    1.0033 H       1  LIG1        0.0831
     32 H          -4.0014    0.7355   -1.8228 H       1  LIG1        0.0777
     33 H          -2.4965   -0.0819   -1.2681 H       1  LIG1        0.0777
     34 H          -3.4838   -0.8107   -2.5851 H       1  LIG1        0.0777
     35 H          -7.6255   -3.9071    1.3002 H       1  LIG1        0.1530
     36 H          -3.8110   -1.8888   -0.5127 H       1  LIG1        0.2001
@<TRIPOS>BOND
     1     1     4   ar
     2     1     6   ar
     3     2     4   ar
     4     2     8   ar
     5     3     6   ar
     6     3     7   ar
     7     4     5   ar
     8     5     7   ar
     9     5    15   ar
    10     6    19    1
    11     7    20    1
    12     8     9    1
    13     8    15   ar
    14     9    16   am
    15     9    18    2
    16    10    12    1
    17    10    16    1
    18    11    13    1
    19    11    16    1
    20    12    17    1
    21    13    17    1
    22    14    17    1
    23     1    21    1
    24     2    22    1
    25     3    23    1
    26    10    24    1
    27    10    25    1
    28    11    26    1
    29    11    27    1
    30    12    28    1
    31    12    29    1
    32    13    30    1
    33    13    31    1
    34    14    32    1
    35    14    33    1
    36    14    34    1
    37    15    35    1
    38    17    36    1
