@<TRIPOS>MOLECULE
ChEBML369999
 46 49 0 0 0
SMALL
USER_CHARGES

@<TRIPOS>ATOM
      1 C          -2.2619   -0.8216   -4.0608 C.ar    1  LIG1       -0.0622
      2 C          -1.4921   -0.5674   -2.9412 C.ar    1  LIG1       -0.0620
      3 C          -3.5725   -0.3849   -4.1123 C.ar    1  LIG1       -0.0620
      4 C          -2.0327    0.1239   -1.8732 C.ar    1  LIG1       -0.0590
      5 C          -4.1144    0.3027   -3.0425 C.ar    1  LIG1       -0.0590
      6 C         -11.8645   -5.6058    0.6794 C.ar    1  LIG1       -0.0309
      7 C         -10.5394   -5.2877    0.4672 C.ar    1  LIG1       -0.0450
      8 C         -12.1707   -3.5691    1.9339 C.ar    1  LIG1       -0.0236
      9 C         -10.1371   -2.0676    2.1975 C.ar    1  LIG1       -0.0344
     10 C         -10.8105   -3.2142    1.7387 C.ar    1  LIG1       -0.0078
     11 C          -3.3430    0.5615   -1.9251 C.ar    1  LIG1       -0.0477
     12 C         -12.6687   -4.7382    1.4171 C.ar    1  LIG1        0.0720
     13 C         -10.0252   -4.1182    0.9857 C.ar    1  LIG1        0.0199
     14 C          -8.8206   -1.8922    1.9067 C.ar    1  LIG1        0.0756
     15 C          -7.9392   -0.7784    2.2856 C.2     1  LIG1        0.2523
     16 C          -5.0519    1.0777    1.4605 C.3     1  LIG1       -0.0341
     17 C          -5.7480   -0.3737   -0.4525 C.3     1  LIG1       -0.0341
     18 C          -5.6527    0.0793    2.4551 C.3     1  LIG1        0.0147
     19 C          -6.3551   -1.3931    0.5233 C.3     1  LIG1        0.0147
     20 C          -4.5643    0.3254    0.2202 C.3     1  LIG1       -0.0344
     21 C          -3.9324    1.3151   -0.7606 C.3     1  LIG1       -0.0249
     22 N          -6.6955   -0.6986    1.7725 N.am    1  LIG1       -0.2974
     23 O          -8.3325    0.0714    3.0623 O.2     1  LIG1       -0.2710
     24 O         -13.9748   -5.0547    1.6239 O.3     1  LIG1       -0.3609
     25 S          -8.4259   -3.3477    0.9528 S.2     1  LIG1       -0.0839
     26 H          -1.8393   -1.3611   -4.8956 H       1  LIG1        0.0622
     27 H          -0.4682   -0.9085   -2.9010 H       1  LIG1        0.0623
     28 H          -4.1738   -0.5832   -4.9873 H       1  LIG1        0.0623
     29 H          -1.4313    0.3225   -0.9984 H       1  LIG1        0.0625
     30 H          -5.1394    0.6406   -3.0812 H       1  LIG1        0.0625
     31 H         -12.2758   -6.5199    0.2774 H       1  LIG1        0.0650
     32 H          -9.9069   -5.9524   -0.1024 H       1  LIG1        0.0636
     33 H         -12.8189   -2.9145    2.4976 H       1  LIG1        0.0657
     34 H         -10.6653   -1.3275    2.7803 H       1  LIG1        0.0643
     35 H          -5.8112    1.8039    1.1704 H       1  LIG1        0.0285
     36 H          -4.2125    1.5945    1.9259 H       1  LIG1        0.0285
     37 H          -6.5007    0.3662   -0.7246 H       1  LIG1        0.0285
     38 H          -5.4041   -0.8899   -1.3488 H       1  LIG1        0.0285
     39 H          -6.0901    0.6188    3.2952 H       1  LIG1        0.0469
     40 H          -4.8729   -0.5917    2.8152 H       1  LIG1        0.0469
     41 H          -5.6315   -2.1818    0.7292 H       1  LIG1        0.0469
     42 H          -7.2562   -1.8255    0.0884 H       1  LIG1        0.0469
     43 H          -3.8230   -0.4177    0.5141 H       1  LIG1        0.0307
     44 H          -4.6948    2.0048   -1.1227 H       1  LIG1        0.0319
     45 H          -3.1460    1.8756   -0.2551 H       1  LIG1        0.0319
     46 H         -14.4741   -4.6769    0.8869 H       1  LIG1        0.2182
@<TRIPOS>BOND
     1     1     2   ar
     2     1     3   ar
     3     2     4   ar
     4     3     5   ar
     5     4    11   ar
     6     5    11   ar
     7     6     7   ar
     8     6    12   ar
     9     7    13   ar
    10     8    10   ar
    11     8    12   ar
    12     9    10   ar
    13     9    14   ar
    14    10    13   ar
    15    11    21    1
    16    12    24    1
    17    13    25   ar
    18    14    15    1
    19    14    25   ar
    20    15    22   am
    21    15    23    2
    22    16    18    1
    23    16    20    1
    24    17    19    1
    25    17    20    1
    26    18    22    1
    27    19    22    1
    28    20    21    1
    29     1    26    1
    30     2    27    1
    31     3    28    1
    32     4    29    1
    33     5    30    1
    34     6    31    1
    35     7    32    1
    36     8    33    1
    37     9    34    1
    38    16    35    1
    39    16    36    1
    40    17    37    1
    41    17    38    1
    42    18    39    1
    43    18    40    1
    44    19    41    1
    45    19    42    1
    46    20    43    1
    47    21    44    1
    48    21    45    1
    49    24    46    1
