@<TRIPOS>MOLECULE
ChEBML759046
 55 57 0 0 0
SMALL
USER_CHARGES

@<TRIPOS>ATOM
      1 C          -3.0677   -1.3146   -1.3023 C.ar    1  LIG1       -0.0590
      2 C          -3.7906    0.9729   -1.0168 C.ar    1  LIG1       -0.0590
      3 C          -3.7123   -1.6663   -0.1164 C.ar    1  LIG1       -0.0572
      4 C          -4.4352    0.6213    0.1691 C.ar    1  LIG1       -0.0572
      5 C          -9.9096   -5.1668    0.2801 C.ar    1  LIG1       -0.0288
      6 C         -11.2326   -5.6142    0.2182 C.ar    1  LIG1       -0.0369
      7 C         -12.0301   -3.6514    1.4218 C.ar    1  LIG1       -0.0293
      8 C         -10.7069   -3.1821    1.4955 C.ar    1  LIG1        0.0129
      9 C          -3.1068    0.0050   -1.7525 C.ar    1  LIG1       -0.0511
     10 C          -4.3961   -0.6984    0.6194 C.ar    1  LIG1       -0.0308
     11 C         -10.0630   -2.0396    2.0395 C.ar    1  LIG1       -0.0048
     12 C          -9.6966   -3.9502    0.9260 C.ar    1  LIG1        0.0900
     13 C         -12.2757   -4.8720    0.7780 C.ar    1  LIG1        0.0552
     14 C          -8.7219   -2.1848    1.7691 C.ar    1  LIG1        0.1480
     15 C          -7.6015   -1.3587    2.0689 C.2     1  LIG1        0.2673
     16 C          -2.4183    0.3818   -3.0204 C.3     1  LIG1       -0.0398
     17 C         -10.7055   -0.9180    2.7521 C.3     1  LIG1       -0.0363
     18 C         -13.6651   -2.9002   -2.1178 C.3     1  LIG1       -0.0481
     19 C         -16.6630   -3.3305    0.5339 C.3     1  LIG1       -0.0481
     20 C          -5.0911   -1.0780    1.8948 C.3     1  LIG1        0.0367
     21 C         -14.0999   -4.2918   -1.8062 C.3     1  LIG1        0.0223
     22 C         -16.1528   -4.3297   -0.4479 C.3     1  LIG1        0.0223
     23 N          -6.3233   -1.7917    1.6477 N.am    1  LIG1       -0.3054
     24 N         -14.6687   -4.3815   -0.4374 N.3     1  LIG1       -0.2775
     25 O          -7.7265   -0.2807    2.7082 O.2     1  LIG1       -0.2695
     26 O         -13.8732   -6.8007    0.0734 O.2     1  LIG1       -0.4762
     27 O         -14.5381   -5.3181    1.9822 O.2     1  LIG1       -0.4762
     28 O          -8.4894   -3.3407    1.0941 O.2     1  LIG1       -0.3039
     29 S         -13.9145   -5.4722    0.6731 S.O2    1  LIG1       -0.1658
     30 H          -2.5372   -2.0754   -1.8689 H       1  LIG1        0.0625
     31 H          -3.8272    2.0032   -1.3611 H       1  LIG1        0.0625
     32 H          -3.6780   -2.6972    0.2256 H       1  LIG1        0.0626
     33 H          -4.9658    1.3815    0.7363 H       1  LIG1        0.0626
     34 H          -9.0961   -5.7373   -0.1517 H       1  LIG1        0.0651
     35 H         -11.4418   -6.5595   -0.2777 H       1  LIG1        0.0643
     36 H         -12.8446   -3.0776    1.8545 H       1  LIG1        0.0649
     37 H          -3.1005    0.2730   -3.8726 H       1  LIG1        0.0280
     38 H          -2.0645    1.4205   -2.9885 H       1  LIG1        0.0280
     39 H          -1.5369   -0.2483   -3.1978 H       1  LIG1        0.0280
     40 H         -10.7533   -1.1115    3.8364 H       1  LIG1        0.0281
     41 H         -10.1628    0.0312    2.6047 H       1  LIG1        0.0281
     42 H         -11.7351   -0.7384    2.3980 H       1  LIG1        0.0281
     43 H         -14.5105   -2.2055   -2.0650 H       1  LIG1        0.0247
     44 H         -12.8834   -2.5710   -1.4245 H       1  LIG1        0.0247
     45 H         -13.2560   -2.8578   -3.1344 H       1  LIG1        0.0247
     46 H         -16.3485   -3.5867    1.5515 H       1  LIG1        0.0247
     47 H         -16.3061   -2.3244    0.2882 H       1  LIG1        0.0247
     48 H         -17.7593   -3.3156    0.5128 H       1  LIG1        0.0247
     49 H          -4.4482   -1.7178    2.5092 H       1  LIG1        0.0518
     50 H          -5.3315   -0.1910    2.4903 H       1  LIG1        0.0518
     51 H         -13.2510   -4.9800   -1.8608 H       1  LIG1        0.0479
     52 H         -14.8692   -4.6246   -2.5092 H       1  LIG1        0.0479
     53 H         -16.4704   -4.0678   -1.4617 H       1  LIG1        0.0479
     54 H         -16.5229   -5.3313   -0.2103 H       1  LIG1        0.0479
     55 H          -6.2500   -2.6949    1.1910 H       1  LIG1        0.1501
@<TRIPOS>BOND
     1     1     3   ar
     2     1     9   ar
     3     2     4   ar
     4     2     9   ar
     5     3    10   ar
     6     4    10   ar
     7     5     6   ar
     8     5    12   ar
     9     6    13   ar
    10     7     8   ar
    11     7    13   ar
    12     8    11   ar
    13     8    12   ar
    14     9    16    1
    15    10    20    1
    16    11    14   ar
    17    11    17    1
    18    12    28   ar
    19    13    29    1
    20    14    15    1
    21    14    28   ar
    22    15    23   am
    23    15    25    2
    24    18    21    1
    25    19    22    1
    26    20    23    1
    27    21    24    1
    28    22    24    1
    29    24    29    1
    30    26    29    2
    31    27    29    2
    32     1    30    1
    33     2    31    1
    34     3    32    1
    35     4    33    1
    36     5    34    1
    37     6    35    1
    38     7    36    1
    39    16    37    1
    40    16    38    1
    41    16    39    1
    42    17    40    1
    43    17    41    1
    44    17    42    1
    45    18    43    1
    46    18    44    1
    47    18    45    1
    48    19    46    1
    49    19    47    1
    50    19    48    1
    51    20    49    1
    52    20    50    1
    53    21    51    1
    54    21    52    1
    55    22    53    1
    56    22    54    1
    57    23    55    1
