@<TRIPOS>MOLECULE
ChEBML348301
 36 39 0 0 0
SMALL
USER_CHARGES

@<TRIPOS>ATOM
      1 C         -10.2148   -5.3661    0.5896 C.ar    1  LIG1       -0.0376
      2 C          -3.7679   -2.3772   -0.7659 C.ar    1  LIG1       -0.0391
      3 C         -11.5300   -5.8238    0.7104 C.ar    1  LIG1       -0.0299
      4 C          -2.9547   -1.6981   -1.6778 C.ar    1  LIG1       -0.0461
      5 C         -12.2133   -3.7539    1.7807 C.ar    1  LIG1       -0.0226
      6 C          -4.3266    0.2980   -1.5030 C.ar    1  LIG1       -0.0387
      7 C         -10.2476   -2.0590    2.0414 C.ar    1  LIG1       -0.0275
      8 C          -6.3279    0.0027    0.1437 C.ar    1  LIG1       -0.0275
      9 C         -10.8942   -3.2710    1.6699 C.ar    1  LIG1        0.0003
     10 C          -5.1607   -0.3662   -0.5818 C.ar    1  LIG1       -0.0011
     11 C          -9.9274   -4.0866    1.0781 C.ar    1  LIG1        0.0379
     12 C          -4.8627   -1.6858   -0.2353 C.ar    1  LIG1        0.0378
     13 C         -12.5155   -5.0319    1.2964 C.ar    1  LIG1        0.0753
     14 C          -3.2278   -0.3811   -2.0420 C.ar    1  LIG1        0.0182
     15 C          -8.9253   -2.1606    1.6751 C.ar    1  LIG1        0.0811
     16 C          -6.7091   -1.0800    0.9023 C.ar    1  LIG1        0.0811
     17 C          -7.8828   -1.1979    1.8416 C.2     1  LIG1        0.2206
     18 C         -14.7518   -4.6485    2.0090 C.3     1  LIG1        0.0422
     19 N          -8.7418   -3.3869    1.0947 N.ar    1  LIG1       -0.3112
     20 N          -5.8191   -2.0934    0.6672 N.ar    1  LIG1       -0.3112
     21 O          -7.8928   -0.3868    2.7967 O.2     1  LIG1       -0.2856
     22 O         -13.7890   -5.5061    1.3999 O.3     1  LIG1       -0.3493
     23 BR         -2.1000    0.5039   -3.2770 Br      1  LIG1       -0.0508
     24 H          -9.4483   -5.9832    0.1329 H       1  LIG1        0.0643
     25 H          -3.5549   -3.4028   -0.4840 H       1  LIG1        0.0643
     26 H         -11.7799   -6.8149    0.3387 H       1  LIG1        0.0651
     27 H          -2.0998   -2.2220   -2.1001 H       1  LIG1        0.0635
     28 H         -12.9876   -3.1421    2.2356 H       1  LIG1        0.0657
     29 H          -4.5432    1.3252   -1.7852 H       1  LIG1        0.0641
     30 H         -10.7051   -1.2062    2.5252 H       1  LIG1        0.0651
     31 H          -6.8323    0.9594    0.1115 H       1  LIG1        0.0651
     32 H         -15.7240   -5.1469    2.0285 H       1  LIG1        0.0535
     33 H         -14.8197   -3.7158    1.4433 H       1  LIG1        0.0535
     34 H         -14.4364   -4.4298    3.0319 H       1  LIG1        0.0535
     35 H          -7.8646   -3.7320    0.7298 H       1  LIG1        0.1529
     36 H          -5.8562   -3.0097    1.0925 H       1  LIG1        0.1529
@<TRIPOS>BOND
     1     1     3   ar
     2     1    11   ar
     3     2     4   ar
     4     2    12   ar
     5     3    13   ar
     6     4    14   ar
     7     5     9   ar
     8     5    13   ar
     9     6    10   ar
    10     6    14   ar
    11     7     9   ar
    12     7    15   ar
    13     8    10   ar
    14     8    16   ar
    15     9    11   ar
    16    10    12   ar
    17    11    19   ar
    18    12    20   ar
    19    13    22    1
    20    14    23    1
    21    15    17    1
    22    15    19   ar
    23    16    17    1
    24    16    20   ar
    25    17    21    2
    26    18    22    1
    27     1    24    1
    28     2    25    1
    29     3    26    1
    30     4    27    1
    31     5    28    1
    32     6    29    1
    33     7    30    1
    34     8    31    1
    35    18    32    1
    36    18    33    1
    37    18    34    1
    38    19    35    1
    39    20    36    1
