@<TRIPOS>MOLECULE
ChEBML53269
 60 63 0 0 0
SMALL
USER_CHARGES

@<TRIPOS>ATOM
      1 C          -1.8000    0.0779   -3.5692 C.ar    1  LIG1       -0.0418
      2 C         -10.3643   -5.3138    0.6940 C.ar    1  LIG1       -0.0383
      3 C          -2.5868    1.1773   -3.2441 C.ar    1  LIG1       -0.0360
      4 C         -11.7443   -5.5360    0.6893 C.ar    1  LIG1       -0.0387
      5 C         -12.1531   -3.3813    1.7322 C.ar    1  LIG1       -0.0314
      6 C          -9.9554   -2.0552    2.1971 C.ar    1  LIG1       -0.0261
      7 C          -2.1587   -1.1538   -3.0459 C.ar    1  LIG1        0.0292
      8 C         -10.7657   -3.1351    1.7478 C.ar    1  LIG1       -0.0003
      9 C          -9.9051   -4.1051    1.2293 C.ar    1  LIG1        0.0379
     10 C         -12.6267   -4.5860    1.1999 C.ar    1  LIG1        0.0354
     11 C          -3.6927    1.0136   -2.4174 C.ar    1  LIG1        0.0672
     12 C          -8.6430   -2.3844    1.9478 C.ar    1  LIG1        0.0947
     13 C          -3.9668   -0.2601   -1.9457 C.ar    1  LIG1        0.1412
     14 C          -7.4643   -1.6154    2.2251 C.2     1  LIG1        0.2599
     15 C         -14.6712   -5.9585    0.7030 C.2     1  LIG1        0.3547
     16 C          -5.7511   -1.7192   -1.1572 C.3     1  LIG1        0.0288
     17 C          -5.1742    0.3944    0.0769 C.3     1  LIG1        0.0288
     18 C          -6.9908   -1.6841   -0.2632 C.3     1  LIG1        0.0303
     19 C          -5.4761   -0.4750    1.2952 C.3     1  LIG1        0.0303
     20 C          -3.2611    3.6247   -0.6614 C.3     1  LIG1       -0.0470
     21 C          -5.1210    4.4435   -2.1503 C.3     1  LIG1       -0.0470
     22 C         -16.8519   -6.8651    0.4342 C.3     1  LIG1        0.0469
     23 C          -3.9728    3.4569   -1.9961 C.3     1  LIG1        0.0142
     24 N          -3.2256   -1.3519   -2.2396 N.ar    1  LIG1       -0.2394
     25 N          -8.6229   -3.6225    1.3638 N.ar    1  LIG1       -0.3101
     26 N          -5.0551   -0.4300   -1.1290 N.pl3   1  LIG1       -0.3112
     27 N          -6.6772   -1.2847    1.1124 N.am    1  LIG1       -0.2936
     28 N         -13.9998   -4.8367    1.1817 N.am    1  LIG1       -0.2610
     29 N          -4.4905    2.1251   -2.0872 N.pl3   1  LIG1       -0.3393
     30 O          -7.1909   -1.2744    3.3745 O.2     1  LIG1       -0.2701
     31 O         -14.1756   -6.9578    0.1967 O.2     1  LIG1       -0.2421
     32 O         -16.0186   -5.7889    0.8805 O.3     1  LIG1       -0.3035
     33 H          -0.9334    0.1818   -4.2119 H       1  LIG1        0.0639
     34 H          -9.6784   -6.0543    0.2962 H       1  LIG1        0.0643
     35 H          -2.3284    2.1554   -3.6409 H       1  LIG1        0.0644
     36 H         -12.1225   -6.4697    0.2781 H       1  LIG1        0.0643
     37 H         -12.8432   -2.6414    2.1297 H       1  LIG1        0.0649
     38 H         -10.3003   -1.1369    2.6537 H       1  LIG1        0.0651
     39 H          -1.5781   -2.0429   -3.2685 H       1  LIG1        0.0840
     40 H          -5.0706   -2.5083   -0.8123 H       1  LIG1        0.0485
     41 H          -6.0518   -1.9609   -2.1835 H       1  LIG1        0.0485
     42 H          -5.9825    1.1194   -0.0766 H       1  LIG1        0.0485
     43 H          -4.2550    0.9644    0.2597 H       1  LIG1        0.0485
     44 H          -7.7153   -0.9551   -0.6464 H       1  LIG1        0.0486
     45 H          -7.4739   -2.6665   -0.2689 H       1  LIG1        0.0486
     46 H          -4.6498   -1.1719    1.4819 H       1  LIG1        0.0486
     47 H          -5.5812    0.1523    2.1870 H       1  LIG1        0.0486
     48 H          -3.9577    3.4871    0.1719 H       1  LIG1        0.0249
     49 H          -2.4465    2.9005   -0.5487 H       1  LIG1        0.0249
     50 H          -2.8249    4.6262   -0.5769 H       1  LIG1        0.0249
     51 H          -5.8500    4.3201   -1.3420 H       1  LIG1        0.0249
     52 H          -5.6408    4.2911   -3.1018 H       1  LIG1        0.0249
     53 H          -4.7658    5.4796   -2.1175 H       1  LIG1        0.0249
     54 H         -17.8993   -6.6193    0.6258 H       1  LIG1        0.0537
     55 H         -16.5791   -7.7818    0.9630 H       1  LIG1        0.0537
     56 H         -16.7039   -7.0078   -0.6388 H       1  LIG1        0.0537
     57 H          -3.2577    3.5986   -2.8138 H       1  LIG1        0.0497
     58 H          -7.7890   -4.1145    1.0731 H       1  LIG1        0.1529
     59 H         -14.5921   -4.0969    1.5723 H       1  LIG1        0.1581
     60 H          -5.4636    1.9532   -1.9103 H       1  LIG1        0.1469
@<TRIPOS>BOND
     1     1     3   ar
     2     1     7   ar
     3     2     4   ar
     4     2     9   ar
     5     3    11   ar
     6     4    10   ar
     7     5     8   ar
     8     5    10   ar
     9     6     8   ar
    10     6    12   ar
    11     7    24   ar
    12     8     9   ar
    13     9    25   ar
    14    10    28    1
    15    11    13   ar
    16    11    29    1
    17    12    14    1
    18    12    25   ar
    19    13    24   ar
    20    13    26    1
    21    14    27   am
    22    14    30    2
    23    15    28   am
    24    15    31    2
    25    15    32    1
    26    16    18    1
    27    16    26    1
    28    17    19    1
    29    17    26    1
    30    18    27    1
    31    19    27    1
    32    20    23    1
    33    21    23    1
    34    22    32    1
    35    23    29    1
    36     1    33    1
    37     2    34    1
    38     3    35    1
    39     4    36    1
    40     5    37    1
    41     6    38    1
    42     7    39    1
    43    16    40    1
    44    16    41    1
    45    17    42    1
    46    17    43    1
    47    18    44    1
    48    18    45    1
    49    19    46    1
    50    19    47    1
    51    20    48    1
    52    20    49    1
    53    20    50    1
    54    21    51    1
    55    21    52    1
    56    21    53    1
    57    22    54    1
    58    22    55    1
    59    22    56    1
    60    23    57    1
    61    25    58    1
    62    28    59    1
    63    29    60    1
