@<TRIPOS>MOLECULE
ChEBML829462
 46 49 0 0 0
SMALL
USER_CHARGES

@<TRIPOS>ATOM
      1 C          -3.6781    1.6058   -3.3231 C.ar    1  LIG1       -0.0615
      2 C          -2.3764    1.1657   -3.5544 C.ar    1  LIG1       -0.0603
      3 C          -4.4554    1.0402   -2.3058 C.ar    1  LIG1       -0.0519
      4 C          -1.8107    0.1493   -2.7792 C.ar    1  LIG1       -0.0399
      5 C         -10.3149   -3.1457    2.3807 C.ar    1  LIG1       -0.0379
      6 C         -11.6187   -3.4844    2.7505 C.ar    1  LIG1       -0.0271
      7 C         -10.3913   -4.7105    0.5170 C.ar    1  LIG1       -0.0075
      8 C          -3.3888   -1.6281   -0.0467 C.ar    1  LIG1        0.0101
      9 C          -3.9064    0.0141   -1.5113 C.ar    1  LIG1        0.0108
     10 C          -2.5994   -0.4068   -1.7658 C.ar    1  LIG1        0.0410
     11 C          -9.7048   -3.7552    1.2703 C.ar    1  LIG1        0.0353
     12 C         -12.2747   -4.4304    1.9901 C.ar    1  LIG1        0.1085
     13 C         -11.6775   -5.0270    0.9031 C.ar    1  LIG1        0.1102
     14 C          -4.3918   -0.7651   -0.4239 C.ar    1  LIG1        0.0309
     15 C          -7.5573   -2.4724    1.5427 C.2     1  LIG1        0.2263
     16 C         -13.6743   -5.8322    1.1191 C.3     1  LIG1        0.1586
     17 C           0.3921   -3.9350   -1.7404 C.3     1  LIG1       -0.0639
     18 C          -6.2083   -2.3626    0.8650 C.3     1  LIG1        0.0755
     19 C          -0.9245   -3.1849   -1.8584 C.3     1  LIG1       -0.0399
     20 C          -1.0582   -2.1215   -0.7707 C.3     1  LIG1        0.0159
     21 N          -2.3117   -1.4044   -0.8616 N.ar    1  LIG1       -0.3056
     22 N          -8.3829   -3.3961    0.9129 N.am    1  LIG1       -0.2846
     23 O          -7.8216   -1.7784    2.5212 O.2     1  LIG1       -0.2763
     24 O         -13.5413   -4.8831    2.1970 O.3     1  LIG1       -0.3159
     25 O         -12.4952   -5.9281    0.2938 O.3     1  LIG1       -0.3159
     26 S          -5.9715   -0.6539    0.3074 S.3     1  LIG1       -0.1143
     27 H          -4.0966    2.3973   -3.9390 H       1  LIG1        0.0623
     28 H          -1.7910    1.6188   -4.3502 H       1  LIG1        0.0623
     29 H          -5.4681    1.3974   -2.1414 H       1  LIG1        0.0630
     30 H          -0.7967   -0.1897   -2.9638 H       1  LIG1        0.0643
     31 H          -9.7750   -2.4030    2.9638 H       1  LIG1        0.0643
     32 H         -12.0927   -3.0173    3.6064 H       1  LIG1        0.0652
     33 H          -9.9339   -5.1894   -0.3425 H       1  LIG1        0.0671
     34 H          -3.3480   -2.3812    0.7299 H       1  LIG1        0.0804
     35 H         -13.8851   -6.8198    1.5455 H       1  LIG1        0.0892
     36 H         -14.5203   -5.5330    0.4899 H       1  LIG1        0.0892
     37 H           0.4852   -4.4115   -0.7592 H       1  LIG1        0.0231
     38 H           1.2335   -3.2462   -1.8651 H       1  LIG1        0.0231
     39 H           0.4715   -4.7110   -2.5085 H       1  LIG1        0.0231
     40 H          -5.4284   -2.6289    1.5850 H       1  LIG1        0.0483
     41 H          -6.1260   -3.0417    0.0117 H       1  LIG1        0.0483
     42 H          -0.9877   -2.7201   -2.8496 H       1  LIG1        0.0280
     43 H          -1.7544   -3.8986   -1.7915 H       1  LIG1        0.0280
     44 H          -0.2479   -1.3857   -0.8385 H       1  LIG1        0.0472
     45 H          -1.0034   -2.5709    0.2279 H       1  LIG1        0.0472
     46 H          -7.9920   -3.8690    0.1010 H       1  LIG1        0.1556
@<TRIPOS>BOND
     1     1     2   ar
     2     1     3   ar
     3     2     4   ar
     4     3     9   ar
     5     4    10   ar
     6     5     6   ar
     7     5    11   ar
     8     6    12   ar
     9     7    11   ar
    10     7    13   ar
    11     8    14   ar
    12     8    21   ar
    13     9    10   ar
    14     9    14   ar
    15    10    21   ar
    16    11    22    1
    17    12    13   ar
    18    12    24    1
    19    13    25    1
    20    14    26    1
    21    15    18    1
    22    15    22   am
    23    15    23    2
    24    16    24    1
    25    16    25    1
    26    17    19    1
    27    18    26    1
    28    19    20    1
    29    20    21    1
    30     1    27    1
    31     2    28    1
    32     3    29    1
    33     4    30    1
    34     5    31    1
    35     6    32    1
    36     7    33    1
    37     8    34    1
    38    16    35    1
    39    16    36    1
    40    17    37    1
    41    17    38    1
    42    17    39    1
    43    18    40    1
    44    18    41    1
    45    19    42    1
    46    19    43    1
    47    20    44    1
    48    20    45    1
    49    22    46    1
