@<TRIPOS>MOLECULE
ChEBML850339
 59 64 0 0 0
SMALL
USER_CHARGES

@<TRIPOS>ATOM
      1 C         -16.3990   -6.0535    2.3819 C.ar    1  LIG1       -0.0469
      2 C         -10.3913   -5.0037    0.2059 C.ar    1  LIG1       -0.0339
      3 C         -11.7055   -5.4501    0.3654 C.ar    1  LIG1       -0.0385
      4 C         -17.7391   -6.2144    2.7417 C.ar    1  LIG1       -0.0282
      5 C          -2.2914    0.3169   -3.1790 C.ar    1  LIG1       -0.0252
      6 C         -12.1008   -3.6895    1.9531 C.ar    1  LIG1       -0.0310
      7 C         -16.8047   -7.1164    0.2293 C.ar    1  LIG1       -0.0164
      8 C          -8.9785   -1.7146    2.3170 C.ar    1  LIG1       -0.0181
      9 C          -3.4498    0.9901   -2.8482 C.ar    1  LIG1        0.0322
     10 C          -1.9846   -0.7691   -2.3848 C.ar    1  LIG1        0.0322
     11 C         -10.7788   -3.2407    1.7925 C.ar    1  LIG1        0.0051
     12 C         -15.9344   -6.5019    1.1329 C.ar    1  LIG1        0.0401
     13 C         -10.2889   -2.1332    2.4978 C.ar    1  LIG1       -0.0382
     14 C          -9.9042   -3.9034    0.9062 C.ar    1  LIG1        0.0729
     15 C         -12.5616   -4.7924    1.2400 C.ar    1  LIG1        0.0335
     16 C         -18.5776   -6.8244    1.8315 C.ar    1  LIG1        0.1084
     17 C         -18.1230   -7.2632    0.6089 C.ar    1  LIG1        0.1092
     18 C          -8.1982   -2.4262    1.4285 C.ar    1  LIG1        0.1210
     19 C          -3.8469   -0.4372   -1.1242 C.ar    1  LIG1        0.2162
     20 C         -14.5173   -6.3216    0.7739 C.2     1  LIG1        0.2473
     21 C          -6.5905   -0.5890    1.4195 C.3     1  LIG1        0.0288
     22 C          -6.0320   -2.8072    0.3921 C.3     1  LIG1        0.0288
     23 C          -5.8510   -0.0450    0.1941 C.3     1  LIG1        0.0302
     24 C          -4.6175   -2.2224    0.3513 C.3     1  LIG1        0.0302
     25 C         -20.2361   -7.7049    0.7562 C.3     1  LIG1        0.1586
     26 C         -11.1359   -1.3623    3.4612 C.3     1  LIG1       -0.0390
     27 N          -4.2542    0.6391   -1.8235 N.ar    1  LIG1       -0.2235
     28 N          -2.7425   -1.1757   -1.3452 N.ar    1  LIG1       -0.2235
     29 N          -8.6320   -3.4996    0.7287 N.ar    1  LIG1       -0.2329
     30 N          -6.8607   -1.9946    1.2479 N.pl3   1  LIG1       -0.3127
     31 N          -4.6423   -0.8234   -0.0753 N.pl3   1  LIG1       -0.2969
     32 N         -13.8745   -5.2352    1.4016 N.am    1  LIG1       -0.2813
     33 O         -13.9727   -7.0610   -0.0432 O.2     1  LIG1       -0.2715
     34 O         -19.9057   -7.0648    2.0057 O.3     1  LIG1       -0.3159
     35 O         -19.1095   -7.8335   -0.1352 O.3     1  LIG1       -0.3159
     36 H         -15.7167   -5.5763    3.0816 H       1  LIG1        0.0632
     37 H          -9.7404   -5.5362   -0.4853 H       1  LIG1        0.0646
     38 H         -12.0462   -6.3133   -0.2008 H       1  LIG1        0.0643
     39 H         -18.1012   -5.8692    3.7033 H       1  LIG1        0.0651
     40 H          -1.6635    0.6208   -4.0056 H       1  LIG1        0.0655
     41 H         -12.7832   -3.1849    2.6342 H       1  LIG1        0.0649
     42 H         -16.4613   -7.4676   -0.7382 H       1  LIG1        0.0659
     43 H          -8.5854   -0.8585    2.8567 H       1  LIG1        0.0662
     44 H          -3.7734    1.8563   -3.4156 H       1  LIG1        0.0841
     45 H          -1.0932   -1.3596   -2.5672 H       1  LIG1        0.0841
     46 H          -5.9655   -0.4740    2.3136 H       1  LIG1        0.0485
     47 H          -7.4993    0.0032    1.5845 H       1  LIG1        0.0485
     48 H          -6.4467   -2.8358   -0.6239 H       1  LIG1        0.0485
     49 H          -5.9851   -3.8385    0.7619 H       1  LIG1        0.0485
     50 H          -6.5138   -0.0819   -0.6805 H       1  LIG1        0.0486
     51 H          -5.5877    1.0050    0.3686 H       1  LIG1        0.0486
     52 H          -4.1647   -2.2724    1.3493 H       1  LIG1        0.0486
     53 H          -3.9942   -2.8322   -0.3149 H       1  LIG1        0.0486
     54 H         -20.6320   -8.7048    0.9680 H       1  LIG1        0.0892
     55 H         -21.0143   -7.1172    0.2557 H       1  LIG1        0.0892
     56 H         -11.6523   -0.5485    2.9414 H       1  LIG1        0.0280
     57 H         -11.8840   -2.0098    3.9325 H       1  LIG1        0.0280
     58 H         -10.5267   -0.9356    4.2662 H       1  LIG1        0.0280
     59 H         -14.4474   -4.7000    2.0643 H       1  LIG1        0.1560
@<TRIPOS>BOND
     1     1     4   ar
     2     1    12   ar
     3     2     3   ar
     4     2    14   ar
     5     3    15   ar
     6     4    16   ar
     7     5     9   ar
     8     5    10   ar
     9     6    11   ar
    10     6    15   ar
    11     7    12   ar
    12     7    17   ar
    13     8    13   ar
    14     8    18   ar
    15     9    27   ar
    16    10    28   ar
    17    11    13   ar
    18    11    14   ar
    19    12    20    1
    20    13    26    1
    21    14    29   ar
    22    15    32    1
    23    16    17   ar
    24    16    34    1
    25    17    35    1
    26    18    29   ar
    27    18    30    1
    28    19    27   ar
    29    19    28   ar
    30    19    31    1
    31    20    32   am
    32    20    33    2
    33    21    23    1
    34    21    30    1
    35    22    24    1
    36    22    30    1
    37    23    31    1
    38    24    31    1
    39    25    34    1
    40    25    35    1
    41     1    36    1
    42     2    37    1
    43     3    38    1
    44     4    39    1
    45     5    40    1
    46     6    41    1
    47     7    42    1
    48     8    43    1
    49     9    44    1
    50    10    45    1
    51    21    46    1
    52    21    47    1
    53    22    48    1
    54    22    49    1
    55    23    50    1
    56    23    51    1
    57    24    52    1
    58    24    53    1
    59    25    54    1
    60    25    55    1
    61    26    56    1
    62    26    57    1
    63    26    58    1
    64    32    59    1
