@<TRIPOS>MOLECULE
ChEBML622612
 44 47 0 0 0
SMALL
USER_CHARGES

@<TRIPOS>ATOM
      1 C          -1.9362    0.9461   -3.2136 C.ar    1  LIG1       -0.0432
      2 C          -6.4243   -2.6271   -0.4274 C.3     1  LIG1       -0.0424
      3 C          -1.6899   -0.3619   -2.8114 C.ar    1  LIG1       -0.0462
      4 C         -11.6359   -5.4197    0.7248 C.ar    1  LIG1       -0.0482
      5 C         -12.0866   -3.0891    1.1747 C.ar    1  LIG1       -0.0482
      6 C         -10.2703   -5.1871    0.8872 C.ar    1  LIG1       -0.0402
      7 C         -10.7208   -2.8564    1.3372 C.ar    1  LIG1       -0.0402
      8 C          -5.4506   -2.0997   -1.2643 C.3     1  LIG1       -0.0330
      9 C          -7.9590   -1.8579    2.8624 C.3     1  LIG1        0.0241
     10 C          -3.1198    1.5387   -2.8041 C.ar    1  LIG1        0.0276
     11 C          -7.2393   -0.7187    3.1654 C.3     1  LIG1        0.1705
     12 C          -6.7197   -2.0027    0.7918 C.3     1  LIG1        0.0889
     13 C         -12.5441   -4.3707    0.8686 C.ar    1  LIG1        0.0556
     14 C          -2.6217   -1.0280   -2.0231 C.ar    1  LIG1        0.0834
     15 C          -9.8127   -3.9054    1.1934 C.ar    1  LIG1        0.0303
     16 C          -7.6959   -2.5050    1.6641 C.3     1  LIG1        0.0521
     17 C          -4.7987   -0.9548   -0.8507 C.3     1  LIG1        0.0962
     18 C          -3.7745   -0.3470   -1.6667 C.ar    1  LIG1        0.1010
     19 C          -6.0024   -0.8337    1.1353 C.3     1  LIG1        0.3099
     20 C         -14.0044   -4.6183    0.6947 C.3     1  LIG1        0.4160
     21 C          -2.3554   -2.4309   -1.5947 C.3     1  LIG1        0.4181
     22 N          -4.0487    0.9236   -2.0382 N.ar    1  LIG1       -0.2539
     23 N          -5.0492   -0.3179    0.3150 N.3     1  LIG1       -0.1847
     24 N          -6.3123   -0.2566    2.3188 N.3     1  LIG1       -0.1942
     25 N          -8.4369   -3.6710    1.3589 N.pl3   1  LIG1       -0.3140
     26 F         -14.3080   -5.9167    0.3976 F       1  LIG1       -0.1661
     27 F         -14.7447   -4.3248    1.8044 F       1  LIG1       -0.1661
     28 F         -14.5466   -3.8757   -0.3141 F       1  LIG1       -0.1661
     29 F          -1.1660   -2.9263   -2.0488 F       1  LIG1       -0.1660
     30 F          -2.3122   -2.5901   -0.2385 F       1  LIG1       -0.1660
     31 F          -3.3073   -3.3047   -2.0351 F       1  LIG1       -0.1660
     32 H          -1.2233    1.4840   -3.8280 H       1  LIG1        0.0639
     33 H          -6.9419   -3.5281   -0.7471 H       1  LIG1        0.0633
     34 H          -0.7694   -0.8522   -3.1160 H       1  LIG1        0.0630
     35 H         -11.9836   -6.4210    0.4854 H       1  LIG1        0.0629
     36 H         -12.7864   -2.2655    1.2869 H       1  LIG1        0.0629
     37 H          -9.5711   -6.0112    0.7716 H       1  LIG1        0.0642
     38 H         -10.3753   -1.8537    1.5750 H       1  LIG1        0.0642
     39 H          -5.2207   -2.5829   -2.2083 H       1  LIG1        0.0646
     40 H          -8.7093   -2.2277    3.5541 H       1  LIG1        0.0706
     41 H          -3.3599    2.5566   -3.0927 H       1  LIG1        0.0840
     42 H          -7.3741   -0.1479    4.0740 H       1  LIG1        0.1394
     43 H          -5.8017    0.5875    2.5771 H       1  LIG1        0.4551
     44 H          -7.8585   -4.4947    1.2362 H       1  LIG1        0.1528
@<TRIPOS>BOND
     1     1     3   ar
     2     1    10   ar
     3     2     8    1
     4     2    12    1
     5     3    14   ar
     6     4     6   ar
     7     4    13   ar
     8     5     7   ar
     9     5    13   ar
    10     6    15   ar
    11     7    15   ar
    12     8    17    1
    13     9    11    1
    14     9    16    1
    15    10    22   ar
    16    11    24    1
    17    12    16    1
    18    12    19    1
    19    13    20    1
    20    14    18   ar
    21    14    21    1
    22    15    25    1
    23    16    25    1
    24    17    18    1
    25    17    23    1
    26    18    22   ar
    27    19    23    1
    28    19    24    1
    29    20    26    1
    30    20    27    1
    31    20    28    1
    32    21    29    1
    33    21    30    1
    34    21    31    1
    35     1    32    1
    36     2    33    1
    37     3    34    1
    38     4    35    1
    39     5    36    1
    40     6    37    1
    41     7    38    1
    42     8    39    1
    43     9    40    1
    44    10    41    1
    45    11    42    1
    46    24    43    1
    47    25    44    1
