@<TRIPOS>MOLECULE
ChEBML515630
 37 39 0 0 0
SMALL
USER_CHARGES

@<TRIPOS>ATOM
      1 C          -1.3294    0.4095   -3.9216 C.ar    1  LIG1       -0.0622
      2 C          -1.7819    1.5867   -3.3256 C.ar    1  LIG1       -0.0620
      3 C          -1.9578   -0.8028   -3.6364 C.ar    1  LIG1       -0.0620
      4 C         -12.1779   -4.8466    1.6355 C.ar    1  LIG1       -0.0410
      5 C          -2.8625    1.5516   -2.4444 C.ar    1  LIG1       -0.0590
      6 C          -3.0384   -0.8379   -2.7551 C.ar    1  LIG1       -0.0590
      7 C         -11.6946   -3.7660    2.3700 C.ar    1  LIG1       -0.0257
      8 C         -11.4487   -5.3148    0.5429 C.ar    1  LIG1        0.0295
      9 C          -3.4907    0.3393   -2.1590 C.ar    1  LIG1       -0.0480
     10 C         -10.4916   -3.2544    1.9143 C.ar    1  LIG1        0.1288
     11 C          -9.8136   -3.7651    0.8197 C.ar    1  LIG1        0.1857
     12 C          -8.6848   -2.1591    1.5724 C.ar    1  LIG1        0.2184
     13 C          -7.6429   -1.1186    1.8030 C.2     1  LIG1        0.2051
     14 C          -4.6591    0.3006   -1.2061 C.3     1  LIG1       -0.0279
     15 C          -6.4436   -1.0675    0.8667 C.3     1  LIG1        0.0147
     16 C          -4.2551    0.0805    0.2564 C.3     1  LIG1       -0.0488
     17 C          -5.4566    0.0516    1.2101 C.3     1  LIG1       -0.0456
     18 N         -10.2698   -4.8151    0.0947 N.ar    1  LIG1       -0.2347
     19 N          -8.6595   -3.0570    0.6104 N.ar    1  LIG1       -0.1984
     20 O          -7.7876   -0.3232    2.7283 O.2     1  LIG1       -0.2900
     21 O          -9.7637   -2.2121    2.4065 O.2     1  LIG1       -0.2847
     22 H          -0.4888    0.4371   -4.6088 H       1  LIG1        0.0622
     23 H          -1.2935    2.5308   -3.5485 H       1  LIG1        0.0623
     24 H          -1.6065   -1.7194   -4.1010 H       1  LIG1        0.0623
     25 H         -13.1147   -5.3202    1.9116 H       1  LIG1        0.0640
     26 H          -3.2080    2.4737   -1.9845 H       1  LIG1        0.0625
     27 H          -3.5216   -1.7870   -2.5387 H       1  LIG1        0.0625
     28 H         -12.2182   -3.3613    3.2263 H       1  LIG1        0.0652
     29 H         -11.8230   -6.1582   -0.0316 H       1  LIG1        0.0840
     30 H          -5.2497    1.2213   -1.2924 H       1  LIG1        0.0316
     31 H          -5.3279   -0.5115   -1.5193 H       1  LIG1        0.0316
     32 H          -6.8262   -0.8933   -0.1457 H       1  LIG1        0.0352
     33 H          -5.9190   -2.0288    0.8864 H       1  LIG1        0.0352
     34 H          -3.7290   -0.8801    0.3234 H       1  LIG1        0.0270
     35 H          -3.5407    0.8506    0.5691 H       1  LIG1        0.0270
     36 H          -5.9838    1.0112    1.1427 H       1  LIG1        0.0271
     37 H          -5.1205   -0.0554    2.2475 H       1  LIG1        0.0271
@<TRIPOS>BOND
     1     1     2   ar
     2     1     3   ar
     3     2     5   ar
     4     3     6   ar
     5     4     7   ar
     6     4     8   ar
     7     5     9   ar
     8     6     9   ar
     9     7    10   ar
    10     8    18   ar
    11     9    14    1
    12    10    11   ar
    13    10    21   ar
    14    11    18   ar
    15    11    19   ar
    16    12    13    1
    17    12    19   ar
    18    12    21   ar
    19    13    15    1
    20    13    20    2
    21    14    16    1
    22    15    17    1
    23    16    17    1
    24     1    22    1
    25     2    23    1
    26     3    24    1
    27     4    25    1
    28     5    26    1
    29     6    27    1
    30     7    28    1
    31     8    29    1
    32    14    30    1
    33    14    31    1
    34    15    32    1
    35    15    33    1
    36    16    34    1
    37    16    35    1
    38    17    36    1
    39    17    37    1
