@<TRIPOS>MOLECULE
ChEBML162640
 46 48 0 0 0
SMALL
USER_CHARGES

@<TRIPOS>ATOM
      1 C          -1.7209    1.1125   -2.9137 C.ar    1  LIG1       -0.0622
      2 C          -2.9829    1.7049   -2.9604 C.ar    1  LIG1       -0.0620
      3 C          -1.5866   -0.2108   -2.4934 C.ar    1  LIG1       -0.0620
      4 C          -4.1106    0.9739   -2.5867 C.ar    1  LIG1       -0.0589
      5 C          -2.7143   -0.9417   -2.1197 C.ar    1  LIG1       -0.0589
      6 C         -10.4683   -5.4125    1.2837 C.ar    1  LIG1       -0.0391
      7 C         -11.7781   -5.6585    1.7053 C.ar    1  LIG1       -0.0461
      8 C         -12.0733   -3.3323    2.3366 C.ar    1  LIG1       -0.0387
      9 C          -9.9469   -1.8898    1.8872 C.ar    1  LIG1       -0.0262
     10 C         -10.7557   -3.0603    1.9180 C.ar    1  LIG1       -0.0011
     11 C          -3.9763   -0.3494   -2.1664 C.ar    1  LIG1       -0.0456
     12 C          -9.9851   -4.1046    1.4023 C.ar    1  LIG1        0.0379
     13 C         -12.5701   -4.6360    2.2239 C.ar    1  LIG1        0.0182
     14 C          -8.7237   -2.2397    1.3633 C.ar    1  LIG1        0.0945
     15 C          -7.5393   -1.3741    1.1290 C.2     1  LIG1        0.2578
     16 C          -4.3895   -1.6074    0.5737 C.2     1  LIG1        0.2346
     17 C          -2.2317   -1.1831    1.7748 C.3     1  LIG1        0.0024
     18 C          -3.4182    0.6999    0.7245 C.3     1  LIG1        0.0024
     19 C          -5.1963   -1.1409   -1.7615 C.3     1  LIG1       -0.0005
     20 C          -5.5208   -1.0135   -0.2680 C.3     1  LIG1        0.1038
     21 N          -8.7565   -3.5775    1.0738 N.ar    1  LIG1       -0.3101
     22 N          -6.7233   -1.7408    0.0710 N.am    1  LIG1       -0.2982
     23 N          -3.3869   -0.7330    1.0070 N.am    1  LIG1       -0.3064
     24 O          -7.3377   -0.4187    1.8740 O.2     1  LIG1       -0.2704
     25 O          -4.3689   -2.8205    0.8094 O.2     1  LIG1       -0.2753
     26 BR        -14.3396   -5.0101    2.7801 Br      1  LIG1       -0.0508
     27 H          -0.8431    1.6814   -3.2060 H       1  LIG1        0.0622
     28 H          -3.0877    2.7348   -3.2887 H       1  LIG1        0.0623
     29 H          -0.6044   -0.6725   -2.4580 H       1  LIG1        0.0623
     30 H          -5.0899    1.4437   -2.6261 H       1  LIG1        0.0625
     31 H          -2.6001   -1.9720   -1.7934 H       1  LIG1        0.0625
     32 H          -9.8523   -6.2096    0.8812 H       1  LIG1        0.0643
     33 H         -12.1685   -6.6705    1.6204 H       1  LIG1        0.0635
     34 H         -12.6879   -2.5322    2.7412 H       1  LIG1        0.0641
     35 H         -10.2330   -0.8990    2.2142 H       1  LIG1        0.0651
     36 H          -1.4170   -1.4597    1.1005 H       1  LIG1        0.0433
     37 H          -2.4969   -2.0530    2.3817 H       1  LIG1        0.0433
     38 H          -1.8846   -0.3860    2.4377 H       1  LIG1        0.0433
     39 H          -3.9433    1.2291    1.5239 H       1  LIG1        0.0433
     40 H          -3.9351    0.8876   -0.2205 H       1  LIG1        0.0433
     41 H          -2.4006    1.0930    0.6514 H       1  LIG1        0.0433
     42 H          -6.0574   -0.8200   -2.3637 H       1  LIG1        0.0340
     43 H          -5.0341   -2.1909   -2.0363 H       1  LIG1        0.0340
     44 H          -5.7178    0.0192    0.0329 H       1  LIG1        0.0608
     45 H          -7.9911   -4.1050    0.6767 H       1  LIG1        0.1529
     46 H          -6.9199   -2.5810   -0.4627 H       1  LIG1        0.1506
@<TRIPOS>BOND
     1     1     2   ar
     2     1     3   ar
     3     2     4   ar
     4     3     5   ar
     5     4    11   ar
     6     5    11   ar
     7     6     7   ar
     8     6    12   ar
     9     7    13   ar
    10     8    10   ar
    11     8    13   ar
    12     9    10   ar
    13     9    14   ar
    14    10    12   ar
    15    11    19    1
    16    12    21   ar
    17    13    26    1
    18    14    15    1
    19    14    21   ar
    20    15    22   am
    21    15    24    2
    22    16    20    1
    23    16    23   am
    24    16    25    2
    25    17    23    1
    26    18    23    1
    27    19    20    1
    28    20    22    1
    29     1    27    1
    30     2    28    1
    31     3    29    1
    32     4    30    1
    33     5    31    1
    34     6    32    1
    35     7    33    1
    36     8    34    1
    37     9    35    1
    38    17    36    1
    39    17    37    1
    40    17    38    1
    41    18    39    1
    42    18    40    1
    43    18    41    1
    44    19    42    1
    45    19    43    1
    46    20    44    1
    47    21    45    1
    48    22    46    1
