@<TRIPOS>MOLECULE
ChEBML597013
 45 48 0 0 0
SMALL
USER_CHARGES

@<TRIPOS>ATOM
      1 C         -12.0009   -2.9011    2.3735 C.ar    1  LIG1       -0.0522
      2 C          -6.6218   -0.9041    2.0040 C.ar    1  LIG1       -0.0505
      3 C          -6.8507   -1.5288   -0.3187 C.ar    1  LIG1       -0.0505
      4 C         -12.6323   -4.1495    2.3303 C.ar    1  LIG1       -0.0490
      5 C          -5.4209   -0.2576    1.7118 C.ar    1  LIG1       -0.0306
      6 C          -5.6498   -0.8823   -0.6108 C.ar    1  LIG1       -0.0306
      7 C          -3.7079    1.3799   -2.0720 C.ar    1  LIG1       -0.0286
      8 C          -2.4995   -0.6670   -1.6394 C.ar    1  LIG1       -0.0286
      9 C          -3.2652    1.3617   -3.3946 C.ar    1  LIG1       -0.0292
     10 C          -2.0568   -0.6852   -2.9619 C.ar    1  LIG1       -0.0292
     11 C          -9.7472   -1.7099    1.8198 C.ar    1  LIG1       -0.0310
     12 C         -10.6439   -5.1822    1.3899 C.ar    1  LIG1       -0.0276
     13 C         -10.6718   -2.7870    1.9194 C.ar    1  LIG1       -0.0023
     14 C          -7.3367   -1.5398    0.9887 C.ar    1  LIG1       -0.0040
     15 C         -11.9623   -5.2711    1.8458 C.ar    1  LIG1        0.0387
     16 C         -10.0253   -3.9279    1.4391 C.ar    1  LIG1        0.0385
     17 C          -4.9349   -0.2467    0.4044 C.ar    1  LIG1        0.0821
     18 C          -3.3250    0.3655   -1.1944 C.ar    1  LIG1        0.0822
     19 C          -2.4397    0.3292   -3.8396 C.ar    1  LIG1        0.0748
     20 C          -8.5789   -2.2086    1.2911 C.ar    1  LIG1        0.0383
     21 C         -12.6438   -6.5562    1.8128 C.2     1  LIG1        0.2404
     22 C          -1.1661   -0.7732   -5.5185 C.3     1  LIG1        0.0422
     23 N          -8.7566   -3.5471    1.0645 N.ar    1  LIG1       -0.3139
     24 N         -13.9556   -6.6049    2.2748 N.am    1  LIG1       -0.3251
     25 O         -12.0730   -7.5817    1.4027 O.2     1  LIG1       -0.2721
     26 O          -3.7630    0.3842    0.1192 O.3     1  LIG1       -0.3104
     27 O          -2.0076    0.3116   -5.1301 O.3     1  LIG1       -0.3493
     28 H         -12.5348   -2.0348    2.7536 H       1  LIG1        0.0630
     29 H          -6.9874   -0.9038    3.0281 H       1  LIG1        0.0630
     30 H          -7.3963   -2.0198   -1.1210 H       1  LIG1        0.0630
     31 H         -13.6582   -4.2315    2.6822 H       1  LIG1        0.0631
     32 H          -4.8684    0.2357    2.5068 H       1  LIG1        0.0650
     33 H          -5.2762   -0.8771   -1.6312 H       1  LIG1        0.0650
     34 H          -4.3488    2.1881   -1.7305 H       1  LIG1        0.0651
     35 H          -2.1974   -1.4593   -0.9598 H       1  LIG1        0.0651
     36 H          -3.5677    2.1537   -4.0741 H       1  LIG1        0.0651
     37 H          -1.4138   -1.4919   -3.3029 H       1  LIG1        0.0651
     38 H          -9.9237   -0.6815    2.1063 H       1  LIG1        0.0650
     39 H         -10.1145   -6.0509    1.0109 H       1  LIG1        0.0651
     40 H          -0.8940   -0.6656   -6.5712 H       1  LIG1        0.0535
     41 H          -1.6927   -1.7181   -5.3619 H       1  LIG1        0.0535
     42 H          -0.2608   -0.7573   -4.9070 H       1  LIG1        0.0535
     43 H          -8.0605   -4.1706    0.6787 H       1  LIG1        0.1528
     44 H         -14.3930   -5.7560    2.6165 H       1  LIG1        0.1458
     45 H         -14.4840   -7.4714    2.2774 H       1  LIG1        0.1458
@<TRIPOS>BOND
     1     1     4   ar
     2     1    13   ar
     3     2     5   ar
     4     2    14   ar
     5     3     6   ar
     6     3    14   ar
     7     4    15   ar
     8     5    17   ar
     9     6    17   ar
    10     7     9   ar
    11     7    18   ar
    12     8    10   ar
    13     8    18   ar
    14     9    19   ar
    15    10    19   ar
    16    11    13   ar
    17    11    20   ar
    18    12    15   ar
    19    12    16   ar
    20    13    16   ar
    21    14    20    1
    22    15    21    1
    23    16    23   ar
    24    17    26    1
    25    18    26    1
    26    19    27    1
    27    20    23   ar
    28    21    24   am
    29    21    25    2
    30    22    27    1
    31     1    28    1
    32     2    29    1
    33     3    30    1
    34     4    31    1
    35     5    32    1
    36     6    33    1
    37     7    34    1
    38     8    35    1
    39     9    36    1
    40    10    37    1
    41    11    38    1
    42    12    39    1
    43    22    40    1
    44    22    41    1
    45    22    42    1
    46    23    43    1
    47    24    44    1
    48    24    45    1
