@<TRIPOS>MOLECULE
ChEBML300389
 53 55 0 0 0
SMALL
USER_CHARGES

@<TRIPOS>ATOM
      1 C         -10.2967   -5.2218    0.5523 C.ar    1  LIG1       -0.0387
      2 C         -11.6492   -5.5609    0.6508 C.ar    1  LIG1       -0.0416
      3 C         -12.1368   -3.5052    1.8484 C.ar    1  LIG1       -0.0343
      4 C         -10.0211   -2.0213    2.2033 C.ar    1  LIG1       -0.0262
      5 C         -10.7780   -3.1423    1.7614 C.ar    1  LIG1       -0.0007
      6 C          -9.8912   -4.0072    1.1167 C.ar    1  LIG1        0.0379
      7 C         -12.5568   -4.7174    1.2885 C.ar    1  LIG1        0.0413
      8 C          -8.7138   -2.2236    1.8256 C.ar    1  LIG1        0.0945
      9 C          -7.5405   -1.3416    2.0554 C.2     1  LIG1        0.2576
     10 C          -4.5124   -0.7244    0.3663 C.2     1  LIG1        0.2319
     11 C          -3.6802    1.0420   -3.7014 C.3     1  LIG1       -0.0532
     12 C          -3.3710   -0.3850   -4.1410 C.3     1  LIG1       -0.0532
     13 C          -3.9855    1.2159   -2.2145 C.3     1  LIG1       -0.0515
     14 C          -2.2334   -1.0700   -3.3849 C.3     1  LIG1       -0.0515
     15 C          -2.7421    1.0830   -1.3396 C.3     1  LIG1       -0.0345
     16 C          -2.6180   -1.4460   -1.9548 C.3     1  LIG1       -0.0345
     17 C          -2.3976   -0.3469   -0.9106 C.3     1  LIG1        0.0254
     18 C          -5.0966   -1.0704    1.7246 C.3     1  LIG1        0.0887
     19 C          -2.2714   -0.9122    1.4851 C.3     1  LIG1        0.0377
     20 C          -1.9315   -2.3893    1.5628 C.3     1  LIG1        0.0589
     21 N          -8.6453   -3.4240    1.1707 N.ar    1  LIG1       -0.3101
     22 N          -6.3228   -1.7975    1.5606 N.am    1  LIG1       -0.3013
     23 N          -3.1083   -0.6623    0.3115 N.am    1  LIG1       -0.2952
     24 O          -7.6920   -0.2902    2.6721 O.2     1  LIG1       -0.2704
     25 O          -5.2472   -0.5194   -0.6035 O.2     1  LIG1       -0.2756
     26 O          -1.2590   -2.7824    0.3733 O.3     1  LIG1       -0.3947
     27 CL        -14.2165   -5.1691    1.3884 Cl      1  LIG1       -0.0843
     28 H          -9.5910   -5.8798    0.0562 H       1  LIG1        0.0643
     29 H         -11.9824   -6.5018    0.2182 H       1  LIG1        0.0639
     30 H         -12.8435   -2.8466    2.3464 H       1  LIG1        0.0645
     31 H         -10.3970   -1.1602    2.7398 H       1  LIG1        0.0651
     32 H          -2.8479    1.6979   -3.9860 H       1  LIG1        0.0266
     33 H          -4.5490    1.3898   -4.2747 H       1  LIG1        0.0266
     34 H          -4.2814   -0.9929   -4.0656 H       1  LIG1        0.0266
     35 H          -3.1110   -0.3610   -5.2068 H       1  LIG1        0.0266
     36 H          -4.3804    2.2313   -2.0808 H       1  LIG1        0.0267
     37 H          -4.7766    0.5304   -1.8905 H       1  LIG1        0.0267
     38 H          -2.0001   -1.9981   -3.9221 H       1  LIG1        0.0267
     39 H          -1.3230   -0.4608   -3.4092 H       1  LIG1        0.0267
     40 H          -1.8851    1.5500   -1.8433 H       1  LIG1        0.0285
     41 H          -2.8939    1.6752   -0.4266 H       1  LIG1        0.0285
     42 H          -3.6705   -1.7567   -1.9329 H       1  LIG1        0.0285
     43 H          -2.0425   -2.3343   -1.6618 H       1  LIG1        0.0285
     44 H          -1.3363   -0.3759   -0.6327 H       1  LIG1        0.0506
     45 H          -4.4066   -1.7076    2.2836 H       1  LIG1        0.0567
     46 H          -5.3260   -0.1597    2.2839 H       1  LIG1        0.0567
     47 H          -2.8197   -0.5838    2.3737 H       1  LIG1        0.0493
     48 H          -1.3590   -0.3161    1.3866 H       1  LIG1        0.0493
     49 H          -2.8486   -2.9811    1.6439 H       1  LIG1        0.0580
     50 H          -1.2875   -2.6097    2.4206 H       1  LIG1        0.0580
     51 H          -7.8037   -3.8269    0.7819 H       1  LIG1        0.1529
     52 H          -6.2725   -2.7128    1.1143 H       1  LIG1        0.1503
     53 H          -1.0610   -3.7285    0.4637 H       1  LIG1        0.2101
@<TRIPOS>BOND
     1     1     2   ar
     2     1     6   ar
     3     2     7   ar
     4     3     5   ar
     5     3     7   ar
     6     4     5   ar
     7     4     8   ar
     8     5     6   ar
     9     6    21   ar
    10     7    27    1
    11     8     9    1
    12     8    21   ar
    13     9    22   am
    14     9    24    2
    15    10    18    1
    16    10    23   am
    17    10    25    2
    18    11    12    1
    19    11    13    1
    20    12    14    1
    21    13    15    1
    22    14    16    1
    23    15    17    1
    24    16    17    1
    25    17    23    1
    26    18    22    1
    27    19    20    1
    28    19    23    1
    29    20    26    1
    30     1    28    1
    31     2    29    1
    32     3    30    1
    33     4    31    1
    34    11    32    1
    35    11    33    1
    36    12    34    1
    37    12    35    1
    38    13    36    1
    39    13    37    1
    40    14    38    1
    41    14    39    1
    42    15    40    1
    43    15    41    1
    44    16    42    1
    45    16    43    1
    46    17    44    1
    47    18    45    1
    48    18    46    1
    49    19    47    1
    50    19    48    1
    51    20    49    1
    52    20    50    1
    53    21    51    1
    54    22    52    1
    55    26    53    1
