@<TRIPOS>MOLECULE
ChEBML296731
 42 44 0 0 0
SMALL
USER_CHARGES

@<TRIPOS>ATOM
      1 C          -2.0950    0.9501   -3.3084 C.ar    1  LIG1       -0.0434
      2 C          -1.8980   -0.4101   -3.0978 C.ar    1  LIG1       -0.0543
      3 C         -10.2567   -5.1730    0.9903 C.ar    1  LIG1       -0.0392
      4 C         -10.6470   -2.7967    1.1859 C.ar    1  LIG1       -0.0392
      5 C         -11.6229   -5.3819    0.8026 C.ar    1  LIG1       -0.0417
      6 C         -12.0132   -3.0056    0.9980 C.ar    1  LIG1       -0.0417
      7 C          -3.2173    1.5375   -2.7470 C.ar    1  LIG1        0.0291
      8 C          -2.8162   -1.1311   -2.3426 C.ar    1  LIG1       -0.0107
      9 C          -9.7687   -3.8804    1.1821 C.ar    1  LIG1        0.0340
     10 C         -12.5012   -4.2982    0.8064 C.ar    1  LIG1        0.0407
     11 C          -3.9061   -0.4505   -1.8242 C.ar    1  LIG1        0.1229
     12 C          -7.9003   -2.3995    1.6361 C.2     1  LIG1        0.3050
     13 C          -4.6137   -1.2609    0.3700 C.3     1  LIG1        0.0288
     14 C          -6.1712   -1.3205   -1.6017 C.3     1  LIG1        0.0288
     15 C          -5.9207   -1.0027    1.1163 C.3     1  LIG1        0.0315
     16 C          -6.9786   -2.2847   -0.7315 C.3     1  LIG1        0.0315
     17 C          -2.6011   -2.5893   -2.1188 C.3     1  LIG1       -0.0363
     18 N          -4.1312    0.8698   -2.0076 N.ar    1  LIG1       -0.2411
     19 N          -4.8135   -1.1574   -1.0781 N.pl3   1  LIG1       -0.3125
     20 N          -6.9754   -1.9198    0.6895 N.am    1  LIG1       -0.2824
     21 N          -8.3976   -3.6707    1.3701 N.am    1  LIG1       -0.2690
     22 O          -8.2382   -1.7476    2.6295 O.2     1  LIG1       -0.2537
     23 CL        -14.1872   -4.5562    0.5746 Cl      1  LIG1       -0.0843
     24 H          -1.3920    1.5320   -3.8934 H       1  LIG1        0.0639
     25 H          -1.0268   -0.8983   -3.5257 H       1  LIG1        0.0627
     26 H          -9.5812   -6.0246    0.9859 H       1  LIG1        0.0643
     27 H         -10.2774   -1.7854    1.3344 H       1  LIG1        0.0643
     28 H         -11.9894   -6.3943    0.6542 H       1  LIG1        0.0639
     29 H         -12.6862   -2.1521    1.0034 H       1  LIG1        0.0639
     30 H          -3.4177    2.5954   -2.8823 H       1  LIG1        0.0840
     31 H          -3.8577   -0.5449    0.7156 H       1  LIG1        0.0485
     32 H          -4.2417   -2.2668    0.5989 H       1  LIG1        0.0485
     33 H          -6.1375   -1.7047   -2.6282 H       1  LIG1        0.0485
     34 H          -6.6692   -0.3427   -1.6286 H       1  LIG1        0.0485
     35 H          -5.7568   -1.0914    2.1954 H       1  LIG1        0.0486
     36 H          -6.2825    0.0144    0.9221 H       1  LIG1        0.0486
     37 H          -8.0103   -2.3199   -1.0968 H       1  LIG1        0.0486
     38 H          -6.5614   -3.2966   -0.7992 H       1  LIG1        0.0486
     39 H          -2.0099   -2.7536   -1.2094 H       1  LIG1        0.0281
     40 H          -3.5555   -3.1219   -2.0139 H       1  LIG1        0.0281
     41 H          -2.0728   -3.0490   -2.9645 H       1  LIG1        0.0281
     42 H          -7.8026   -4.4910    1.3584 H       1  LIG1        0.1573
@<TRIPOS>BOND
     1     1     2   ar
     2     1     7   ar
     3     2     8   ar
     4     3     5   ar
     5     3     9   ar
     6     4     6   ar
     7     4     9   ar
     8     5    10   ar
     9     6    10   ar
    10     7    18   ar
    11     8    11   ar
    12     8    17    1
    13     9    21    1
    14    10    23    1
    15    11    18   ar
    16    11    19    1
    17    12    20   am
    18    12    21   am
    19    12    22    2
    20    13    15    1
    21    13    19    1
    22    14    16    1
    23    14    19    1
    24    15    20    1
    25    16    20    1
    26     1    24    1
    27     2    25    1
    28     3    26    1
    29     4    27    1
    30     5    28    1
    31     6    29    1
    32     7    30    1
    33    13    31    1
    34    13    32    1
    35    14    33    1
    36    14    34    1
    37    15    35    1
    38    15    36    1
    39    16    37    1
    40    16    38    1
    41    17    39    1
    42    17    40    1
    43    17    41    1
    44    21    42    1
