@<TRIPOS>MOLECULE
ChEBML945429
 43 47 0 0 0
SMALL
USER_CHARGES

@<TRIPOS>ATOM
      1 C          -1.6617    0.6535   -3.4034 C.ar    1  LIG1       -0.0621
      2 C         -12.2526   -5.0169    1.4580 C.ar    1  LIG1       -0.0614
      3 C          -1.5686   -0.3468   -2.4359 C.ar    1  LIG1       -0.0604
      4 C          -2.8840    1.2824   -3.6410 C.ar    1  LIG1       -0.0604
      5 C         -11.4894   -5.4838    0.3852 C.ar    1  LIG1       -0.0596
      6 C         -11.8213   -3.9329    2.2345 C.ar    1  LIG1       -0.0500
      7 C          -2.6978   -0.7186   -1.7061 C.ar    1  LIG1       -0.0409
      8 C          -4.0131    0.9108   -2.9112 C.ar    1  LIG1       -0.0409
      9 C         -10.2707   -4.8876    0.0482 C.ar    1  LIG1       -0.0305
     10 C          -9.0746   -0.4900    3.6266 C.ar    1  LIG1        0.1181
     11 C         -10.5986   -3.3168    1.9145 C.ar    1  LIG1        0.0339
     12 C          -9.8369   -2.2365    2.4295 C.ar    1  LIG1        0.1091
     13 C          -3.9200   -0.0897   -1.9437 C.ar    1  LIG1        0.0286
     14 C          -9.8659   -3.8115    0.8366 C.ar    1  LIG1        0.0918
     15 C          -8.7014   -2.1453    1.6385 C.ar    1  LIG1        0.1487
     16 C          -7.7385   -1.1860    1.8719 C.ar    1  LIG1        0.1553
     17 C          -5.1398   -1.8321   -0.7454 C.3     1  LIG1        0.0273
     18 C          -5.7510    0.5868   -0.4941 C.3     1  LIG1        0.0273
     19 C          -6.4639   -2.0510   -0.0085 C.3     1  LIG1        0.0287
     20 C          -5.9370    0.1949    0.9744 C.3     1  LIG1        0.0287
     21 N         -10.0644   -1.3964    3.4682 N.ar    1  LIG1       -0.2333
     22 N          -7.9401   -0.3346    2.9023 N.ar    1  LIG1       -0.2186
     23 N          -5.0305   -0.4548   -1.2261 N.pl3   1  LIG1       -0.3276
     24 N          -6.5892   -1.0940    1.0708 N.pl3   1  LIG1       -0.3104
     25 O          -8.7134   -3.0981    0.6707 O.2     1  LIG1       -0.3037
     26 H          -0.7825    0.9427   -3.9719 H       1  LIG1        0.0622
     27 H         -13.1959   -5.5020    1.6957 H       1  LIG1        0.0623
     28 H          -0.6172   -0.8364   -2.2512 H       1  LIG1        0.0623
     29 H          -2.9563    2.0616   -4.3945 H       1  LIG1        0.0623
     30 H         -11.8494   -6.3273   -0.1991 H       1  LIG1        0.0623
     31 H         -12.4257   -3.5824    3.0658 H       1  LIG1        0.0631
     32 H          -2.6146   -1.4994   -0.9546 H       1  LIG1        0.0642
     33 H          -4.9602    1.4080   -3.1048 H       1  LIG1        0.0642
     34 H          -9.6736   -5.2454   -0.7822 H       1  LIG1        0.0650
     35 H          -9.2064    0.2092    4.4454 H       1  LIG1        0.1063
     36 H          -4.2993   -2.0309   -0.0690 H       1  LIG1        0.0485
     37 H          -5.0639   -2.5502   -1.5715 H       1  LIG1        0.0485
     38 H          -6.7328    0.7487   -0.9579 H       1  LIG1        0.0485
     39 H          -5.1973    1.5316   -0.5477 H       1  LIG1        0.0485
     40 H          -7.2987   -1.9367   -0.7125 H       1  LIG1        0.0485
     41 H          -6.4947   -3.0755    0.3813 H       1  LIG1        0.0485
     42 H          -4.9594    0.1173    1.4660 H       1  LIG1        0.0485
     43 H          -6.4944    0.9863    1.4910 H       1  LIG1        0.0485
@<TRIPOS>BOND
     1     1     3   ar
     2     1     4   ar
     3     2     5   ar
     4     2     6   ar
     5     3     7   ar
     6     4     8   ar
     7     5     9   ar
     8     6    11   ar
     9     7    13   ar
    10     8    13   ar
    11     9    14   ar
    12    10    21   ar
    13    10    22   ar
    14    11    12   ar
    15    11    14   ar
    16    12    15   ar
    17    12    21   ar
    18    13    23    1
    19    14    25   ar
    20    15    16   ar
    21    15    25   ar
    22    16    22   ar
    23    16    24    1
    24    17    19    1
    25    17    23    1
    26    18    20    1
    27    18    23    1
    28    19    24    1
    29    20    24    1
    30     1    26    1
    31     2    27    1
    32     3    28    1
    33     4    29    1
    34     5    30    1
    35     6    31    1
    36     7    32    1
    37     8    33    1
    38     9    34    1
    39    10    35    1
    40    17    36    1
    41    17    37    1
    42    18    38    1
    43    18    39    1
    44    19    40    1
    45    19    41    1
    46    20    42    1
    47    20    43    1
