@<TRIPOS>MOLECULE
ChEBML1282892
 48 51 0 0 0
SMALL
USER_CHARGES

@<TRIPOS>ATOM
      1 C          -8.3199   -0.9464    2.5711 C.1     1  LIG1        0.1042
      2 C          -2.9268    1.5433   -3.0250 C.ar    1  LIG1       -0.0614
      3 C          -1.8065    0.7590   -3.2995 C.ar    1  LIG1       -0.0596
      4 C          -4.0224    0.9875   -2.3644 C.ar    1  LIG1       -0.0517
      5 C          -6.3926   -0.9168   -1.9168 C.ar    1  LIG1       -0.0536
      6 C          -5.0015   -1.4403   -0.0121 C.ar    1  LIG1       -0.0536
      7 C          -7.4979   -1.4541   -1.2573 C.ar    1  LIG1       -0.0521
      8 C          -6.1068   -1.9777    0.6474 C.ar    1  LIG1       -0.0521
      9 C          -1.7817   -0.5811   -2.9133 C.ar    1  LIG1       -0.0312
     10 C         -10.7642   -5.2415   -0.0324 C.ar    1  LIG1       -0.0173
     11 C         -11.8720   -5.8343    0.5583 C.ar    1  LIG1        0.0290
     12 C         -11.7954   -4.4023    2.3402 C.ar    1  LIG1        0.0389
     13 C          -8.9583   -2.0495    1.9169 C.ar    1  LIG1        0.1092
     14 C         -10.6777   -3.7395    1.8272 C.ar    1  LIG1        0.0502
     15 C          -5.1444   -0.9098   -1.2943 C.ar    1  LIG1       -0.0157
     16 C          -7.3550   -1.9846    0.0248 C.ar    1  LIG1        0.0016
     17 C          -3.9977   -0.3526   -1.9782 C.ar    1  LIG1        0.0120
     18 C         -10.1438   -4.1731    0.6008 C.ar    1  LIG1        0.0767
     19 C          -2.8774   -1.1369   -2.2527 C.ar    1  LIG1        0.0828
     20 C         -10.0664   -2.6620    2.4829 C.ar    1  LIG1        0.1055
     21 C          -8.5026   -2.5425    0.7097 C.ar    1  LIG1        0.0914
     22 C          -0.9299   -3.8929   -1.6644 C.3     1  LIG1       -0.0410
     23 C         -10.0281   -2.8112    4.8561 C.3     1  LIG1        0.0423
     24 C          -1.7819   -2.8341   -0.9976 C.3     1  LIG1        0.0505
     25 N          -7.8027   -0.0530    3.1011 N.1     1  LIG1       -0.1922
     26 N         -12.4055   -5.4408    1.7321 N.ar    1  LIG1       -0.2638
     27 N          -9.0677   -3.5803    0.0492 N.ar    1  LIG1       -0.2460
     28 O         -10.5582   -2.2142    3.6766 O.3     1  LIG1       -0.3471
     29 O          -2.8266   -2.4501   -1.8882 O.3     1  LIG1       -0.3457
     30 H          -2.9457    2.5868   -3.3256 H       1  LIG1        0.0623
     31 H          -0.9535    1.1919   -3.8139 H       1  LIG1        0.0623
     32 H          -4.8881    1.6126   -2.1583 H       1  LIG1        0.0630
     33 H          -6.5200   -0.5070   -2.9160 H       1  LIG1        0.0629
     34 H          -4.0351   -1.4422    0.4864 H       1  LIG1        0.0629
     35 H          -8.4644   -1.4525   -1.7556 H       1  LIG1        0.0630
     36 H          -5.9797   -2.3875    1.6466 H       1  LIG1        0.0630
     37 H          -0.9054   -1.1859   -3.1305 H       1  LIG1        0.0650
     38 H         -10.3932   -5.6174   -0.9815 H       1  LIG1        0.0662
     39 H         -12.3717   -6.6707    0.0807 H       1  LIG1        0.0840
     40 H         -12.2513   -4.1127    3.2825 H       1  LIG1        0.0848
     41 H          -1.5253   -4.7778   -1.9059 H       1  LIG1        0.0254
     42 H          -0.4830   -3.5052   -2.5857 H       1  LIG1        0.0254
     43 H          -0.1034   -4.1911   -1.0107 H       1  LIG1        0.0254
     44 H         -10.5021   -2.3671    5.7348 H       1  LIG1        0.0535
     45 H          -8.9475   -2.6520    4.8921 H       1  LIG1        0.0535
     46 H         -10.2359   -3.8837    4.8358 H       1  LIG1        0.0535
     47 H          -1.1804   -1.9520   -0.7586 H       1  LIG1        0.0569
     48 H          -2.2282   -3.2235   -0.0777 H       1  LIG1        0.0569
@<TRIPOS>BOND
     1     1    13    1
     2     1    25    3
     3     2     3   ar
     4     2     4   ar
     5     3     9   ar
     6     4    17   ar
     7     5     7   ar
     8     5    15   ar
     9     6     8   ar
    10     6    15   ar
    11     7    16   ar
    12     8    16   ar
    13     9    19   ar
    14    10    11   ar
    15    10    18   ar
    16    11    26   ar
    17    12    14   ar
    18    12    26   ar
    19    13    20   ar
    20    13    21   ar
    21    14    18   ar
    22    14    20   ar
    23    15    17    1
    24    16    21    1
    25    17    19   ar
    26    18    27   ar
    27    19    29    1
    28    20    28    1
    29    21    27   ar
    30    22    24    1
    31    23    28    1
    32    24    29    1
    33     2    30    1
    34     3    31    1
    35     4    32    1
    36     5    33    1
    37     6    34    1
    38     7    35    1
    39     8    36    1
    40     9    37    1
    41    10    38    1
    42    11    39    1
    43    12    40    1
    44    22    41    1
    45    22    42    1
    46    22    43    1
    47    23    44    1
    48    23    45    1
    49    23    46    1
    50    24    47    1
    51    24    48    1
