@<TRIPOS>MOLECULE
ChEBML513042
 44 46 0 0 0
SMALL
USER_CHARGES

@<TRIPOS>ATOM
      1 C          -2.3698    0.8971   -3.9046 C.ar    1  LIG1       -0.0622
      2 C         -12.5933   -4.6925    2.2295 C.ar    1  LIG1       -0.0615
      3 C          -1.9741   -0.3779   -3.5006 C.ar    1  LIG1       -0.0620
      4 C          -3.0923    1.7121   -3.0331 C.ar    1  LIG1       -0.0620
      5 C         -11.7927   -5.6751    1.6507 C.ar    1  LIG1       -0.0603
      6 C         -12.1142   -3.3889    2.4036 C.ar    1  LIG1       -0.0530
      7 C          -2.3008   -0.8380   -2.2250 C.ar    1  LIG1       -0.0590
      8 C          -3.4191    1.2519   -1.7576 C.ar    1  LIG1       -0.0590
      9 C         -10.4915   -5.3883    1.2281 C.ar    1  LIG1       -0.0402
     10 C         -10.0141   -1.8935    2.0060 C.ar    1  LIG1       -0.0305
     11 C         -10.8055   -3.0761    1.9854 C.ar    1  LIG1       -0.0025
     12 C          -3.0233   -0.0231   -1.3534 C.ar    1  LIG1       -0.0478
     13 C         -10.0259   -4.0809    1.4085 C.ar    1  LIG1        0.0376
     14 C          -8.7922   -2.1978    1.4517 C.ar    1  LIG1        0.0524
     15 C          -8.3068   -0.7255   -1.0785 C.3     1  LIG1       -0.0451
     16 C          -3.3771   -0.5199    0.0256 C.3     1  LIG1       -0.0229
     17 C          -7.6012   -1.3580    1.2260 C.3     1  LIG1        0.0048
     18 C          -4.7222   -1.2549    0.0948 C.3     1  LIG1       -0.0096
     19 C          -5.9319   -0.4522   -0.3739 C.3     1  LIG1       -0.0339
     20 N          -8.8090   -3.5193    1.0942 N.ar    1  LIG1       -0.3135
     21 N          -7.1964   -1.2507   -0.2098 N.4     1  LIG1        0.2481
     22 H          -2.1142    1.2557   -4.8974 H       1  LIG1        0.0622
     23 H         -13.6015   -4.9400    2.5508 H       1  LIG1        0.0623
     24 H          -1.4106   -1.0122   -4.1786 H       1  LIG1        0.0623
     25 H          -3.3997    2.7052   -3.3470 H       1  LIG1        0.0623
     26 H         -12.1854   -6.6813    1.5251 H       1  LIG1        0.0623
     27 H         -12.7489   -2.6322    2.8558 H       1  LIG1        0.0629
     28 H          -1.9884   -1.8329   -1.9188 H       1  LIG1        0.0625
     29 H          -3.9824    1.8939   -1.0853 H       1  LIG1        0.0625
     30 H          -9.8689   -6.1540    0.7780 H       1  LIG1        0.0642
     31 H         -10.3095   -0.9247    2.3858 H       1  LIG1        0.0648
     32 H          -8.5427    0.2863   -0.7436 H       1  LIG1        0.0777
     33 H          -7.9516   -0.7245   -2.1107 H       1  LIG1        0.0777
     34 H          -9.1659   -1.3885   -0.9597 H       1  LIG1        0.0777
     35 H          -2.5743   -1.1554    0.4179 H       1  LIG1        0.0318
     36 H          -3.4127    0.3463    0.6996 H       1  LIG1        0.0318
     37 H          -7.7472   -0.3183    1.5701 H       1  LIG1        0.0882
     38 H          -6.7101   -1.7397    1.7563 H       1  LIG1        0.0882
     39 H          -4.9073   -1.5839    1.1251 H       1  LIG1        0.0324
     40 H          -4.6452   -2.1686   -0.5085 H       1  LIG1        0.0324
     41 H          -6.0537    0.4495    0.2339 H       1  LIG1        0.0815
     42 H          -5.8663   -0.1637   -1.4266 H       1  LIG1        0.0815
     43 H          -8.0409   -4.0146    0.6621 H       1  LIG1        0.1527
     44 H          -6.9895   -2.2044   -0.5419 H       1  LIG1        0.2004
@<TRIPOS>BOND
     1     1     3   ar
     2     1     4   ar
     3     2     5   ar
     4     2     6   ar
     5     3     7   ar
     6     4     8   ar
     7     5     9   ar
     8     6    11   ar
     9     7    12   ar
    10     8    12   ar
    11     9    13   ar
    12    10    11   ar
    13    10    14   ar
    14    11    13   ar
    15    12    16    1
    16    13    20   ar
    17    14    17    1
    18    14    20   ar
    19    15    21    1
    20    16    18    1
    21    17    21    1
    22    18    19    1
    23    19    21    1
    24     1    22    1
    25     2    23    1
    26     3    24    1
    27     4    25    1
    28     5    26    1
    29     6    27    1
    30     7    28    1
    31     8    29    1
    32     9    30    1
    33    10    31    1
    34    15    32    1
    35    15    33    1
    36    15    34    1
    37    16    35    1
    38    16    36    1
    39    17    37    1
    40    17    38    1
    41    18    39    1
    42    18    40    1
    43    19    41    1
    44    19    42    1
    45    20    43    1
    46    21    44    1
