@<TRIPOS>MOLECULE
ChEBML2078
 49 53 0 0 0
SMALL
USER_CHARGES

@<TRIPOS>ATOM
      1 C           1.1304   -4.1600   -2.9709 C.ar    1  LIG1       -0.0622
      2 C         -12.5394   -4.7147    1.3951 C.ar    1  LIG1       -0.0615
      3 C           0.4145   -3.3971   -3.8934 C.ar    1  LIG1       -0.0619
      4 C           1.2949   -3.7008   -1.6641 C.ar    1  LIG1       -0.0619
      5 C         -11.6798   -5.5305    0.6621 C.ar    1  LIG1       -0.0603
      6 C         -12.0853   -3.5143    1.9536 C.ar    1  LIG1       -0.0530
      7 C          -0.1368   -2.1747   -3.5092 C.ar    1  LIG1       -0.0564
      8 C           0.7435   -2.4785   -1.2798 C.ar    1  LIG1       -0.0564
      9 C         -10.3426   -5.1744    0.4638 C.ar    1  LIG1       -0.0402
     10 C          -4.8672   -2.0747   -2.2602 C.ar    1  LIG1       -0.0376
     11 C          -3.6610   -1.5748   -2.7594 C.ar    1  LIG1       -0.0299
     12 C          -3.3657   -0.1701   -0.8006 C.ar    1  LIG1       -0.0225
     13 C          -9.9603   -2.0183    2.1778 C.ar    1  LIG1       -0.0276
     14 C          -5.3136   -0.4157    0.9169 C.ar    1  LIG1       -0.0275
     15 C         -10.7413   -3.1346    1.7670 C.ar    1  LIG1       -0.0022
     16 C          -4.5788   -0.6598   -0.2771 C.ar    1  LIG1        0.0003
     17 C           0.0277   -1.7154   -2.2024 C.ar    1  LIG1       -0.0190
     18 C          -9.9027   -3.9717    1.0279 C.ar    1  LIG1        0.0378
     19 C          -5.3001   -1.5988   -1.0175 C.ar    1  LIG1        0.0379
     20 C          -2.9202   -0.6372   -2.0426 C.ar    1  LIG1        0.0765
     21 C          -8.6864   -2.1960    1.6896 C.ar    1  LIG1        0.0811
     22 C          -6.4457   -1.1967    0.8788 C.ar    1  LIG1        0.0811
     23 C          -7.4881   -1.2949    1.8509 C.2     1  LIG1        0.2206
     24 C           0.3885    0.7712   -2.0051 C.3     1  LIG1       -0.0339
     25 C          -0.5686   -0.3921   -1.7858 C.3     1  LIG1        0.0864
     26 N          -8.6615   -3.3769    0.9972 N.ar    1  LIG1       -0.3112
     27 N          -6.4286   -1.9068   -0.2916 N.ar    1  LIG1       -0.3112
     28 O          -7.4575   -0.6225    2.9079 O.2     1  LIG1       -0.2856
     29 O          -1.7478   -0.1684   -2.5558 O.3     1  LIG1       -0.3384
     30 H           1.5583   -5.1124   -3.2699 H       1  LIG1        0.0622
     31 H         -13.5752   -5.0126    1.5351 H       1  LIG1        0.0623
     32 H           0.2853   -3.7551   -4.9106 H       1  LIG1        0.0623
     33 H           1.8512   -4.2950   -0.9454 H       1  LIG1        0.0623
     34 H         -12.0536   -6.4585    0.2377 H       1  LIG1        0.0623
     35 H         -12.7665   -2.8875    2.5225 H       1  LIG1        0.0629
     36 H          -0.6928   -1.5869   -4.2347 H       1  LIG1        0.0626
     37 H           0.8769   -2.1285   -0.2596 H       1  LIG1        0.0626
     38 H          -9.6734   -5.8098   -0.1066 H       1  LIG1        0.0642
     39 H          -5.4430   -2.8049   -2.8189 H       1  LIG1        0.0643
     40 H          -3.3018   -1.9284   -3.7232 H       1  LIG1        0.0651
     41 H          -2.7819    0.5606   -0.2474 H       1  LIG1        0.0657
     42 H         -10.2988   -1.1768    2.7678 H       1  LIG1        0.0651
     43 H          -5.0394    0.2602    1.7160 H       1  LIG1        0.0651
     44 H           0.7158    0.8290   -3.0481 H       1  LIG1        0.0260
     45 H           1.2765    0.6897   -1.3682 H       1  LIG1        0.0260
     46 H          -0.0973    1.7164   -1.7390 H       1  LIG1        0.0260
     47 H          -0.8680   -0.4096   -0.7311 H       1  LIG1        0.0658
     48 H          -7.8507   -3.7601    0.5306 H       1  LIG1        0.1529
     49 H          -7.1396   -2.5633   -0.5838 H       1  LIG1        0.1529
@<TRIPOS>BOND
     1     1     3   ar
     2     1     4   ar
     3     2     5   ar
     4     2     6   ar
     5     3     7   ar
     6     4     8   ar
     7     5     9   ar
     8     6    15   ar
     9     7    17   ar
    10     8    17   ar
    11     9    18   ar
    12    10    11   ar
    13    10    19   ar
    14    11    20   ar
    15    12    16   ar
    16    12    20   ar
    17    13    15   ar
    18    13    21   ar
    19    14    16   ar
    20    14    22   ar
    21    15    18   ar
    22    16    19   ar
    23    17    25    1
    24    18    26   ar
    25    19    27   ar
    26    20    29    1
    27    21    23    1
    28    21    26   ar
    29    22    23    1
    30    22    27   ar
    31    23    28    2
    32    24    25    1
    33    25    29    1
    34     1    30    1
    35     2    31    1
    36     3    32    1
    37     4    33    1
    38     5    34    1
    39     6    35    1
    40     7    36    1
    41     8    37    1
    42     9    38    1
    43    10    39    1
    44    11    40    1
    45    12    41    1
    46    13    42    1
    47    14    43    1
    48    24    44    1
    49    24    45    1
    50    24    46    1
    51    25    47    1
    52    26    48    1
    53    27    49    1
