@<TRIPOS>MOLECULE
ChEBML857287
 65 69 0 0 0
SMALL
USER_CHARGES

@<TRIPOS>ATOM
      1 C          -2.1522    0.9444   -3.9612 C.ar    1  LIG1       -0.0595
      2 C          -1.2554    0.3608   -3.0658 C.ar    1  LIG1       -0.0595
      3 C         -10.4442   -5.1851    0.6477 C.ar    1  LIG1       -0.0288
      4 C          -3.5120    0.9990   -3.6539 C.ar    1  LIG1       -0.0291
      5 C          -1.7171   -0.1799   -1.8655 C.ar    1  LIG1       -0.0291
      6 C         -11.7616   -5.5880    0.8859 C.ar    1  LIG1       -0.0369
      7 C         -12.2096   -3.5933    2.2116 C.ar    1  LIG1       -0.0293
      8 C         -10.8888   -3.1685    1.9847 C.ar    1  LIG1        0.0129
      9 C         -10.1043   -2.0455    2.3582 C.ar    1  LIG1       -0.0048
     10 C         -10.0548   -3.9732    1.2153 C.ar    1  LIG1        0.0900
     11 C          -3.9726    0.4709   -2.4476 C.ar    1  LIG1        0.1053
     12 C          -3.0786   -0.1380   -1.5640 C.ar    1  LIG1        0.1058
     13 C         -12.6305   -4.8081    1.6535 C.ar    1  LIG1        0.0552
     14 C          -8.8619   -2.2374    1.7995 C.ar    1  LIG1        0.1480
     15 C          -7.6260   -1.4138    1.8350 C.2     1  LIG1        0.2671
     16 C         -16.3785   -1.8636   -1.9916 C.3     1  LIG1       -0.0532
     17 C         -15.1105   -2.5868   -2.4365 C.3     1  LIG1       -0.0515
     18 C         -16.4571   -1.7476   -0.4720 C.3     1  LIG1       -0.0515
     19 C         -14.9735   -3.9507   -1.7619 C.3     1  LIG1       -0.0333
     20 C         -16.3222   -3.1107    0.2047 C.3     1  LIG1       -0.0333
     21 C          -5.6183    0.3268   -0.8163 C.3     1  LIG1        0.0818
     22 C         -15.0415   -3.8281   -0.2357 C.3     1  LIG1        0.0360
     23 C          -4.8907   -0.9206   -0.3321 C.3     1  LIG1        0.1036
     24 C         -10.5369   -0.8994    3.1815 C.3     1  LIG1       -0.0363
     25 C         -16.2618   -5.9373    0.1149 C.3     1  LIG1        0.0141
     26 C          -5.2598   -1.2540    1.1059 C.3     1  LIG1        0.0406
     27 N          -6.5218   -1.9169    1.1443 N.am    1  LIG1       -0.3069
     28 N         -15.0057   -5.1857    0.3652 N.3     1  LIG1       -0.2769
     29 O          -7.6230   -0.3632    2.4712 O.2     1  LIG1       -0.2695
     30 O         -14.2258   -6.7682    2.2713 O.2     1  LIG1       -0.4762
     31 O         -14.9099   -4.4264    2.8476 O.2     1  LIG1       -0.4762
     32 O          -8.8216   -3.4039    1.1042 O.2     1  LIG1       -0.3039
     33 O          -5.3148    0.5730   -2.1931 O.3     1  LIG1       -0.3405
     34 O          -3.4738   -0.7034   -0.3803 O.3     1  LIG1       -0.3360
     35 S         -14.2699   -5.3533    1.9215 S.O2    1  LIG1       -0.1658
     36 H          -1.7905    1.3606   -4.8970 H       1  LIG1        0.0623
     37 H          -0.1968    0.3233   -3.3059 H       1  LIG1        0.0623
     38 H          -9.7653   -5.7850    0.0537 H       1  LIG1        0.0651
     39 H          -4.2024    1.4632   -4.3529 H       1  LIG1        0.0651
     40 H          -1.0132   -0.6406   -1.1778 H       1  LIG1        0.0651
     41 H         -12.1054   -6.5283    0.4603 H       1  LIG1        0.0643
     42 H         -12.8893   -2.9902    2.8068 H       1  LIG1        0.0649
     43 H         -16.4096   -0.8640   -2.4400 H       1  LIG1        0.0266
     44 H         -17.2568   -2.4072   -2.3613 H       1  LIG1        0.0266
     45 H         -15.1211   -2.7138   -3.5248 H       1  LIG1        0.0267
     46 H         -14.2353   -1.9713   -2.1948 H       1  LIG1        0.0267
     47 H         -15.6604   -1.0835   -0.1149 H       1  LIG1        0.0267
     48 H         -17.4093   -1.2868   -0.1860 H       1  LIG1        0.0267
     49 H         -15.7696   -4.6155   -2.1226 H       1  LIG1        0.0286
     50 H         -14.0247   -4.4141   -2.0583 H       1  LIG1        0.0286
     51 H         -16.3241   -2.9824    1.2939 H       1  LIG1        0.0286
     52 H         -17.1998   -3.7245   -0.0368 H       1  LIG1        0.0286
     53 H          -6.7029    0.1979   -0.7381 H       1  LIG1        0.0600
     54 H          -5.3392    1.2151   -0.2351 H       1  LIG1        0.0600
     55 H         -14.1660   -3.2763    0.1271 H       1  LIG1        0.0519
     56 H          -5.1244   -1.7801   -0.9746 H       1  LIG1        0.0650
     57 H         -10.3493   -1.0856    4.2517 H       1  LIG1        0.0281
     58 H         -10.0105    0.0303    2.9058 H       1  LIG1        0.0281
     59 H         -11.6132   -0.6869    3.0620 H       1  LIG1        0.0281
     60 H         -16.2027   -6.9298    0.5693 H       1  LIG1        0.0446
     61 H         -16.4262   -6.0516   -0.9599 H       1  LIG1        0.0446
     62 H         -17.1136   -5.4036    0.5450 H       1  LIG1        0.0446
     63 H          -5.3242   -0.3343    1.6757 H       1  LIG1        0.0495
     64 H          -4.5037   -1.9059    1.5268 H       1  LIG1        0.0495
     65 H          -6.5976   -2.8328    0.6936 H       1  LIG1        0.1498
@<TRIPOS>BOND
     1     1     2   ar
     2     1     4   ar
     3     2     5   ar
     4     3     6   ar
     5     3    10   ar
     6     4    11   ar
     7     5    12   ar
     8     6    13   ar
     9     7     8   ar
    10     7    13   ar
    11     8     9   ar
    12     8    10   ar
    13     9    14   ar
    14     9    24    1
    15    10    32   ar
    16    11    12   ar
    17    11    33    1
    18    12    34    1
    19    13    35    1
    20    14    15    1
    21    14    32   ar
    22    15    27   am
    23    15    29    2
    24    16    17    1
    25    16    18    1
    26    17    19    1
    27    18    20    1
    28    19    22    1
    29    20    22    1
    30    21    23    1
    31    21    33    1
    32    22    28    1
    33    23    26    1
    34    23    34    1
    35    25    28    1
    36    26    27    1
    37    28    35    1
    38    30    35    2
    39    31    35    2
    40     1    36    1
    41     2    37    1
    42     3    38    1
    43     4    39    1
    44     5    40    1
    45     6    41    1
    46     7    42    1
    47    16    43    1
    48    16    44    1
    49    17    45    1
    50    17    46    1
    51    18    47    1
    52    18    48    1
    53    19    49    1
    54    19    50    1
    55    20    51    1
    56    20    52    1
    57    21    53    1
    58    21    54    1
    59    22    55    1
    60    23    56    1
    61    24    57    1
    62    24    58    1
    63    24    59    1
    64    25    60    1
    65    25    61    1
    66    25    62    1
    67    26    63    1
    68    26    64    1
    69    27    65    1
