@<TRIPOS>MOLECULE
ChEBML234135
 45 48 0 0 0
SMALL
USER_CHARGES

@<TRIPOS>ATOM
      1 C         -14.1721   -4.6431    0.7093 C.1     1  LIG1        0.0991
      2 C         -11.8986   -5.2275    0.0376 C.ar    1  LIG1       -0.0425
      3 C         -10.5163   -5.0218    0.0670 C.ar    1  LIG1       -0.0389
      4 C          -4.1300    0.8909   -2.3636 C.ar    1  LIG1       -0.0394
      5 C          -2.3762   -0.6258   -1.6843 C.ar    1  LIG1       -0.0394
      6 C          -3.3195    1.3664   -3.3944 C.ar    1  LIG1       -0.0417
      7 C          -1.5657   -0.1502   -2.7151 C.ar    1  LIG1       -0.0417
      8 C         -12.2676   -3.3548    1.5388 C.ar    1  LIG1       -0.0352
      9 C         -10.0487   -2.1804    2.2471 C.ar    1  LIG1       -0.0304
     10 C         -12.7625   -4.4081    0.7613 C.ar    1  LIG1        0.0527
     11 C         -10.8777   -3.1281    1.5840 C.ar    1  LIG1       -0.0012
     12 C         -10.0358   -3.9651    0.8486 C.ar    1  LIG1        0.0377
     13 C          -3.6584   -0.1052   -1.5085 C.ar    1  LIG1        0.0290
     14 C          -2.0374    0.8460   -3.5701 C.ar    1  LIG1        0.0407
     15 C          -8.7441   -2.4554    1.9081 C.ar    1  LIG1        0.0524
     16 C          -5.3125   -1.7172   -0.8455 C.3     1  LIG1        0.0509
     17 C          -5.0975    0.4683    0.3261 C.3     1  LIG1        0.0509
     18 C          -5.9604   -2.3167    0.3952 C.3     1  LIG1       -0.0177
     19 C          -5.7510   -0.1350    1.5630 C.3     1  LIG1       -0.0177
     20 C          -7.4642   -1.7850    2.3124 C.3     1  LIG1        0.0052
     21 N         -15.3160   -4.8338    0.6671 N.1     1  LIG1       -0.1924
     22 N          -8.7464   -3.5334    1.0639 N.ar    1  LIG1       -0.3135
     23 N          -4.4622   -0.5750   -0.4851 N.pl3   1  LIG1       -0.3203
     24 N          -6.6938   -1.2340    1.1454 N.4     1  LIG1        0.2525
     25 CL         -1.0378    1.4330   -4.8419 Cl      1  LIG1       -0.0843
     26 H         -12.2895   -6.0451   -0.5654 H       1  LIG1        0.0637
     27 H          -9.8446   -5.6603   -0.4969 H       1  LIG1        0.0643
     28 H          -5.1270    1.3039   -2.2345 H       1  LIG1        0.0643
     29 H          -1.9985   -1.4011   -1.0227 H       1  LIG1        0.0643
     30 H          -3.6997    2.1443   -4.0517 H       1  LIG1        0.0639
     31 H          -0.5682   -0.5642   -2.8386 H       1  LIG1        0.0639
     32 H         -12.9399   -2.7141    2.1044 H       1  LIG1        0.0643
     33 H         -10.3749   -1.3834    2.9017 H       1  LIG1        0.0648
     34 H          -4.7146   -2.4937   -1.3387 H       1  LIG1        0.0524
     35 H          -6.0859   -1.3950   -1.5551 H       1  LIG1        0.0524
     36 H          -5.8492    0.9991   -0.2728 H       1  LIG1        0.0524
     37 H          -4.3518    1.2054    0.6486 H       1  LIG1        0.0524
     38 H          -6.6910   -3.0838    0.1186 H       1  LIG1        0.0831
     39 H          -5.2164   -2.7458    1.0763 H       1  LIG1        0.0831
     40 H          -5.0101   -0.5750    2.2406 H       1  LIG1        0.0831
     41 H          -6.3360    0.6197    2.0988 H       1  LIG1        0.0831
     42 H          -7.6540   -0.9447    2.9889 H       1  LIG1        0.0882
     43 H          -6.7971   -2.4843    2.8278 H       1  LIG1        0.0882
     44 H          -7.9227   -3.9539    0.6558 H       1  LIG1        0.1527
     45 H          -7.3861   -0.8236    0.5035 H       1  LIG1        0.2009
@<TRIPOS>BOND
     1     1    10    1
     2     1    21    3
     3     2     3   ar
     4     2    10   ar
     5     3    12   ar
     6     4     6   ar
     7     4    13   ar
     8     5     7   ar
     9     5    13   ar
    10     6    14   ar
    11     7    14   ar
    12     8    10   ar
    13     8    11   ar
    14     9    11   ar
    15     9    15   ar
    16    11    12   ar
    17    12    22   ar
    18    13    23    1
    19    14    25    1
    20    15    20    1
    21    15    22   ar
    22    16    18    1
    23    16    23    1
    24    17    19    1
    25    17    23    1
    26    18    24    1
    27    19    24    1
    28    20    24    1
    29     2    26    1
    30     3    27    1
    31     4    28    1
    32     5    29    1
    33     6    30    1
    34     7    31    1
    35     8    32    1
    36     9    33    1
    37    16    34    1
    38    16    35    1
    39    17    36    1
    40    17    37    1
    41    18    38    1
    42    18    39    1
    43    19    40    1
    44    19    41    1
    45    20    42    1
    46    20    43    1
    47    22    44    1
    48    24    45    1
