@<TRIPOS>MOLECULE
ChEBML833438
 51 54 0 0 0
SMALL
USER_CHARGES

@<TRIPOS>ATOM
      1 C         -11.1878   -3.2738    1.8140 C.ar    1  LIG1       -0.0303
      2 C          -9.8640   -5.0187    0.7942 C.ar    1  LIG1       -0.0303
      3 C         -12.3079   -4.1043    1.7811 C.ar    1  LIG1       -0.0409
      4 C         -10.9842   -5.8493    0.7613 C.ar    1  LIG1       -0.0409
      5 C          -3.4313    1.3974   -2.9895 C.ar    1  LIG1        0.1185
      6 C          -2.6554   -0.8522   -1.7799 C.ar    1  LIG1        0.0512
      7 C          -2.0100   -2.0515   -1.3424 C.ar    1  LIG1       -0.0280
      8 C          -9.9658   -3.7310    1.3205 C.ar    1  LIG1        0.0753
      9 C         -12.2062   -5.3920    1.2548 C.ar    1  LIG1        0.0408
     10 C          -0.8925   -2.3524   -2.0905 C.ar    1  LIG1       -0.0080
     11 C          -3.7924   -0.1671   -1.3396 C.ar    1  LIG1        0.1325
     12 C          -1.9818   -0.2934   -2.8584 C.ar    1  LIG1        0.1133
     13 C          -5.6265   -1.5520   -0.6383 C.3     1  LIG1        0.0523
     14 C          -4.8662    0.3776    0.7379 C.3     1  LIG1        0.0523
     15 C          -6.2205   -2.2019    0.6041 C.3     1  LIG1       -0.0180
     16 C          -5.4667   -0.2745    1.9769 C.3     1  LIG1       -0.0180
     17 C          -2.4752   -2.8935   -0.2103 C.3     1  LIG1       -0.0382
     18 C           0.0370   -3.4965   -1.9546 C.3     1  LIG1       -0.0330
     19 C          -7.3552   -1.6986    2.7672 C.3     1  LIG1       -0.0096
     20 C          -8.8035   -1.9624    2.4056 C.3     1  LIG1        0.0922
     21 N          -4.1810    0.9704   -1.9545 N.ar    1  LIG1       -0.2208
     22 N          -2.3245    0.8361   -3.5080 N.ar    1  LIG1       -0.2289
     23 N          -4.5402   -0.6333   -0.2731 N.pl3   1  LIG1       -0.3047
     24 N          -6.6421   -1.1273    1.5739 N.4     1  LIG1        0.2500
     25 O          -8.8652   -2.9149    1.3522 O.3     1  LIG1       -0.3406
     26 S          -0.6136   -1.1978   -3.3214 S.2     1  LIG1       -0.0738
     27 CL        -13.5884   -6.4163    1.2128 Cl      1  LIG1       -0.0843
     28 H         -11.2739   -2.2718    2.2249 H       1  LIG1        0.0651
     29 H          -8.9151   -5.3803    0.4080 H       1  LIG1        0.0651
     30 H         -13.2542   -3.7346    2.1682 H       1  LIG1        0.0639
     31 H         -10.8906   -6.8501    0.3474 H       1  LIG1        0.0639
     32 H          -3.7644    2.3127   -3.4661 H       1  LIG1        0.1063
     33 H          -5.2487   -2.3412   -1.3001 H       1  LIG1        0.0524
     34 H          -6.4059   -1.0062   -1.1861 H       1  LIG1        0.0524
     35 H          -5.5719    1.1075    0.3200 H       1  LIG1        0.0524
     36 H          -3.9621    0.9243    1.0334 H       1  LIG1        0.0524
     37 H          -7.1097   -2.7869    0.3479 H       1  LIG1        0.0831
     38 H          -5.4932   -2.8428    1.1158 H       1  LIG1        0.0831
     39 H          -4.7449   -0.9251    2.4841 H       1  LIG1        0.0831
     40 H          -5.8308    0.4853    2.6761 H       1  LIG1        0.0831
     41 H          -3.1777   -3.6620   -0.5618 H       1  LIG1        0.0280
     42 H          -1.6357   -3.3988    0.2894 H       1  LIG1        0.0280
     43 H          -2.9811   -2.2922    0.5594 H       1  LIG1        0.0280
     44 H          -0.2972   -4.3490   -2.5655 H       1  LIG1        0.0285
     45 H           1.0592   -3.2335   -2.2705 H       1  LIG1        0.0285
     46 H           0.1156   -3.8384   -0.9100 H       1  LIG1        0.0285
     47 H          -6.8233   -2.6161    3.0340 H       1  LIG1        0.0839
     48 H          -7.2665   -0.9604    3.5686 H       1  LIG1        0.0839
     49 H          -9.3321   -2.3790    3.2687 H       1  LIG1        0.0628
     50 H          -9.3144   -1.0474    2.0883 H       1  LIG1        0.0628
     51 H          -7.3176   -0.5188    1.0911 H       1  LIG1        0.2005
@<TRIPOS>BOND
     1     1     3   ar
     2     1     8   ar
     3     2     4   ar
     4     2     8   ar
     5     3     9   ar
     6     4     9   ar
     7     5    21   ar
     8     5    22   ar
     9     6     7   ar
    10     6    11   ar
    11     6    12   ar
    12     7    10   ar
    13     7    17    1
    14     8    25    1
    15     9    27    1
    16    10    18    1
    17    10    26   ar
    18    11    21   ar
    19    11    23    1
    20    12    22   ar
    21    12    26   ar
    22    13    15    1
    23    13    23    1
    24    14    16    1
    25    14    23    1
    26    15    24    1
    27    16    24    1
    28    19    20    1
    29    19    24    1
    30    20    25    1
    31     1    28    1
    32     2    29    1
    33     3    30    1
    34     4    31    1
    35     5    32    1
    36    13    33    1
    37    13    34    1
    38    14    35    1
    39    14    36    1
    40    15    37    1
    41    15    38    1
    42    16    39    1
    43    16    40    1
    44    17    41    1
    45    17    42    1
    46    17    43    1
    47    18    44    1
    48    18    45    1
    49    18    46    1
    50    19    47    1
    51    19    48    1
    52    20    49    1
    53    20    50    1
    54    24    51    1
