@<TRIPOS>MOLECULE
ChEBML418033
 53 57 0 0 0
SMALL
USER_CHARGES

@<TRIPOS>ATOM
      1 C          -4.1393    3.2545   -3.6040 C.ar    1  LIG1       -0.0600
      2 C          -5.1004    2.9279   -2.6583 C.ar    1  LIG1       -0.0602
      3 C          -3.0771    2.4261   -3.8332 C.ar    1  LIG1       -0.0344
      4 C          -5.0025    1.7560   -1.9384 C.ar    1  LIG1       -0.0383
      5 C         -10.4222   -5.1322    0.5054 C.ar    1  LIG1       -0.0376
      6 C         -11.7478   -5.4426    0.7048 C.ar    1  LIG1       -0.0299
      7 C         -12.0793   -3.4089    1.9455 C.ar    1  LIG1       -0.0226
      8 C          -9.9316   -1.9828    2.1530 C.ar    1  LIG1       -0.0261
      9 C         -10.7299   -3.0823    1.7548 C.ar    1  LIG1        0.0004
     10 C          -2.9591    1.2317   -3.1182 C.ar    1  LIG1        0.0868
     11 C          -9.8971   -3.9527    1.0256 C.ar    1  LIG1        0.0380
     12 C          -3.9342    0.8988   -2.1624 C.ar    1  LIG1        0.0605
     13 C         -12.5767   -4.5849    1.4261 C.ar    1  LIG1        0.0753
     14 C          -8.6748   -2.1906    1.6799 C.ar    1  LIG1        0.0947
     15 C          -2.3963   -0.6824   -2.2554 C.ar    1  LIG1        0.2078
     16 C          -7.5315   -1.2857    1.8712 C.2     1  LIG1        0.2598
     17 C          -4.3983   -0.2004    0.6598 C.3     1  LIG1       -0.0181
     18 C          -5.6353   -1.4738   -1.1006 C.3     1  LIG1       -0.0181
     19 C          -5.1023   -1.0052    1.7568 C.3     1  LIG1        0.0162
     20 C          -6.3526   -2.2978   -0.0207 C.3     1  LIG1        0.0162
     21 C          -4.2499   -1.0706   -0.5903 C.3     1  LIG1        0.0323
     22 C         -14.0964   -6.1646    0.9683 C.3     1  LIG1        0.0422
     23 C          -1.6313   -1.9512   -1.9797 C.3     1  LIG1        0.4472
     24 N          -2.0516    0.2215   -3.1254 N.ar    1  LIG1       -0.2267
     25 N          -8.6421   -3.3876    0.9917 N.ar    1  LIG1       -0.3101
     26 N          -3.5474   -0.3151   -1.6305 N.ar    1  LIG1       -0.2764
     27 N          -6.3719   -1.5192    1.2253 N.am    1  LIG1       -0.2966
     28 O          -7.6324   -0.3265    2.6123 O.2     1  LIG1       -0.2702
     29 O         -13.8843   -4.9074    1.6137 O.3     1  LIG1       -0.3493
     30 F          -0.3586   -1.8626   -2.5539 F       1  LIG1       -0.1633
     31 F          -1.5080   -2.1305   -0.5978 F       1  LIG1       -0.1633
     32 F          -2.3172   -3.0385   -2.5318 F       1  LIG1       -0.1633
     33 H          -4.2287    4.1755   -4.1610 H       1  LIG1        0.0623
     34 H          -5.9311    3.5959   -2.4852 H       1  LIG1        0.0623
     35 H          -2.3353    2.6894   -4.5726 H       1  LIG1        0.0646
     36 H          -5.7538    1.5061   -1.2039 H       1  LIG1        0.0643
     37 H          -9.7889   -5.8041   -0.0548 H       1  LIG1        0.0643
     38 H         -12.1497   -6.3593    0.2992 H       1  LIG1        0.0651
     39 H         -12.7253   -2.7447    2.5005 H       1  LIG1        0.0657
     40 H         -10.2622   -1.1316    2.7297 H       1  LIG1        0.0651
     41 H          -4.9901    0.6829    0.4199 H       1  LIG1        0.0302
     42 H          -3.4122    0.1056    1.0092 H       1  LIG1        0.0302
     43 H          -6.2155   -0.5785   -1.3238 H       1  LIG1        0.0302
     44 H          -5.5296   -2.0741   -2.0042 H       1  LIG1        0.0302
     45 H          -5.2990   -0.3608    2.6136 H       1  LIG1        0.0470
     46 H          -4.4696   -1.8388    2.0616 H       1  LIG1        0.0470
     47 H          -5.8197   -3.2347    0.1421 H       1  LIG1        0.0470
     48 H          -7.3746   -2.5066   -0.3369 H       1  LIG1        0.0470
     49 H          -3.6790   -1.9660   -0.3439 H       1  LIG1        0.0511
     50 H         -13.8695   -6.0708   -0.0936 H       1  LIG1        0.0535
     51 H         -13.4448   -6.9163    1.4141 H       1  LIG1        0.0535
     52 H         -15.1366   -6.4659    1.0925 H       1  LIG1        0.0535
     53 H          -7.8632   -3.7675    0.5560 H       1  LIG1        0.1529
@<TRIPOS>BOND
     1     1     2   ar
     2     1     3   ar
     3     2     4   ar
     4     3    10   ar
     5     4    12   ar
     6     5     6   ar
     7     5    11   ar
     8     6    13   ar
     9     7     9   ar
    10     7    13   ar
    11     8     9   ar
    12     8    14   ar
    13     9    11   ar
    14    10    12   ar
    15    10    24   ar
    16    11    25   ar
    17    12    26   ar
    18    13    29    1
    19    14    16    1
    20    14    25   ar
    21    15    23    1
    22    15    24   ar
    23    15    26   ar
    24    16    27   am
    25    16    28    2
    26    17    19    1
    27    17    21    1
    28    18    20    1
    29    18    21    1
    30    19    27    1
    31    20    27    1
    32    21    26    1
    33    22    29    1
    34    23    30    1
    35    23    31    1
    36    23    32    1
    37     1    33    1
    38     2    34    1
    39     3    35    1
    40     4    36    1
    41     5    37    1
    42     6    38    1
    43     7    39    1
    44     8    40    1
    45    17    41    1
    46    17    42    1
    47    18    43    1
    48    18    44    1
    49    19    45    1
    50    19    46    1
    51    20    47    1
    52    20    48    1
    53    21    49    1
    54    22    50    1
    55    22    51    1
    56    22    52    1
    57    25    53    1
