@<TRIPOS>MOLECULE
ChEBML368810
 55 60 0 0 0
SMALL
USER_CHARGES

@<TRIPOS>ATOM
      1 C          -6.5297   -1.6248   -0.5783 C.ar    1  LIG1       -0.0488
      2 C         -11.7185   -5.8297    1.1612 C.ar    1  LIG1       -0.0519
      3 C         -10.4266   -5.4320    0.8936 C.ar    1  LIG1       -0.0397
      4 C          -5.4670   -1.2010   -1.3217 C.ar    1  LIG1       -0.0378
      5 C          -2.1461    0.4779   -3.2914 C.ar    1  LIG1       -0.0260
      6 C         -12.2316   -3.6973    2.1152 C.ar    1  LIG1       -0.0446
      7 C         -10.2007   -2.0254    2.0905 C.ar    1  LIG1       -0.0293
      8 C          -4.9561    0.5004    0.3084 C.ar    1  LIG1       -0.0150
      9 C          -1.7819    1.3706   -2.2775 C.ar    1  LIG1        0.0470
     10 C          -3.2568   -0.1811   -2.8872 C.ar    1  LIG1        0.0218
     11 C          -6.8276   -0.9952    0.6324 C.ar    1  LIG1        0.0266
     12 C         -10.9243   -3.2741    1.8580 C.ar    1  LIG1       -0.0018
     13 C         -12.6145   -4.9630    1.7725 C.ar    1  LIG1       -0.0035
     14 C         -10.0124   -4.1496    1.2382 C.ar    1  LIG1        0.0377
     15 C          -6.0336    0.0765    1.0807 C.ar    1  LIG1        0.0589
     16 C          -4.6725   -0.1421   -0.8826 C.ar    1  LIG1        0.0577
     17 C          -7.8668   -1.1913    1.6508 C.ar    1  LIG1        0.1116
     18 C          -8.9409   -2.2045    1.6183 C.ar    1  LIG1        0.0593
     19 C         -16.7434   -5.8138   -1.2011 C.3     1  LIG1       -0.0434
     20 C         -15.2686   -5.5139   -1.4842 C.3     1  LIG1       -0.0134
     21 C         -17.1769   -5.0524    0.0550 C.3     1  LIG1       -0.0134
     22 C         -14.4326   -5.8917   -0.2595 C.3     1  LIG1       -0.0340
     23 C         -16.2702   -5.4473    1.2227 C.3     1  LIG1       -0.0340
     24 C         -14.0224   -5.4203    2.0546 C.3     1  LIG1       -0.0083
     25 N          -2.6463    1.2568   -1.3013 N.ar    1  LIG1       -0.1852
     26 N          -7.6638   -0.3057    2.5981 N.ar    1  LIG1       -0.1816
     27 N          -8.8180   -3.4755    1.1051 N.ar    1  LIG1       -0.3126
     28 N          -6.5538    0.4843    2.2829 N.ar    1  LIG1       -0.2372
     29 N          -3.5841    0.2794   -1.6585 N.ar    1  LIG1       -0.2012
     30 N         -14.8780   -5.1113    0.9011 N.4     1  LIG1        0.2493
     31 H          -7.1393   -2.4459   -0.9253 H       1  LIG1        0.0631
     32 H         -12.0373   -6.8261    0.8929 H       1  LIG1        0.0628
     33 H          -9.7375   -6.1141    0.4181 H       1  LIG1        0.0643
     34 H          -5.2389   -1.6896   -2.2575 H       1  LIG1        0.0643
     35 H          -1.6315    0.3390   -4.2307 H       1  LIG1        0.0653
     36 H         -12.9355   -3.0273    2.5865 H       1  LIG1        0.0635
     37 H         -10.5936   -1.1308    2.5507 H       1  LIG1        0.0650
     38 H          -4.3367    1.3190    0.6440 H       1  LIG1        0.0664
     39 H          -0.9359    2.0417   -2.2987 H       1  LIG1        0.0857
     40 H          -3.7867   -0.9386   -3.4454 H       1  LIG1        0.0814
     41 H         -17.3496   -5.4940   -2.0485 H       1  LIG1        0.0271
     42 H         -16.8735   -6.8842   -1.0415 H       1  LIG1        0.0271
     43 H         -15.1470   -4.4512   -1.6940 H       1  LIG1        0.0320
     44 H         -14.9375   -6.0956   -2.3444 H       1  LIG1        0.0320
     45 H         -17.0949   -3.9801   -0.1230 H       1  LIG1        0.0320
     46 H         -18.2099   -5.3042    0.2948 H       1  LIG1        0.0320
     47 H         -13.3820   -5.6797   -0.4577 H       1  LIG1        0.0814
     48 H         -14.5547   -6.9546   -0.0506 H       1  LIG1        0.0814
     49 H         -16.3532   -6.5196    1.3999 H       1  LIG1        0.0814
     50 H         -16.5763   -4.9072    2.1185 H       1  LIG1        0.0814
     51 H         -14.4019   -4.9048    2.9369 H       1  LIG1        0.0869
     52 H         -14.0265   -6.4957    2.2323 H       1  LIG1        0.0869
     53 H          -8.0117   -3.8419    0.7094 H       1  LIG1        0.1528
     54 H          -6.2061    1.2070    2.8287 H       1  LIG1        0.1755
     55 H         -14.8112   -4.1274    0.6880 H       1  LIG1        0.2007
@<TRIPOS>BOND
     1     1     4   ar
     2     1    11   ar
     3     2     3   ar
     4     2    13   ar
     5     3    14   ar
     6     4    16   ar
     7     5     9   ar
     8     5    10   ar
     9     6    12   ar
    10     6    13   ar
    11     7    12   ar
    12     7    18   ar
    13     8    15   ar
    14     8    16   ar
    15     9    25   ar
    16    10    29   ar
    17    11    15   ar
    18    11    17   ar
    19    12    14   ar
    20    13    24    1
    21    14    27   ar
    22    15    28   ar
    23    16    29    1
    24    17    18    1
    25    17    26   ar
    26    18    27   ar
    27    19    20    1
    28    19    21    1
    29    20    22    1
    30    21    23    1
    31    22    30    1
    32    23    30    1
    33    24    30    1
    34    25    29   ar
    35    26    28   ar
    36     1    31    1
    37     2    32    1
    38     3    33    1
    39     4    34    1
    40     5    35    1
    41     6    36    1
    42     7    37    1
    43     8    38    1
    44     9    39    1
    45    10    40    1
    46    19    41    1
    47    19    42    1
    48    20    43    1
    49    20    44    1
    50    21    45    1
    51    21    46    1
    52    22    47    1
    53    22    48    1
    54    23    49    1
    55    23    50    1
    56    24    51    1
    57    24    52    1
    58    27    53    1
    59    28    54    1
    60    30    55    1
