@<TRIPOS>MOLECULE
ChEBML232488
 37 39 0 0 0
SMALL
USER_CHARGES

@<TRIPOS>ATOM
      1 C          -4.2337   -3.2163    0.8672 C.ar    1  LIG1       -0.0547
      2 C          -5.4636   -2.8700    1.4268 C.ar    1  LIG1       -0.0502
      3 C         -10.3296   -5.1540    0.4366 C.ar    1  LIG1       -0.0376
      4 C          -3.6423   -2.3860   -0.0849 C.ar    1  LIG1        0.0154
      5 C         -11.6661   -5.4822    0.6820 C.ar    1  LIG1       -0.0299
      6 C         -11.9966   -3.4363    1.9475 C.ar    1  LIG1       -0.0226
      7 C          -9.8398   -1.9749    2.0794 C.ar    1  LIG1       -0.0275
      8 C         -10.6525   -3.0842    1.7132 C.ar    1  LIG1        0.0003
      9 C          -6.1021   -1.6937    1.0341 C.ar    1  LIG1        0.0335
     10 C          -5.5107   -0.8635    0.0819 C.ar    1  LIG1        0.0371
     11 C          -9.8516   -3.9495    0.9648 C.ar    1  LIG1        0.0379
     12 C          -4.2807   -1.2097   -0.4776 C.ar    1  LIG1        0.2666
     13 C         -12.4885   -4.6381    1.4254 C.ar    1  LIG1        0.0753
     14 C          -8.5847   -2.1845    1.5562 C.ar    1  LIG1        0.0797
     15 C          -7.4308   -1.3482    1.6580 C.2     1  LIG1        0.2071
     16 C          -6.2008    0.3983   -0.3359 C.3     1  LIG1       -0.0323
     17 C         -14.5777   -4.0805    2.4154 C.3     1  LIG1        0.0422
     18 N          -8.6017   -3.3779    0.8854 N.ar    1  LIG1       -0.3112
     19 N          -3.6568   -0.3802   -1.4505 N.pl3   1  LIG1        0.1025
     20 O          -7.4666   -0.2635    2.2846 O.2     1  LIG1       -0.2871
     21 O          -2.5513   -0.7312   -1.9260 O.2     1  LIG1        0.0314
     22 O          -4.2313    0.6766   -1.8032 O.2     1  LIG1       -0.5803
     23 O         -13.7875   -4.9858    1.6477 O.3     1  LIG1       -0.3493
     24 H          -3.7365   -4.1322    1.1731 H       1  LIG1        0.0625
     25 H          -5.9142   -3.5253    2.1680 H       1  LIG1        0.0630
     26 H          -9.6902   -5.8117   -0.1426 H       1  LIG1        0.0643
     27 H          -2.6833   -2.6690   -0.5122 H       1  LIG1        0.0695
     28 H         -12.0626   -6.4130    0.2827 H       1  LIG1        0.0651
     29 H         -12.6445   -2.7830    2.5256 H       1  LIG1        0.0657
     30 H         -10.1451   -1.1170    2.6638 H       1  LIG1        0.0651
     31 H          -5.8894    1.2275    0.3072 H       1  LIG1        0.0282
     32 H          -5.9635    0.6493   -1.3755 H       1  LIG1        0.0282
     33 H          -7.2892    0.2901   -0.2706 H       1  LIG1        0.0282
     34 H         -15.5908   -4.4768    2.5179 H       1  LIG1        0.0535
     35 H         -14.6042   -3.1073    1.9189 H       1  LIG1        0.0535
     36 H         -14.1302   -3.9699    3.4059 H       1  LIG1        0.0535
     37 H          -7.8129   -3.7836    0.4007 H       1  LIG1        0.1529
@<TRIPOS>BOND
     1     1     2   ar
     2     1     4   ar
     3     2     9   ar
     4     3     5   ar
     5     3    11   ar
     6     4    12   ar
     7     5    13   ar
     8     6     8   ar
     9     6    13   ar
    10     7     8   ar
    11     7    14   ar
    12     8    11   ar
    13     9    10   ar
    14     9    15    1
    15    10    12   ar
    16    10    16    1
    17    11    18   ar
    18    12    19    1
    19    13    23    1
    20    14    15    1
    21    14    18   ar
    22    15    20    2
    23    17    23    1
    24    19    21    2
    25    19    22    2
    26     1    24    1
    27     2    25    1
    28     3    26    1
    29     4    27    1
    30     5    28    1
    31     6    29    1
    32     7    30    1
    33    16    31    1
    34    16    32    1
    35    16    33    1
    36    17    34    1
    37    17    35    1
    38    17    36    1
    39    18    37    1
