@<TRIPOS>MOLECULE
ChEBML704564
 42 45 0 0 0
SMALL
USER_CHARGES

@<TRIPOS>ATOM
      1 C         -12.2293   -5.2319    1.6255 C.ar    1  LIG1       -0.0621
      2 C         -11.9000   -4.0643    2.3138 C.ar    1  LIG1       -0.0604
      3 C         -11.3339   -5.7741    0.7035 C.ar    1  LIG1       -0.0604
      4 C          -5.8768   -1.0101    1.8360 C.ar    1  LIG1       -0.0471
      5 C          -6.3223   -2.0979   -0.2747 C.ar    1  LIG1       -0.0471
      6 C         -10.6754   -3.4386    2.0801 C.ar    1  LIG1       -0.0407
      7 C         -10.1093   -5.1486    0.4698 C.ar    1  LIG1       -0.0407
      8 C          -4.6274   -0.6071    1.3646 C.ar    1  LIG1       -0.0304
      9 C          -5.0728   -1.6950   -0.7461 C.ar    1  LIG1       -0.0304
     10 C          -0.8875   -0.3598   -4.5789 C.ar    1  LIG1       -0.0201
     11 C          -0.2462   -1.2441   -3.7389 C.ar    1  LIG1       -0.0021
     12 C          -3.7978    1.3772   -3.2743 C.ar    1  LIG1        0.1187
     13 C          -6.7243   -1.7555    1.0163 C.ar    1  LIG1        0.0375
     14 C          -1.9772    0.1864   -3.8583 C.ar    1  LIG1        0.0920
     15 C          -1.9703   -0.3838   -2.5887 C.ar    1  LIG1        0.1094
     16 C          -9.7800   -3.9809    1.1580 C.ar    1  LIG1        0.0328
     17 C          -4.2254   -0.9496    0.0736 C.ar    1  LIG1        0.0841
     18 C          -2.9333   -0.0294   -1.6601 C.ar    1  LIG1        0.1977
     19 C          -8.0271   -2.1756    1.5074 C.2     1  LIG1        0.2472
     20 C          -0.5252   -2.0631   -1.4035 C.3     1  LIG1        0.0049
     21 N          -2.9044    1.0969   -4.2449 N.ar    1  LIG1       -0.2347
     22 N          -3.8683    0.8764   -2.0208 N.ar    1  LIG1       -0.2105
     23 N          -0.9093   -1.2512   -2.5375 N.ar    1  LIG1       -0.3050
     24 N          -8.5354   -3.3449    0.9207 N.am    1  LIG1       -0.2813
     25 O          -8.6458   -1.5189    2.3565 O.2     1  LIG1       -0.2715
     26 O          -2.9894   -0.5513   -0.3928 O.3     1  LIG1       -0.2899
     27 H         -13.1824   -5.7198    1.8078 H       1  LIG1        0.0622
     28 H         -12.5965   -3.6423    3.0323 H       1  LIG1        0.0623
     29 H         -11.5902   -6.6839    0.1685 H       1  LIG1        0.0623
     30 H          -6.1795   -0.7371    2.8437 H       1  LIG1        0.0632
     31 H          -6.9753   -2.6783   -0.9215 H       1  LIG1        0.0632
     32 H         -10.4296   -2.5291    2.6225 H       1  LIG1        0.0642
     33 H          -9.4194   -5.5802   -0.2511 H       1  LIG1        0.0642
     34 H          -3.9717   -0.0268    2.0081 H       1  LIG1        0.0651
     35 H          -4.7649   -1.9649   -1.7526 H       1  LIG1        0.0651
     36 H          -0.5994   -0.1363   -5.5966 H       1  LIG1        0.0659
     37 H           0.6243   -1.8665   -3.8974 H       1  LIG1        0.0792
     38 H          -4.5625    2.1016   -3.5336 H       1  LIG1        0.1063
     39 H           0.1763   -1.4845   -0.7967 H       1  LIG1        0.0436
     40 H          -1.4146   -2.3185   -0.8206 H       1  LIG1        0.0436
     41 H          -0.0548   -2.9833   -1.7607 H       1  LIG1        0.0436
     42 H          -7.9323   -3.7945    0.2362 H       1  LIG1        0.1560
@<TRIPOS>BOND
     1     1     2   ar
     2     1     3   ar
     3     2     6   ar
     4     3     7   ar
     5     4     8   ar
     6     4    13   ar
     7     5     9   ar
     8     5    13   ar
     9     6    16   ar
    10     7    16   ar
    11     8    17   ar
    12     9    17   ar
    13    10    11   ar
    14    10    14   ar
    15    11    23   ar
    16    12    21   ar
    17    12    22   ar
    18    13    19    1
    19    14    15   ar
    20    14    21   ar
    21    15    18   ar
    22    15    23   ar
    23    16    24    1
    24    17    26    1
    25    18    22   ar
    26    18    26    1
    27    19    24   am
    28    19    25    2
    29    20    23    1
    30     1    27    1
    31     2    28    1
    32     3    29    1
    33     4    30    1
    34     5    31    1
    35     6    32    1
    36     7    33    1
    37     8    34    1
    38     9    35    1
    39    10    36    1
    40    11    37    1
    41    12    38    1
    42    20    39    1
    43    20    40    1
    44    20    41    1
    45    24    42    1
