@<TRIPOS>MOLECULE
ChEBML233039
 36 38 0 0 0
SMALL
USER_CHARGES

@<TRIPOS>ATOM
      1 C          -4.3292   -2.7626    0.7289 C.ar    1  LIG1       -0.0604
      2 C          -5.5504   -2.6033    1.3837 C.ar    1  LIG1       -0.0509
      3 C         -10.3305   -5.0590    0.2830 C.ar    1  LIG1       -0.0376
      4 C         -11.6329   -5.5034    0.5281 C.ar    1  LIG1       -0.0299
      5 C          -3.8538   -1.7583   -0.1145 C.ar    1  LIG1       -0.0483
      6 C         -12.0306   -3.6694    2.0693 C.ar    1  LIG1       -0.0226
      7 C          -9.9618   -2.1008    2.3223 C.ar    1  LIG1       -0.0275
      8 C          -5.8212   -0.4358    0.3516 C.ar    1  LIG1       -0.0371
      9 C         -10.7215   -3.2024    1.8381 C.ar    1  LIG1        0.0003
     10 C          -6.2964   -1.4399    1.1951 C.ar    1  LIG1        0.0249
     11 C          -9.9032   -3.9065    0.9521 C.ar    1  LIG1        0.0379
     12 C         -12.4716   -4.8209    1.4070 C.ar    1  LIG1        0.0753
     13 C          -4.5999   -0.5950   -0.3032 C.ar    1  LIG1        0.0135
     14 C          -8.7202   -2.1567    1.7321 C.ar    1  LIG1        0.0797
     15 C          -7.6153   -1.2678    1.9058 C.2     1  LIG1        0.2066
     16 C         -14.5458   -4.5372    2.5354 C.3     1  LIG1        0.0422
     17 C          -3.8896   -0.2336   -2.9251 C.3     1  LIG1        0.2885
     18 N          -8.6945   -3.2491    0.9072 N.ar    1  LIG1       -0.3112
     19 O          -7.6890   -0.2805    2.6741 O.2     1  LIG1       -0.2871
     20 O         -13.7365   -5.2791    1.6253 O.3     1  LIG1       -0.3493
     21 F          -2.7369   -0.9484   -2.9854 F       1  LIG1       -0.1975
     22 F          -3.8588    0.6331   -3.9706 F       1  LIG1       -0.1975
     23 S          -3.9930    0.6871   -1.3822 S.3     1  LIG1       -0.0553
     24 H          -3.7488   -3.6690    0.8747 H       1  LIG1        0.0623
     25 H          -5.9116   -3.3921    2.0388 H       1  LIG1        0.0630
     26 H          -9.6784   -5.5908   -0.4018 H       1  LIG1        0.0643
     27 H         -11.9897   -6.3968    0.0207 H       1  LIG1        0.0651
     28 H          -2.9002   -1.9014   -0.6167 H       1  LIG1        0.0634
     29 H         -12.6910   -3.1424    2.7526 H       1  LIG1        0.0657
     30 H         -10.2925   -1.3498    3.0276 H       1  LIG1        0.0651
     31 H          -6.4093    0.4688    0.2091 H       1  LIG1        0.0642
     32 H         -15.5278   -5.0089    2.6186 H       1  LIG1        0.0535
     33 H         -14.6520   -3.5105    2.1762 H       1  LIG1        0.0535
     34 H         -14.0633   -4.5301    3.5156 H       1  LIG1        0.0535
     35 H          -4.7363   -0.9109   -3.0634 H       1  LIG1        0.1167
     36 H          -7.9045   -3.5345    0.3450 H       1  LIG1        0.1529
@<TRIPOS>BOND
     1     1     2   ar
     2     1     5   ar
     3     2    10   ar
     4     3     4   ar
     5     3    11   ar
     6     4    12   ar
     7     5    13   ar
     8     6     9   ar
     9     6    12   ar
    10     7     9   ar
    11     7    14   ar
    12     8    10   ar
    13     8    13   ar
    14     9    11   ar
    15    10    15    1
    16    11    18   ar
    17    12    20    1
    18    13    23    1
    19    14    15    1
    20    14    18   ar
    21    15    19    2
    22    16    20    1
    23    17    21    1
    24    17    22    1
    25    17    23    1
    26     1    24    1
    27     2    25    1
    28     3    26    1
    29     4    27    1
    30     5    28    1
    31     6    29    1
    32     7    30    1
    33     8    31    1
    34    16    32    1
    35    16    33    1
    36    16    34    1
    37    17    35    1
    38    18    36    1
