@<TRIPOS>MOLECULE
ChEBML198651
 50 52 0 0 0
SMALL
USER_CHARGES

@<TRIPOS>ATOM
      1 C          -2.2307    0.9533   -3.4716 C.ar    1  LIG1       -0.0369
      2 C         -11.8714   -3.0808    0.3280 C.ar    1  LIG1       -0.0569
      3 C         -11.7432   -5.2378    1.4087 C.ar    1  LIG1       -0.0569
      4 C          -1.9716   -0.3905   -3.2258 C.ar    1  LIG1        0.0204
      5 C         -10.5052   -2.8942    0.5386 C.ar    1  LIG1       -0.0404
      6 C         -10.3770   -5.0512    1.6193 C.ar    1  LIG1       -0.0404
      7 C          -3.3237    1.5284   -2.8437 C.ar    1  LIG1        0.0296
      8 C         -12.4904   -4.2527    0.7631 C.ar    1  LIG1       -0.0453
      9 C          -9.7580   -3.8793    1.1843 C.ar    1  LIG1        0.0340
     10 C          -2.8018   -1.1079   -2.3718 C.ar    1  LIG1        0.3029
     11 C          -3.8692   -0.4404   -1.7930 C.ar    1  LIG1        0.1986
     12 C          -7.8693   -2.4251    1.6401 C.2     1  LIG1        0.3050
     13 C          -4.8300   -0.6857    0.4404 C.3     1  LIG1        0.0291
     14 C          -5.7823   -1.9257   -1.5274 C.3     1  LIG1        0.0291
     15 C          -6.2971   -0.6740    0.8642 C.3     1  LIG1        0.0315
     16 C          -6.4722   -2.7721   -0.4566 C.3     1  LIG1        0.0315
     17 C         -14.7382   -4.5793    1.8560 C.3     1  LIG1       -0.0587
     18 C         -14.2476   -5.6634   -0.3664 C.3     1  LIG1       -0.0587
     19 C         -13.9511   -4.4521    0.5379 C.3     1  LIG1       -0.0219
     20 N          -4.1526    0.8638   -2.0077 N.ar    1  LIG1       -0.2349
     21 N          -4.6940   -1.1363   -0.9474 N.pl3   1  LIG1       -0.3070
     22 N          -6.9158   -1.9879    0.7013 N.am    1  LIG1       -0.2824
     23 N          -8.3871   -3.6924    1.3954 N.am    1  LIG1       -0.2691
     24 N          -2.5347   -2.4820   -2.1250 N.pl3   1  LIG1        0.1060
     25 O          -8.2138   -1.7417    2.6098 O.2     1  LIG1       -0.2537
     26 O          -1.5503   -3.0190   -2.6867 O.2     1  LIG1        0.0315
     27 O          -3.2907   -3.1178   -1.3525 O.2     1  LIG1       -0.5802
     28 H          -1.5961    1.5322   -4.1329 H       1  LIG1        0.0641
     29 H         -12.4462   -2.3070   -0.1739 H       1  LIG1        0.0626
     30 H         -12.2175   -6.1536    1.7517 H       1  LIG1        0.0626
     31 H          -1.1202   -0.8656   -3.7067 H       1  LIG1        0.0697
     32 H         -10.0331   -1.9772    0.1950 H       1  LIG1        0.0642
     33 H          -9.8044   -5.8250    2.1245 H       1  LIG1        0.0642
     34 H          -3.5692    2.5732   -3.0026 H       1  LIG1        0.0840
     35 H          -4.4127    0.3204    0.5707 H       1  LIG1        0.0485
     36 H          -4.2575   -1.3641    1.0843 H       1  LIG1        0.0485
     37 H          -5.3946   -2.5855   -2.3127 H       1  LIG1        0.0485
     38 H          -6.5129   -1.2503   -1.9909 H       1  LIG1        0.0485
     39 H          -6.3813   -0.3431    1.9046 H       1  LIG1        0.0486
     40 H          -6.8717    0.0292    0.2490 H       1  LIG1        0.0486
     41 H          -7.3320   -3.2835   -0.9019 H       1  LIG1        0.0486
     42 H          -5.7841   -3.5367   -0.0760 H       1  LIG1        0.0486
     43 H         -14.3911   -5.4303    2.4523 H       1  LIG1        0.0236
     44 H         -15.8090   -4.7177    1.6715 H       1  LIG1        0.0236
     45 H         -14.6165   -3.6750    2.4627 H       1  LIG1        0.0236
     46 H         -13.8572   -6.5823    0.0850 H       1  LIG1        0.0236
     47 H         -13.7833   -5.5506   -1.3522 H       1  LIG1        0.0236
     48 H         -15.3240   -5.7980   -0.5200 H       1  LIG1        0.0236
     49 H         -14.3738   -3.5727    0.0155 H       1  LIG1        0.0346
     50 H          -7.8089   -4.5244    1.4164 H       1  LIG1        0.1573
@<TRIPOS>BOND
     1     1     4   ar
     2     1     7   ar
     3     2     5   ar
     4     2     8   ar
     5     3     6   ar
     6     3     8   ar
     7     4    10   ar
     8     5     9   ar
     9     6     9   ar
    10     7    20   ar
    11     8    19    1
    12     9    23    1
    13    10    11   ar
    14    10    24    1
    15    11    20   ar
    16    11    21    1
    17    12    22   am
    18    12    23   am
    19    12    25    2
    20    13    15    1
    21    13    21    1
    22    14    16    1
    23    14    21    1
    24    15    22    1
    25    16    22    1
    26    17    19    1
    27    18    19    1
    28    24    26    2
    29    24    27    2
    30     1    28    1
    31     2    29    1
    32     3    30    1
    33     4    31    1
    34     5    32    1
    35     6    33    1
    36     7    34    1
    37    13    35    1
    38    13    36    1
    39    14    37    1
    40    14    38    1
    41    15    39    1
    42    15    40    1
    43    16    41    1
    44    16    42    1
    45    17    43    1
    46    17    44    1
    47    17    45    1
    48    18    46    1
    49    18    47    1
    50    18    48    1
    51    19    49    1
    52    23    50    1
