@<TRIPOS>MOLECULE
ChEBML348341
 43 47 0 0 0
SMALL
USER_CHARGES

@<TRIPOS>ATOM
      1 C           1.1804   -3.9336   -1.8438 C.ar    1  LIG1       -0.0621
      2 C         -12.5348   -4.7659    1.3353 C.ar    1  LIG1       -0.0615
      3 C         -11.6006   -5.6316    0.7700 C.ar    1  LIG1       -0.0603
      4 C           0.4776   -3.7468   -3.0340 C.ar    1  LIG1       -0.0596
      5 C           1.0004   -3.0482   -0.7811 C.ar    1  LIG1       -0.0596
      6 C         -12.1587   -3.4886    1.7665 C.ar    1  LIG1       -0.0530
      7 C         -10.2644   -5.2505    0.6177 C.ar    1  LIG1       -0.0402
      8 C          -5.0149   -1.5926   -2.4671 C.ar    1  LIG1       -0.0376
      9 C          -0.4052   -2.6743   -3.1617 C.ar    1  LIG1       -0.0312
     10 C           0.1176   -1.9758   -0.9087 C.ar    1  LIG1       -0.0312
     11 C          -3.6766   -1.3764   -2.8081 C.ar    1  LIG1       -0.0293
     12 C          -3.1522   -0.6760   -0.5429 C.ar    1  LIG1       -0.0220
     13 C         -10.1020   -1.8936    1.9407 C.ar    1  LIG1       -0.0276
     14 C          -5.2272   -0.7414    1.0366 C.ar    1  LIG1       -0.0275
     15 C         -10.8171   -3.0822    1.6233 C.ar    1  LIG1       -0.0022
     16 C          -4.4962   -0.8867   -0.1757 C.ar    1  LIG1        0.0004
     17 C          -9.9028   -3.9707    1.0533 C.ar    1  LIG1        0.0378
     18 C          -5.3947   -1.3392   -1.1443 C.ar    1  LIG1        0.0379
     19 C          -0.5853   -1.7889   -2.0990 C.ar    1  LIG1        0.0820
     20 C          -2.7580   -0.9253   -1.8626 C.ar    1  LIG1        0.0828
     21 C          -8.7917   -2.0802    1.5648 C.ar    1  LIG1        0.0811
     22 C          -6.5310   -1.1015    0.7850 C.ar    1  LIG1        0.0811
     23 C          -7.6362   -1.1195    1.6903 C.2     1  LIG1        0.2206
     24 N          -8.6815   -3.3359    1.0303 N.ar    1  LIG1       -0.3112
     25 N          -6.6222   -1.4607   -0.5329 N.ar    1  LIG1       -0.3112
     26 O          -7.7014   -0.3205    2.6535 O.2     1  LIG1       -0.2856
     27 O          -1.4598   -0.7238   -2.2257 O.3     1  LIG1       -0.3104
     28 H           1.8675   -4.7688   -1.7439 H       1  LIG1        0.0622
     29 H         -13.5684   -5.0847    1.4425 H       1  LIG1        0.0623
     30 H         -11.9146   -6.6192    0.4424 H       1  LIG1        0.0623
     31 H           0.6178   -4.4360   -3.8617 H       1  LIG1        0.0623
     32 H           1.5479   -3.1945    0.1455 H       1  LIG1        0.0623
     33 H         -12.8974   -2.8235    2.2051 H       1  LIG1        0.0629
     34 H          -9.5373   -5.9248    0.1780 H       1  LIG1        0.0642
     35 H          -5.7293   -1.9442   -3.2039 H       1  LIG1        0.0643
     36 H          -0.9487   -2.5334   -4.0920 H       1  LIG1        0.0650
     37 H          -0.0173   -1.2882   -0.0782 H       1  LIG1        0.0650
     38 H          -3.3554   -1.5657   -3.8298 H       1  LIG1        0.0651
     39 H          -2.4296   -0.3250    0.1888 H       1  LIG1        0.0657
     40 H         -10.5071   -0.9996    2.3959 H       1  LIG1        0.0651
     41 H          -4.8367   -0.4083    1.9891 H       1  LIG1        0.0651
     42 H          -7.8283   -3.7417    0.6709 H       1  LIG1        0.1529
     43 H          -7.4666   -1.7710   -0.9938 H       1  LIG1        0.1529
@<TRIPOS>BOND
     1     1     4   ar
     2     1     5   ar
     3     2     3   ar
     4     2     6   ar
     5     3     7   ar
     6     4     9   ar
     7     5    10   ar
     8     6    15   ar
     9     7    17   ar
    10     8    11   ar
    11     8    18   ar
    12     9    19   ar
    13    10    19   ar
    14    11    20   ar
    15    12    16   ar
    16    12    20   ar
    17    13    15   ar
    18    13    21   ar
    19    14    16   ar
    20    14    22   ar
    21    15    17   ar
    22    16    18   ar
    23    17    24   ar
    24    18    25   ar
    25    19    27    1
    26    20    27    1
    27    21    23    1
    28    21    24   ar
    29    22    23    1
    30    22    25   ar
    31    23    26    2
    32     1    28    1
    33     2    29    1
    34     3    30    1
    35     4    31    1
    36     5    32    1
    37     6    33    1
    38     7    34    1
    39     8    35    1
    40     9    36    1
    41    10    37    1
    42    11    38    1
    43    12    39    1
    44    13    40    1
    45    14    41    1
    46    24    42    1
    47    25    43    1
