@<TRIPOS>MOLECULE
ChEBML211318
 45 48 0 0 0
SMALL
USER_CHARGES

@<TRIPOS>ATOM
      1 C          -2.0011    0.9583   -3.5693 C.ar    1  LIG1       -0.0616
      2 C          -3.1452    1.6021   -3.0709 C.ar    1  LIG1       -0.0619
      3 C          -1.6271   -0.3010   -3.0948 C.ar    1  LIG1       -0.0547
      4 C          -8.5673   -3.5054    2.1807 C.ar    1  LIG1       -0.0471
      5 C          -9.8467   -1.6953    1.2196 C.ar    1  LIG1       -0.0471
      6 C          -3.9344    0.9971   -2.0900 C.ar    1  LIG1       -0.0575
      7 C          -9.6455   -4.3693    1.9892 C.ar    1  LIG1       -0.0310
      8 C         -10.9249   -2.5592    1.0280 C.ar    1  LIG1       -0.0310
      9 C          -2.4154   -0.8929   -2.1225 C.ar    1  LIG1       -0.0218
     10 C          -8.6678   -2.1685    1.7959 C.ar    1  LIG1        0.0374
     11 C          -3.5594   -0.2532   -1.6222 C.ar    1  LIG1       -0.0306
     12 C         -10.8244   -3.8962    1.4129 C.ar    1  LIG1        0.0746
     13 C          -2.2553   -2.1769   -1.4664 C.2     1  LIG1       -0.0578
     14 C          -3.2641   -2.3217   -0.5941 C.2     1  LIG1       -0.0732
     15 C          -7.5400   -1.2647    1.9959 C.2     1  LIG1        0.2455
     16 C          -4.2399   -0.4408    0.8061 C.3     1  LIG1       -0.0239
     17 C          -5.6455   -1.5414   -1.0003 C.3     1  LIG1       -0.0239
     18 C          -5.0043   -1.2595    1.8477 C.3     1  LIG1        0.0156
     19 C          -6.3735   -2.3255    0.0935 C.3     1  LIG1        0.0156
     20 C          -4.2193   -1.1284   -0.5765 C.3     1  LIG1        0.0171
     21 C         -11.7064   -6.0928    1.6425 C.3     1  LIG1        0.0422
     22 N          -6.3480   -1.5882    1.3561 N.am    1  LIG1       -0.2977
     23 O          -7.7476   -0.2937    2.7173 O.2     1  LIG1       -0.2716
     24 O         -11.8767   -4.7388    1.2261 O.3     1  LIG1       -0.3493
     25 H          -1.4015    1.4463   -4.3330 H       1  LIG1        0.0623
     26 H          -3.4188    2.5815   -3.4541 H       1  LIG1        0.0623
     27 H          -0.7417   -0.7935   -3.4830 H       1  LIG1        0.0629
     28 H          -7.6536   -3.8855    2.6305 H       1  LIG1        0.0632
     29 H          -9.9350   -0.6553    0.9160 H       1  LIG1        0.0632
     30 H          -4.8167    1.5002   -1.7095 H       1  LIG1        0.0626
     31 H          -9.5612   -5.4096    2.2912 H       1  LIG1        0.0650
     32 H         -11.8409   -2.1849    0.5789 H       1  LIG1        0.0650
     33 H          -1.4596   -2.8764   -1.6607 H       1  LIG1        0.0626
     34 H          -3.3864   -3.1961    0.0310 H       1  LIG1        0.0585
     35 H          -4.7236    0.5420    0.7193 H       1  LIG1        0.0295
     36 H          -3.2208   -0.2516    1.1679 H       1  LIG1        0.0295
     37 H          -5.6272   -2.1361   -1.9230 H       1  LIG1        0.0295
     38 H          -6.2345   -0.6416   -1.2254 H       1  LIG1        0.0295
     39 H          -4.4912   -2.2044    2.0601 H       1  LIG1        0.0470
     40 H          -5.0462   -0.7012    2.7863 H       1  LIG1        0.0470
     41 H          -7.4050   -2.5186   -0.2187 H       1  LIG1        0.0470
     42 H          -5.8987   -3.2979    0.2659 H       1  LIG1        0.0470
     43 H         -12.6201   -6.6558    1.4366 H       1  LIG1        0.0535
     44 H         -11.4816   -6.1206    2.7117 H       1  LIG1        0.0535
     45 H         -10.8761   -6.5340    1.0860 H       1  LIG1        0.0535
@<TRIPOS>BOND
     1     1     2   ar
     2     1     3   ar
     3     2     6   ar
     4     3     9   ar
     5     4     7   ar
     6     4    10   ar
     7     5     8   ar
     8     5    10   ar
     9     6    11   ar
    10     7    12   ar
    11     8    12   ar
    12     9    11   ar
    13     9    13    1
    14    10    15    1
    15    11    20    1
    16    12    24    1
    17    13    14    2
    18    14    20    1
    19    15    22   am
    20    15    23    2
    21    16    18    1
    22    16    20    1
    23    17    19    1
    24    17    20    1
    25    18    22    1
    26    19    22    1
    27    21    24    1
    28     1    25    1
    29     2    26    1
    30     3    27    1
    31     4    28    1
    32     5    29    1
    33     6    30    1
    34     7    31    1
    35     8    32    1
    36    13    33    1
    37    14    34    1
    38    16    35    1
    39    16    36    1
    40    17    37    1
    41    17    38    1
    42    18    39    1
    43    18    40    1
    44    19    41    1
    45    19    42    1
    46    21    43    1
    47    21    44    1
    48    21    45    1
