@<TRIPOS>MOLECULE
ChEBML232956
 40 42 0 0 0
SMALL
USER_CHARGES

@<TRIPOS>ATOM
      1 C          -4.3620   -2.6815   -0.1779 C.ar    1  LIG1       -0.0587
      2 C          -5.4690   -2.5538    0.6611 C.ar    1  LIG1       -0.0481
      3 C         -10.1574   -5.2320    0.7164 C.ar    1  LIG1       -0.0376
      4 C          -3.9738   -1.6143   -0.9877 C.ar    1  LIG1       -0.0291
      5 C         -11.5183   -5.5235    0.8458 C.ar    1  LIG1       -0.0299
      6 C         -11.9769   -3.2894    1.6793 C.ar    1  LIG1       -0.0226
      7 C          -9.8341   -1.8087    1.8218 C.ar    1  LIG1       -0.0275
      8 C         -10.6093   -2.9723    1.5575 C.ar    1  LIG1        0.0003
      9 C          -6.1879   -1.3589    0.6901 C.ar    1  LIG1        0.0568
     10 C          -9.7329   -3.9490    1.0798 C.ar    1  LIG1        0.0379
     11 C         -12.4158   -4.5687    1.3196 C.ar    1  LIG1        0.0753
     12 C          -4.6927   -0.4193   -0.9587 C.ar    1  LIG1        0.1055
     13 C          -5.7997   -0.2916   -0.1198 C.ar    1  LIG1        0.1160
     14 C          -8.5263   -2.0962    1.5056 C.ar    1  LIG1        0.0798
     15 C          -7.3830   -1.2450    1.6028 C.2     1  LIG1        0.2093
     16 C         -14.1245   -6.2013    1.0531 C.3     1  LIG1        0.0422
     17 C          -3.1606    0.4020   -2.5816 C.3     1  LIG1        0.0424
     18 C          -5.7858    2.0522    0.2831 C.3     1  LIG1        0.0424
     19 N          -8.4753   -3.3893    1.0588 N.ar    1  LIG1       -0.3112
     20 O          -7.3152   -0.3429    2.4699 O.2     1  LIG1       -0.2870
     21 O         -13.7370   -4.8831    1.4346 O.3     1  LIG1       -0.3493
     22 O          -4.3024    0.6155   -1.7541 O.3     1  LIG1       -0.3465
     23 O          -6.4997    0.8790   -0.0987 O.3     1  LIG1       -0.3458
     24 H          -3.8011   -3.6115   -0.1984 H       1  LIG1        0.0624
     25 H          -5.7625   -3.3926    1.2870 H       1  LIG1        0.0631
     26 H          -9.4594   -5.9759    0.3472 H       1  LIG1        0.0643
     27 H          -3.1096   -1.7196   -1.6382 H       1  LIG1        0.0651
     28 H         -11.8743   -6.5136    0.5701 H       1  LIG1        0.0651
     29 H         -12.6832   -2.5501    2.0473 H       1  LIG1        0.0657
     30 H         -10.1984   -0.8639    2.2029 H       1  LIG1        0.0651
     31 H         -15.2016   -6.3203    1.1934 H       1  LIG1        0.0535
     32 H         -13.5841   -6.9312    1.6613 H       1  LIG1        0.0535
     33 H         -13.8774   -6.3536   -0.0002 H       1  LIG1        0.0535
     34 H          -2.9577    1.3043   -3.1636 H       1  LIG1        0.0535
     35 H          -3.3469   -0.4419   -3.2507 H       1  LIG1        0.0535
     36 H          -2.2990    0.1786   -1.9479 H       1  LIG1        0.0535
     37 H          -6.4584    2.9131    0.2584 H       1  LIG1        0.0535
     38 H          -4.9493    2.2100   -0.4024 H       1  LIG1        0.0535
     39 H          -5.4029    1.9209    1.2979 H       1  LIG1        0.0535
     40 H          -7.6375   -3.8673    0.7562 H       1  LIG1        0.1529
@<TRIPOS>BOND
     1     1     2   ar
     2     1     4   ar
     3     2     9   ar
     4     3     5   ar
     5     3    10   ar
     6     4    12   ar
     7     5    11   ar
     8     6     8   ar
     9     6    11   ar
    10     7     8   ar
    11     7    14   ar
    12     8    10   ar
    13     9    13   ar
    14     9    15    1
    15    10    19   ar
    16    11    21    1
    17    12    13   ar
    18    12    22    1
    19    13    23    1
    20    14    15    1
    21    14    19   ar
    22    15    20    2
    23    16    21    1
    24    17    22    1
    25    18    23    1
    26     1    24    1
    27     2    25    1
    28     3    26    1
    29     4    27    1
    30     5    28    1
    31     6    29    1
    32     7    30    1
    33    16    31    1
    34    16    32    1
    35    16    33    1
    36    17    34    1
    37    17    35    1
    38    17    36    1
    39    18    37    1
    40    18    38    1
    41    18    39    1
    42    19    40    1
