@<TRIPOS>MOLECULE
ChEBML232836
 32 34 0 0 0
SMALL
USER_CHARGES

@<TRIPOS>ATOM
      1 C          -4.3209   -1.0300   -0.9180 C.ar    1  LIG1       -0.0578
      2 C         -10.2182   -5.2436    0.5955 C.ar    1  LIG1       -0.0376
      3 C         -11.5500   -5.6439    0.7366 C.ar    1  LIG1       -0.0299
      4 C          -4.1527   -1.2808    0.4437 C.ar    1  LIG1       -0.0254
      5 C          -5.5982   -0.8126   -1.4347 C.ar    1  LIG1       -0.0426
      6 C         -12.1410   -3.5204    1.7555 C.ar    1  LIG1       -0.0226
      7 C         -10.1063   -1.9008    1.9588 C.ar    1  LIG1       -0.0275
      8 C         -10.8043   -3.0948    1.6237 C.ar    1  LIG1        0.0003
      9 C          -6.5393   -1.0972    0.7722 C.ar    1  LIG1        0.0781
     10 C          -9.8756   -3.9644    1.0480 C.ar    1  LIG1        0.0379
     11 C         -12.4983   -4.7973    1.3073 C.ar    1  LIG1        0.0753
     12 C          -5.2619   -1.3144    1.2889 C.ar    1  LIG1        0.1354
     13 C          -6.7073   -0.8463   -0.5895 C.ar    1  LIG1        0.0547
     14 C          -8.7919   -2.0658    1.5872 C.ar    1  LIG1        0.0799
     15 C          -7.7100   -1.1424    1.7216 C.2     1  LIG1        0.2110
     16 C         -14.0931   -6.5264    0.9571 C.3     1  LIG1        0.0422
     17 N          -8.6625   -3.3134    1.0386 N.ar    1  LIG1       -0.3112
     18 O          -7.6797   -0.3069    2.6552 O.2     1  LIG1       -0.2869
     19 O         -13.7893   -5.2164    1.4312 O.3     1  LIG1       -0.3493
     20 F          -5.0861   -1.5569    2.5957 F       1  LIG1       -0.2061
     21 CL         -8.2713   -0.5730   -1.2696 Cl      1  LIG1       -0.0834
     22 H          -3.4570   -1.0042   -1.5759 H       1  LIG1        0.0624
     23 H          -9.4807   -5.9032    0.1507 H       1  LIG1        0.0643
     24 H         -11.8427   -6.6335    0.3929 H       1  LIG1        0.0651
     25 H          -3.1583   -1.4502    0.8459 H       1  LIG1        0.0653
     26 H          -5.7104   -0.6190   -2.4985 H       1  LIG1        0.0638
     27 H         -12.8866   -2.8657    2.1987 H       1  LIG1        0.0657
     28 H         -10.5253   -1.0175    2.4225 H       1  LIG1        0.0651
     29 H         -15.1539   -6.7350    1.1153 H       1  LIG1        0.0535
     30 H         -13.4830   -7.2588    1.4917 H       1  LIG1        0.0535
     31 H         -13.8692   -6.5786   -0.1110 H       1  LIG1        0.0535
     32 H          -7.8027   -3.7035    0.6777 H       1  LIG1        0.1529
@<TRIPOS>BOND
     1     1     4   ar
     2     1     5   ar
     3     2     3   ar
     4     2    10   ar
     5     3    11   ar
     6     4    12   ar
     7     5    13   ar
     8     6     8   ar
     9     6    11   ar
    10     7     8   ar
    11     7    14   ar
    12     8    10   ar
    13     9    12   ar
    14     9    13   ar
    15     9    15    1
    16    10    17   ar
    17    11    19    1
    18    12    20    1
    19    13    21    1
    20    14    15    1
    21    14    17   ar
    22    15    18    2
    23    16    19    1
    24     1    22    1
    25     2    23    1
    26     3    24    1
    27     4    25    1
    28     5    26    1
    29     6    27    1
    30     7    28    1
    31    16    29    1
    32    16    30    1
    33    16    31    1
    34    17    32    1
