@<TRIPOS>MOLECULE
ChEBML53271
 52 55 0 0 0
SMALL
USER_CHARGES

@<TRIPOS>ATOM
      1 C         -12.5431   -4.6767    1.4054 C.ar    1  LIG1       -0.0615
      2 C         -11.6976   -5.5024    0.6747 C.ar    1  LIG1       -0.0603
      3 C          -2.3347    0.9959   -3.4645 C.ar    1  LIG1       -0.0418
      4 C         -12.0813   -3.5115    1.9444 C.ar    1  LIG1       -0.0530
      5 C         -10.3782   -5.1605    0.4807 C.ar    1  LIG1       -0.0402
      6 C          -1.7391   -0.1642   -2.9878 C.ar    1  LIG1       -0.0360
      7 C          -9.9757   -2.0270    2.1797 C.ar    1  LIG1       -0.0262
      8 C          -3.5386    1.4078   -2.9303 C.ar    1  LIG1        0.0292
      9 C         -10.7427   -3.1411    1.7608 C.ar    1  LIG1       -0.0022
     10 C          -9.8836   -3.9761    1.0200 C.ar    1  LIG1        0.0378
     11 C          -2.3830   -0.8730   -1.9823 C.ar    1  LIG1        0.0672
     12 C          -8.7127   -2.1932    1.7073 C.ar    1  LIG1        0.0947
     13 C          -3.6027   -0.3978   -1.4938 C.ar    1  LIG1        0.1412
     14 C          -7.5948   -1.2609    1.9163 C.2     1  LIG1        0.2599
     15 C          -4.4685   -0.1579    0.6182 C.3     1  LIG1        0.0288
     16 C          -5.5886   -1.4461   -1.0189 C.3     1  LIG1        0.0288
     17 C          -5.1745   -0.8716    1.7756 C.3     1  LIG1        0.0303
     18 C          -6.3684   -2.2448    0.0303 C.3     1  LIG1        0.0303
     19 C           0.1418   -3.4244   -0.9860 C.3     1  LIG1       -0.0470
     20 C          -0.8925   -3.4316   -3.2603 C.3     1  LIG1       -0.0470
     21 C          -0.5754   -2.5721   -2.0350 C.3     1  LIG1        0.0142
     22 N          -4.1307    0.7155   -1.9743 N.ar    1  LIG1       -0.2394
     23 N          -8.6476   -3.3747    0.9945 N.ar    1  LIG1       -0.3101
     24 N          -4.2650   -1.0990   -0.4889 N.pl3   1  LIG1       -0.3112
     25 N          -6.4286   -1.4510    1.2681 N.am    1  LIG1       -0.2936
     26 N          -1.8215   -2.0488   -1.4698 N.pl3   1  LIG1       -0.3393
     27 O          -7.7227   -0.3181    2.6743 O.2     1  LIG1       -0.2701
     28 H         -13.5754   -4.9601    1.5484 H       1  LIG1        0.0623
     29 H         -12.0791   -6.4214    0.2552 H       1  LIG1        0.0623
     30 H          -1.8600    1.5709   -4.2458 H       1  LIG1        0.0639
     31 H         -12.7459   -2.8765    2.5115 H       1  LIG1        0.0629
     32 H          -9.7287   -5.8094   -0.0881 H       1  LIG1        0.0642
     33 H          -0.7969   -0.5069   -3.3893 H       1  LIG1        0.0644
     34 H         -10.3309   -1.1946    2.7690 H       1  LIG1        0.0651
     35 H          -4.0035    2.3100   -3.2995 H       1  LIG1        0.0840
     36 H          -3.5032    0.2172    0.9579 H       1  LIG1        0.0485
     37 H          -5.0823    0.6761    0.2776 H       1  LIG1        0.0485
     38 H          -6.1339   -0.5335   -1.2595 H       1  LIG1        0.0485
     39 H          -5.4724   -2.0476   -1.9205 H       1  LIG1        0.0485
     40 H          -4.5344   -1.6642    2.1632 H       1  LIG1        0.0486
     41 H          -5.3948   -0.1565    2.5682 H       1  LIG1        0.0486
     42 H          -5.8607   -3.1896    0.2245 H       1  LIG1        0.0486
     43 H          -7.3784   -2.4379   -0.3313 H       1  LIG1        0.0486
     44 H           1.0691   -3.8138   -1.4065 H       1  LIG1        0.0249
     45 H           0.3678   -2.8121   -0.1130 H       1  LIG1        0.0249
     46 H          -0.5002   -4.2545   -0.6914 H       1  LIG1        0.0249
     47 H          -1.5346   -4.2616   -2.9658 H       1  LIG1        0.0249
     48 H          -1.4034   -2.8244   -4.0076 H       1  LIG1        0.0249
     49 H           0.0348   -3.8211   -3.6808 H       1  LIG1        0.0249
     50 H           0.0667   -1.7421   -2.3296 H       1  LIG1        0.0497
     51 H          -7.8587   -3.7238    0.5507 H       1  LIG1        0.1529
     52 H          -2.2577   -2.5168   -0.7407 H       1  LIG1        0.1469
@<TRIPOS>BOND
     1     1     2   ar
     2     1     4   ar
     3     2     5   ar
     4     3     6   ar
     5     3     8   ar
     6     4     9   ar
     7     5    10   ar
     8     6    11   ar
     9     7     9   ar
    10     7    12   ar
    11     8    22   ar
    12     9    10   ar
    13    10    23   ar
    14    11    13   ar
    15    11    26    1
    16    12    14    1
    17    12    23   ar
    18    13    22   ar
    19    13    24    1
    20    14    25   am
    21    14    27    2
    22    15    17    1
    23    15    24    1
    24    16    18    1
    25    16    24    1
    26    17    25    1
    27    18    25    1
    28    19    21    1
    29    20    21    1
    30    21    26    1
    31     1    28    1
    32     2    29    1
    33     3    30    1
    34     4    31    1
    35     5    32    1
    36     6    33    1
    37     7    34    1
    38     8    35    1
    39    15    36    1
    40    15    37    1
    41    16    38    1
    42    16    39    1
    43    17    40    1
    44    17    41    1
    45    18    42    1
    46    18    43    1
    47    19    44    1
    48    19    45    1
    49    19    46    1
    50    20    47    1
    51    20    48    1
    52    20    49    1
    53    21    50    1
    54    23    51    1
    55    26    52    1
