@<TRIPOS>MOLECULE
ChEBML352069
 51 54 0 0 0
SMALL
USER_CHARGES

@<TRIPOS>ATOM
      1 C          -2.2802    1.0394   -3.4164 C.ar    1  LIG1       -0.0589
      2 C         -11.9668   -5.5618    1.0076 C.ar    1  LIG1       -0.0601
      3 C          -1.1839    0.2028   -3.2390 C.ar    1  LIG1       -0.0438
      4 C         -12.5271   -5.0034    2.1547 C.ar    1  LIG1       -0.0581
      5 C         -10.7972   -5.0387    0.4488 C.ar    1  LIG1       -0.0402
      6 C          -3.4714    0.7651   -2.7538 C.ar    1  LIG1       -0.0406
      7 C          -9.9023   -2.2732    2.5927 C.ar    1  LIG1       -0.0269
      8 C          -1.3291   -0.8864   -2.3950 C.ar    1  LIG1        0.0271
      9 C         -10.7522   -3.3567    2.2339 C.ar    1  LIG1        0.0012
     10 C         -11.9319   -3.9012    2.7792 C.ar    1  LIG1       -0.0336
     11 C         -10.2131   -3.9369    1.0837 C.ar    1  LIG1        0.0381
     12 C          -8.8826   -2.2178    1.6707 C.ar    1  LIG1        0.0841
     13 C          -3.5142   -0.3493   -1.9317 C.ar    1  LIG1        0.0408
     14 C          -7.7882   -1.3244    1.5862 C.ar    1  LIG1        0.2202
     15 C          -6.0653   -0.3521    0.9815 C.ar    1  LIG1        0.1593
     16 C         -13.4739   -1.2695    5.8528 C.3     1  LIG1       -0.0457
     17 C         -15.7245   -1.2914    4.7874 C.3     1  LIG1       -0.0457
     18 C         -12.5799   -3.3435    4.0067 C.3     1  LIG1        0.0123
     19 C          -4.7911   -0.6776   -1.1968 C.3     1  LIG1       -0.0032
     20 C          -4.8707   -0.0101    0.2016 C.3     1  LIG1        0.0155
     21 C         -13.8335   -2.5166    3.7273 C.3     1  LIG1       -0.0307
     22 N          -2.4701   -1.1851   -1.7343 N.ar    1  LIG1       -0.2612
     23 N          -6.8831   -1.3905    0.6426 N.ar    1  LIG1       -0.2028
     24 N          -6.4205    0.3358    2.0707 N.ar    1  LIG1       -0.1113
     25 N          -9.0788   -3.2250    0.7644 N.ar    1  LIG1       -0.3108
     26 N         -14.4402   -2.0547    5.0002 N.4     1  LIG1        0.2420
     27 O          -7.5871   -0.3217    2.4809 O.2     1  LIG1       -0.1898
     28 H          -2.2062    1.9035   -4.0699 H       1  LIG1        0.0624
     29 H         -12.4457   -6.4174    0.5384 H       1  LIG1        0.0623
     30 H          -0.2454    0.3973   -3.7453 H       1  LIG1        0.0639
     31 H         -13.4383   -5.4356    2.5623 H       1  LIG1        0.0626
     32 H         -10.3616   -5.4742   -0.4442 H       1  LIG1        0.0642
     33 H          -4.3339    1.4100   -2.8838 H       1  LIG1        0.0642
     34 H         -10.0278   -1.6071    3.4366 H       1  LIG1        0.0651
     35 H          -0.5037   -1.5694   -2.2228 H       1  LIG1        0.0839
     36 H         -13.1869   -0.3758    5.2955 H       1  LIG1        0.0777
     37 H         -13.9848   -1.0061    6.7808 H       1  LIG1        0.0777
     38 H         -12.6080   -1.9050    6.0480 H       1  LIG1        0.0777
     39 H         -15.4896   -0.3983    4.2055 H       1  LIG1        0.0777
     40 H         -16.4144   -1.9421    4.2467 H       1  LIG1        0.0777
     41 H         -16.1224   -1.0267    5.7690 H       1  LIG1        0.0777
     42 H         -12.8600   -4.1758    4.6689 H       1  LIG1        0.0370
     43 H         -11.8624   -2.7417    4.5832 H       1  LIG1        0.0370
     44 H          -5.6372   -0.3616   -1.8208 H       1  LIG1        0.0336
     45 H          -4.8914   -1.7657   -1.0922 H       1  LIG1        0.0336
     46 H          -4.8160    1.0889    0.0419 H       1  LIG1        0.0353
     47 H          -3.9338   -0.2421    0.7549 H       1  LIG1        0.0353
     48 H         -14.5958   -3.1190    3.2244 H       1  LIG1        0.0818
     49 H         -13.6260   -1.6230    3.1308 H       1  LIG1        0.0818
     50 H          -8.4806   -3.4232   -0.0262 H       1  LIG1        0.1529
     51 H         -14.6933   -2.8921    5.5521 H       1  LIG1        0.1997
@<TRIPOS>BOND
     1     1     3   ar
     2     1     6   ar
     3     2     4   ar
     4     2     5   ar
     5     3     8   ar
     6     4    10   ar
     7     5    11   ar
     8     6    13   ar
     9     7     9   ar
    10     7    12   ar
    11     8    22   ar
    12     9    10   ar
    13     9    11   ar
    14    10    18    1
    15    11    25   ar
    16    12    14    1
    17    12    25   ar
    18    13    19    1
    19    13    22   ar
    20    14    23   ar
    21    14    27   ar
    22    15    20    1
    23    15    23   ar
    24    15    24   ar
    25    16    26    1
    26    17    26    1
    27    18    21    1
    28    19    20    1
    29    21    26    1
    30    24    27   ar
    31     1    28    1
    32     2    29    1
    33     3    30    1
    34     4    31    1
    35     5    32    1
    36     6    33    1
    37     7    34    1
    38     8    35    1
    39    16    36    1
    40    16    37    1
    41    16    38    1
    42    17    39    1
    43    17    40    1
    44    17    41    1
    45    18    42    1
    46    18    43    1
    47    19    44    1
    48    19    45    1
    49    20    46    1
    50    20    47    1
    51    21    48    1
    52    21    49    1
    53    25    50    1
    54    26    51    1
