@<TRIPOS>MOLECULE
ChEBML1012834
 37 40 0 0 0
SMALL
USER_CHARGES

@<TRIPOS>ATOM
      1 C         -12.7997   -4.2569    1.5030 C.ar    1  LIG1       -0.0614
      2 C          -1.5245   -0.4614   -3.2454 C.ar    1  LIG1       -0.0602
      3 C         -12.0177   -5.2586    0.9228 C.ar    1  LIG1       -0.0596
      4 C          -1.5218    0.9046   -3.5276 C.ar    1  LIG1       -0.0592
      5 C         -12.2233   -3.0648    1.9622 C.ar    1  LIG1       -0.0500
      6 C          -2.5975   -1.0296   -2.5587 C.ar    1  LIG1       -0.0377
      7 C         -10.6352   -5.1082    0.7796 C.ar    1  LIG1       -0.0305
      8 C          -2.5921    1.7024   -3.1229 C.ar    1  LIG1       -0.0244
      9 C          -8.8979    0.0116    2.8640 C.ar    1  LIG1        0.1172
     10 C         -10.8345   -2.8906    1.8288 C.ar    1  LIG1        0.0339
     11 C          -9.9000   -1.8738    2.1524 C.ar    1  LIG1        0.1083
     12 C          -3.6676   -0.2318   -2.1540 C.ar    1  LIG1        0.0687
     13 C         -10.0885   -3.9131    1.2446 C.ar    1  LIG1        0.0918
     14 C          -8.6580   -2.3394    1.7474 C.ar    1  LIG1        0.1407
     15 C          -3.6650    1.1342   -2.4362 C.ar    1  LIG1        0.1441
     16 C          -7.5168   -1.5842    1.9184 C.ar    1  LIG1        0.1314
     17 C          -4.9163   -2.1442   -1.0985 C.2     1  LIG1        0.2265
     18 C          -6.2164   -2.3796   -0.3597 C.3     1  LIG1        0.0770
     19 N         -10.0631   -0.6609    2.7346 N.ar    1  LIG1       -0.2333
     20 N          -7.6508   -0.3698    2.4969 N.ar    1  LIG1       -0.2271
     21 N          -4.7553   -0.8114   -1.4574 N.am    1  LIG1       -0.2822
     22 O          -4.1533   -3.0787   -1.3302 O.2     1  LIG1       -0.2763
     23 O          -8.7661   -3.5760    1.1960 O.2     1  LIG1       -0.3046
     24 F          -4.6882    1.9110   -2.0520 F       1  LIG1       -0.2049
     25 S          -5.9294   -2.1538    1.4130 S.3     1  LIG1       -0.0938
     26 H         -13.8725   -4.4029    1.5997 H       1  LIG1        0.0623
     27 H          -0.6907   -1.0820   -3.5601 H       1  LIG1        0.0623
     28 H         -12.4928   -6.1728    0.5757 H       1  LIG1        0.0623
     29 H          -0.6863    1.3473   -4.0619 H       1  LIG1        0.0624
     30 H         -12.8444   -2.2952    2.4105 H       1  LIG1        0.0631
     31 H          -2.5883   -2.0953   -2.3442 H       1  LIG1        0.0643
     32 H         -10.0229   -5.8814    0.3310 H       1  LIG1        0.0650
     33 H          -2.5899    2.7657   -3.3424 H       1  LIG1        0.0654
     34 H          -8.9701    0.9908    3.3249 H       1  LIG1        0.1063
     35 H          -6.9582   -1.6554   -0.7102 H       1  LIG1        0.0484
     36 H          -6.6116   -3.3828   -0.5424 H       1  LIG1        0.0484
     37 H          -5.5058   -0.1789   -1.1886 H       1  LIG1        0.1557
@<TRIPOS>BOND
     1     1     3   ar
     2     1     5   ar
     3     2     4   ar
     4     2     6   ar
     5     3     7   ar
     6     4     8   ar
     7     5    10   ar
     8     6    12   ar
     9     7    13   ar
    10     8    15   ar
    11     9    19   ar
    12     9    20   ar
    13    10    11   ar
    14    10    13   ar
    15    11    14   ar
    16    11    19   ar
    17    12    15   ar
    18    12    21    1
    19    13    23   ar
    20    14    16   ar
    21    14    23   ar
    22    15    24    1
    23    16    20   ar
    24    16    25    1
    25    17    18    1
    26    17    21   am
    27    17    22    2
    28    18    25    1
    29     1    26    1
    30     2    27    1
    31     3    28    1
    32     4    29    1
    33     5    30    1
    34     6    31    1
    35     7    32    1
    36     8    33    1
    37     9    34    1
    38    18    35    1
    39    18    36    1
    40    21    37    1
