@<TRIPOS>MOLECULE
ChEBML368765
 53 57 0 0 0
SMALL
USER_CHARGES

@<TRIPOS>ATOM
      1 C          -6.0405   -2.3988   -0.1980 C.ar    1  LIG1       -0.0499
      2 C          -4.7849   -2.1907   -0.7823 C.ar    1  LIG1       -0.0489
      3 C         -11.9375   -5.5833    1.2478 C.ar    1  LIG1       -0.0519
      4 C         -10.5671   -5.3637    1.0819 C.ar    1  LIG1       -0.0397
      5 C         -12.2850   -3.2753    1.9182 C.ar    1  LIG1       -0.0446
      6 C         -10.0771   -1.8862    1.9264 C.ar    1  LIG1       -0.0293
      7 C          -4.3568   -0.2792    0.6638 C.ar    1  LIG1       -0.0261
      8 C          -6.4545   -1.5340    0.8288 C.ar    1  LIG1        0.0265
      9 C         -10.9068   -3.0301    1.7579 C.ar    1  LIG1       -0.0018
     10 C          -3.9589   -1.1482   -0.3573 C.ar    1  LIG1        0.0389
     11 C         -12.7851   -4.5567    1.6593 C.ar    1  LIG1       -0.0035
     12 C         -10.0812   -4.0778    1.3444 C.ar    1  LIG1        0.0377
     13 C          -5.6123   -0.5040    1.2328 C.ar    1  LIG1        0.0578
     14 C          -7.5939   -1.3970    1.6505 C.ar    1  LIG1        0.1116
     15 C          -8.7880   -2.2550    1.6179 C.ar    1  LIG1        0.0593
     16 C          -2.6603   -0.9599   -0.9860 C.2     1  LIG1        0.2428
     17 C         -16.4612   -4.6562    0.6737 C.3     1  LIG1       -0.0098
     18 C         -14.7558   -6.2669   -0.1504 C.3     1  LIG1       -0.0098
     19 C         -17.1057   -4.7349   -0.6998 C.3     1  LIG1        0.0859
     20 C         -15.4888   -6.2627   -1.4812 C.3     1  LIG1        0.0859
     21 C          -0.7542   -2.0723   -2.1739 C.3     1  LIG1       -0.0001
     22 C         -14.2514   -4.8259    1.8279 C.3     1  LIG1       -0.0081
     23 N          -7.4973   -0.3752    2.5043 N.ar    1  LIG1       -0.1816
     24 N          -8.8006   -3.5785    1.2677 N.ar    1  LIG1       -0.3126
     25 N          -6.2900    0.1457    2.2290 N.ar    1  LIG1       -0.2372
     26 N          -2.0516   -2.0929   -1.5373 N.am    1  LIG1       -0.3144
     27 N         -14.9841   -4.9331    0.5215 N.4     1  LIG1        0.2526
     28 O          -2.1246    0.1622   -1.0027 O.2     1  LIG1       -0.2719
     29 O         -16.8824   -6.0185   -1.2852 O.3     1  LIG1       -0.3705
     30 H          -6.6702   -3.2156   -0.5377 H       1  LIG1        0.0631
     31 H          -4.4603   -2.8570   -1.5787 H       1  LIG1        0.0631
     32 H         -12.3381   -6.5752    1.0500 H       1  LIG1        0.0628
     33 H          -9.9076   -6.1634    0.7620 H       1  LIG1        0.0643
     34 H         -12.9494   -2.4771    2.2390 H       1  LIG1        0.0635
     35 H         -10.3962   -0.9014    2.2410 H       1  LIG1        0.0650
     36 H          -3.7239    0.5349    1.0016 H       1  LIG1        0.0651
     37 H         -16.5720   -3.6591    1.1104 H       1  LIG1        0.0839
     38 H         -16.8633   -5.4158    1.3530 H       1  LIG1        0.0839
     39 H         -15.1465   -7.0372    0.5234 H       1  LIG1        0.0839
     40 H         -13.6777   -6.3923   -0.2884 H       1  LIG1        0.0839
     41 H         -18.1876   -4.5958   -0.6091 H       1  LIG1        0.0622
     42 H         -16.7271   -3.9547   -1.3709 H       1  LIG1        0.0622
     43 H         -15.0779   -5.5135   -2.1684 H       1  LIG1        0.0622
     44 H         -15.3880   -7.2406   -1.9625 H       1  LIG1        0.0622
     45 H          -0.8672   -1.9395   -3.2529 H       1  LIG1        0.0430
     46 H          -0.2272   -3.0122   -1.9883 H       1  LIG1        0.0430
     47 H          -0.1525   -1.2493   -1.7791 H       1  LIG1        0.0430
     48 H         -14.4224   -5.7665    2.3626 H       1  LIG1        0.0869
     49 H         -14.7376   -4.0258    2.3965 H       1  LIG1        0.0869
     50 H          -7.9891   -4.1144    0.9922 H       1  LIG1        0.1528
     51 H          -5.9850    0.9513    2.7609 H       1  LIG1        0.1755
     52 H          -2.5039   -2.9961   -1.4404 H       1  LIG1        0.1493
     53 H         -14.5952   -4.2061   -0.0948 H       1  LIG1        0.2009
@<TRIPOS>BOND
     1     1     2   ar
     2     1     8   ar
     3     2    10   ar
     4     3     4   ar
     5     3    11   ar
     6     4    12   ar
     7     5     9   ar
     8     5    11   ar
     9     6     9   ar
    10     6    15   ar
    11     7    10   ar
    12     7    13   ar
    13     8    13   ar
    14     8    14   ar
    15     9    12   ar
    16    10    16    1
    17    11    22    1
    18    12    24   ar
    19    13    25   ar
    20    14    15    1
    21    14    23   ar
    22    15    24   ar
    23    16    26   am
    24    16    28    2
    25    17    19    1
    26    17    27    1
    27    18    20    1
    28    18    27    1
    29    19    29    1
    30    20    29    1
    31    21    26    1
    32    22    27    1
    33    23    25   ar
    34     1    30    1
    35     2    31    1
    36     3    32    1
    37     4    33    1
    38     5    34    1
    39     6    35    1
    40     7    36    1
    41    17    37    1
    42    17    38    1
    43    18    39    1
    44    18    40    1
    45    19    41    1
    46    19    42    1
    47    20    43    1
    48    20    44    1
    49    21    45    1
    50    21    46    1
    51    21    47    1
    52    22    48    1
    53    22    49    1
    54    24    50    1
    55    25    51    1
    56    26    52    1
    57    27    53    1
