@<TRIPOS>MOLECULE
ChEBML92522
 44 46 0 0 0
SMALL
USER_CHARGES

@<TRIPOS>ATOM
      1 C         -12.9554   -5.8894    0.3149 C.1     1  LIG1        0.1106
      2 C         -12.9607   -3.9534    1.8348 C.1     1  LIG1        0.1106
      3 C          -1.7035    1.0381   -3.8754 C.ar    1  LIG1       -0.0621
      4 C          -3.0064    1.4580   -3.6077 C.ar    1  LIG1       -0.0604
      5 C          -1.1637   -0.0455   -3.1823 C.ar    1  LIG1       -0.0604
      6 C          -3.7696    0.7944   -2.6470 C.ar    1  LIG1       -0.0409
      7 C          -1.9268   -0.7089   -2.2215 C.ar    1  LIG1       -0.0409
      8 C         -10.4641   -2.1824    1.4188 C.ar    1  LIG1       -0.0390
      9 C          -9.2344   -1.5956    1.8068 C.ar    1  LIG1       -0.0378
     10 C          -3.2298   -0.2891   -1.9538 C.ar    1  LIG1        0.0289
     11 C         -10.1945   -3.4690    1.0076 C.ar    1  LIG1        0.0323
     12 C          -8.2505   -2.5415    1.6208 C.ar    1  LIG1        0.0518
     13 C         -10.9849   -4.5222    0.5217 C.2     1  LIG1       -0.0122
     14 C         -12.2755   -4.7682    0.8823 C.2     1  LIG1        0.1310
     15 C          -5.2299   -1.5435   -1.5069 C.3     1  LIG1        0.0509
     16 C          -4.0824   -0.2601    0.2907 C.3     1  LIG1        0.0509
     17 C          -5.8564   -2.4510   -0.4568 C.3     1  LIG1       -0.0177
     18 C          -4.7159   -1.1676    1.3376 C.3     1  LIG1       -0.0177
     19 C          -6.7713   -2.4784    1.8632 C.3     1  LIG1        0.0051
     20 N         -13.5098   -6.7993   -0.1452 N.1     1  LIG1       -0.1916
     21 N         -13.5211   -3.2951    2.6092 N.1     1  LIG1       -0.1916
     22 N          -8.8456   -3.6763    1.1344 N.ar    1  LIG1       -0.3139
     23 N          -3.9864   -0.9475   -1.0009 N.pl3   1  LIG1       -0.3203
     24 N          -6.0380   -1.6771    0.8243 N.4     1  LIG1        0.2525
     25 H          -1.1093    1.5550   -4.6234 H       1  LIG1        0.0622
     26 H          -3.4265    2.3014   -4.1473 H       1  LIG1        0.0623
     27 H          -0.1490   -0.3723   -3.3908 H       1  LIG1        0.0623
     28 H          -4.7837    1.1296   -2.4458 H       1  LIG1        0.0642
     29 H          -1.4957   -1.5522   -1.6879 H       1  LIG1        0.0642
     30 H         -11.4387   -1.7138    1.4396 H       1  LIG1        0.0643
     31 H          -9.0847   -0.5926    2.1815 H       1  LIG1        0.0642
     32 H         -10.5122   -5.2277   -0.1790 H       1  LIG1        0.0664
     33 H          -5.0266   -2.1372   -2.4068 H       1  LIG1        0.0524
     34 H          -5.9350   -0.7498   -1.7867 H       1  LIG1        0.0524
     35 H          -4.6770    0.6564    0.1810 H       1  LIG1        0.0524
     36 H          -3.0847    0.0336    0.6397 H       1  LIG1        0.0524
     37 H          -6.8439   -2.7948   -0.7811 H       1  LIG1        0.0831
     38 H          -5.2206   -3.3156   -0.2339 H       1  LIG1        0.0831
     39 H          -4.0874   -2.0392    1.5540 H       1  LIG1        0.0831
     40 H          -4.9087   -0.6151    2.2631 H       1  LIG1        0.0831
     41 H          -6.5480   -2.0174    2.8313 H       1  LIG1        0.0882
     42 H          -6.3268   -3.4795    1.8598 H       1  LIG1        0.0882
     43 H          -8.3596   -4.5338    0.9069 H       1  LIG1        0.1526
     44 H          -6.6268   -0.8594    0.6141 H       1  LIG1        0.2009
@<TRIPOS>BOND
     1     1    14    1
     2     1    20    3
     3     2    14    1
     4     2    21    3
     5     3     4   ar
     6     3     5   ar
     7     4     6   ar
     8     5     7   ar
     9     6    10   ar
    10     7    10   ar
    11     8     9   ar
    12     8    11   ar
    13     9    12   ar
    14    10    23    1
    15    11    13    1
    16    11    22   ar
    17    12    19    1
    18    12    22   ar
    19    13    14    2
    20    15    17    1
    21    15    23    1
    22    16    18    1
    23    16    23    1
    24    17    24    1
    25    18    24    1
    26    19    24    1
    27     3    25    1
    28     4    26    1
    29     5    27    1
    30     6    28    1
    31     7    29    1
    32     8    30    1
    33     9    31    1
    34    13    32    1
    35    15    33    1
    36    15    34    1
    37    16    35    1
    38    16    36    1
    39    17    37    1
    40    17    38    1
    41    18    39    1
    42    18    40    1
    43    19    41    1
    44    19    42    1
    45    22    43    1
    46    24    44    1
