@<TRIPOS>MOLECULE
ChEBML199184
 54 56 0 0 0
SMALL
USER_CHARGES

@<TRIPOS>ATOM
      1 C          -2.2251    0.9422   -3.4710 C.ar    1  LIG1       -0.0431
      2 C          -1.9721   -0.4017   -3.2201 C.ar    1  LIG1       -0.0449
      3 C         -11.6361   -5.3543    0.8039 C.ar    1  LIG1       -0.0566
      4 C         -11.9818   -2.9667    0.9346 C.ar    1  LIG1       -0.0566
      5 C         -10.2699   -5.1680    1.0143 C.ar    1  LIG1       -0.0404
      6 C         -10.6155   -2.7804    1.1451 C.ar    1  LIG1       -0.0404
      7 C          -3.3164    1.5245   -2.8468 C.ar    1  LIG1        0.0291
      8 C         -12.4921   -4.2536    0.7639 C.ar    1  LIG1       -0.0425
      9 C          -2.8064   -1.1124   -2.3644 C.ar    1  LIG1        0.0957
     10 C          -9.7596   -3.8811    1.1849 C.ar    1  LIG1        0.0340
     11 C          -3.8717   -0.4382   -1.7895 C.ar    1  LIG1        0.1323
     12 C          -7.8714   -2.4265    1.6419 C.2     1  LIG1        0.3050
     13 C          -4.8327   -0.6853    0.4436 C.3     1  LIG1        0.0288
     14 C          -5.7843   -1.9243   -1.5250 C.3     1  LIG1        0.0288
     15 C          -6.2997   -0.6743    0.8673 C.3     1  LIG1        0.0315
     16 C          -6.4741   -2.7717   -0.4548 C.3     1  LIG1        0.0315
     17 C         -14.5816   -5.3409    1.6572 C.3     1  LIG1       -0.0561
     18 C         -14.2243   -5.1554   -0.8276 C.3     1  LIG1       -0.0561
     19 C         -14.8127   -3.1458    0.5128 C.3     1  LIG1       -0.0561
     20 C         -13.9528   -4.4530    0.5389 C.3     1  LIG1       -0.0132
     21 C          -2.5316   -2.5533   -2.0977 C.3     1  LIG1        0.4193
     22 N          -4.1492    0.8665   -2.0095 N.ar    1  LIG1       -0.2408
     23 N          -4.6964   -1.1350   -0.9444 N.pl3   1  LIG1       -0.3122
     24 N          -6.9180   -1.9884    0.7035 N.am    1  LIG1       -0.2824
     25 N          -8.3888   -3.6939    1.3964 N.am    1  LIG1       -0.2691
     26 O          -8.2162   -1.7439    2.6121 O.2     1  LIG1       -0.2537
     27 F          -1.4363   -3.0336   -2.7581 F       1  LIG1       -0.1660
     28 F          -2.3028   -2.8320   -0.7801 F       1  LIG1       -0.1660
     29 F          -3.5661   -3.3631   -2.4685 F       1  LIG1       -0.1660
     30 H          -1.5878    1.5160   -4.1341 H       1  LIG1        0.0639
     31 H          -1.1232   -0.8855   -3.6954 H       1  LIG1        0.0631
     32 H         -12.0247   -6.3604    0.6696 H       1  LIG1        0.0626
     33 H         -12.6414   -2.1035    0.9043 H       1  LIG1        0.0626
     34 H          -9.6121   -6.0331    1.0439 H       1  LIG1        0.0642
     35 H         -10.2283   -1.7731    1.2757 H       1  LIG1        0.0642
     36 H          -3.5579    2.5697   -3.0098 H       1  LIG1        0.0840
     37 H          -4.4157    0.3210    0.5746 H       1  LIG1        0.0485
     38 H          -4.2600   -1.3640    1.0871 H       1  LIG1        0.0485
     39 H          -5.3963   -2.5835   -2.3109 H       1  LIG1        0.0485
     40 H          -6.5151   -1.2489   -1.9883 H       1  LIG1        0.0485
     41 H          -6.3842   -0.3442    1.9080 H       1  LIG1        0.0486
     42 H          -6.8746    0.0290    0.2526 H       1  LIG1        0.0486
     43 H          -7.3335   -3.2831   -0.9005 H       1  LIG1        0.0486
     44 H          -5.7858   -3.5362   -0.0747 H       1  LIG1        0.0486
     45 H         -15.6564   -5.5031    1.5152 H       1  LIG1        0.0239
     46 H         -14.1113   -6.3296    1.6964 H       1  LIG1        0.0239
     47 H         -14.4417   -4.8709    2.6379 H       1  LIG1        0.0239
     48 H         -15.2965   -5.3036   -0.9967 H       1  LIG1        0.0239
     49 H         -13.8417   -4.5837   -1.6813 H       1  LIG1        0.0239
     50 H         -13.7485   -6.1430   -0.8474 H       1  LIG1        0.0239
     51 H         -15.8782   -3.3440    0.3446 H       1  LIG1        0.0239
     52 H         -14.7321   -2.6068    1.4640 H       1  LIG1        0.0239
     53 H         -14.4797   -2.4760   -0.2887 H       1  LIG1        0.0239
     54 H          -7.8102   -4.5257    1.4169 H       1  LIG1        0.1573
@<TRIPOS>BOND
     1     1     2   ar
     2     1     7   ar
     3     2     9   ar
     4     3     5   ar
     5     3     8   ar
     6     4     6   ar
     7     4     8   ar
     8     5    10   ar
     9     6    10   ar
    10     7    22   ar
    11     8    20    1
    12     9    11   ar
    13     9    21    1
    14    10    25    1
    15    11    22   ar
    16    11    23    1
    17    12    24   am
    18    12    25   am
    19    12    26    2
    20    13    15    1
    21    13    23    1
    22    14    16    1
    23    14    23    1
    24    15    24    1
    25    16    24    1
    26    17    20    1
    27    18    20    1
    28    19    20    1
    29    21    27    1
    30    21    28    1
    31    21    29    1
    32     1    30    1
    33     2    31    1
    34     3    32    1
    35     4    33    1
    36     5    34    1
    37     6    35    1
    38     7    36    1
    39    13    37    1
    40    13    38    1
    41    14    39    1
    42    14    40    1
    43    15    41    1
    44    15    42    1
    45    16    43    1
    46    16    44    1
    47    17    45    1
    48    17    46    1
    49    17    47    1
    50    18    48    1
    51    18    49    1
    52    18    50    1
    53    19    51    1
    54    19    52    1
    55    19    53    1
    56    25    54    1
