@<TRIPOS>MOLECULE
ChEBML1858
 53 56 0 0 0
SMALL
USER_CHARGES

@<TRIPOS>ATOM
      1 C          -2.3528    1.0982   -3.4636 C.ar    1  LIG1       -0.0418
      2 C         -10.3280   -5.1565    0.4652 C.ar    1  LIG1       -0.0376
      3 C          -1.7769   -0.0909   -3.0369 C.ar    1  LIG1       -0.0360
      4 C         -11.6416   -5.5195    0.6554 C.ar    1  LIG1       -0.0299
      5 C         -12.0480   -3.5277    1.9409 C.ar    1  LIG1       -0.0226
      6 C          -9.9558   -2.0256    2.1775 C.ar    1  LIG1       -0.0261
      7 C          -3.5298    1.5268   -2.8842 C.ar    1  LIG1        0.0292
      8 C         -10.7126   -3.1452    1.7554 C.ar    1  LIG1        0.0004
      9 C          -9.8474   -3.9692    1.0102 C.ar    1  LIG1        0.0380
     10 C          -2.4125   -0.8110   -2.0340 C.ar    1  LIG1        0.0670
     11 C         -12.5024   -4.7075    1.3918 C.ar    1  LIG1        0.0753
     12 C          -8.6917   -2.1771    1.7027 C.ar    1  LIG1        0.0947
     13 C          -3.6047   -0.3174   -1.4981 C.ar    1  LIG1        0.1412
     14 C          -7.5830   -1.2344    1.9140 C.2     1  LIG1        0.2599
     15 C          -4.4698   -0.0948    0.6161 C.3     1  LIG1        0.0288
     16 C          -5.5792   -1.3874   -1.0248 C.3     1  LIG1        0.0288
     17 C          -5.1670   -0.8203    1.7714 C.3     1  LIG1        0.0303
     18 C          -6.3495   -2.1983    0.0222 C.3     1  LIG1        0.0303
     19 C          -0.3089   -3.8980   -1.5343 C.3     1  LIG1       -0.0497
     20 C         -13.9641   -6.3291    0.8932 C.3     1  LIG1        0.0422
     21 C          -0.6952   -2.5912   -2.2302 C.3     1  LIG1        0.0056
     22 N          -4.1144    0.8233   -1.9320 N.ar    1  LIG1       -0.2394
     23 N          -8.6157   -3.3547    0.9850 N.ar    1  LIG1       -0.3101
     24 N          -4.2585   -1.0294   -0.4952 N.pl3   1  LIG1       -0.3112
     25 N          -6.4158   -1.4101    1.2633 N.am    1  LIG1       -0.2936
     26 N          -1.8703   -2.0159   -1.5712 N.pl3   1  LIG1       -0.3419
     27 O          -7.7193   -0.2960    2.6760 O.2     1  LIG1       -0.2701
     28 O         -13.7977   -5.0815    1.5699 O.3     1  LIG1       -0.3493
     29 H          -1.8838    1.6825   -4.2414 H       1  LIG1        0.0639
     30 H          -9.6696   -5.7932   -0.1071 H       1  LIG1        0.0643
     31 H          -0.8561   -0.4472   -3.4744 H       1  LIG1        0.0644
     32 H         -12.0087   -6.4419    0.2305 H       1  LIG1        0.0651
     33 H         -12.7176   -2.9012    2.5115 H       1  LIG1        0.0657
     34 H         -10.3182   -1.1991    2.7709 H       1  LIG1        0.0651
     35 H          -3.9792    2.4517   -3.2145 H       1  LIG1        0.0840
     36 H          -3.5078    0.2887    0.9559 H       1  LIG1        0.0485
     37 H          -5.0924    0.7343    0.2797 H       1  LIG1        0.0485
     38 H          -6.1340   -0.4794   -1.2610 H       1  LIG1        0.0485
     39 H          -5.4581   -1.9841   -1.9290 H       1  LIG1        0.0485
     40 H          -4.5184   -1.6079    2.1549 H       1  LIG1        0.0486
     41 H          -5.3933   -0.1107    2.5672 H       1  LIG1        0.0486
     42 H          -5.8320   -3.1387    0.2119 H       1  LIG1        0.0486
     43 H          -7.3579   -2.4001   -0.3388 H       1  LIG1        0.0486
     44 H          -1.1397   -4.6010   -1.5943 H       1  LIG1        0.0246
     45 H           0.5654   -4.3261   -2.0247 H       1  LIG1        0.0246
     46 H          -0.0771   -3.6979   -0.4882 H       1  LIG1        0.0246
     47 H         -13.7407   -6.2006   -0.1659 H       1  LIG1        0.0535
     48 H         -13.2859   -7.0676    1.3206 H       1  LIG1        0.0535
     49 H         -14.9928   -6.6707    1.0086 H       1  LIG1        0.0535
     50 H           0.1358   -1.8883   -2.1702 H       1  LIG1        0.0463
     51 H          -0.9269   -2.7915   -3.2763 H       1  LIG1        0.0463
     52 H          -7.8240   -3.6943    0.5390 H       1  LIG1        0.1529
     53 H          -2.2725   -2.4697   -0.8141 H       1  LIG1        0.1466
@<TRIPOS>BOND
     1     1     3   ar
     2     1     7   ar
     3     2     4   ar
     4     2     9   ar
     5     3    10   ar
     6     4    11   ar
     7     5     8   ar
     8     5    11   ar
     9     6     8   ar
    10     6    12   ar
    11     7    22   ar
    12     8     9   ar
    13     9    23   ar
    14    10    13   ar
    15    10    26    1
    16    11    28    1
    17    12    14    1
    18    12    23   ar
    19    13    22   ar
    20    13    24    1
    21    14    25   am
    22    14    27    2
    23    15    17    1
    24    15    24    1
    25    16    18    1
    26    16    24    1
    27    17    25    1
    28    18    25    1
    29    19    21    1
    30    20    28    1
    31    21    26    1
    32     1    29    1
    33     2    30    1
    34     3    31    1
    35     4    32    1
    36     5    33    1
    37     6    34    1
    38     7    35    1
    39    15    36    1
    40    15    37    1
    41    16    38    1
    42    16    39    1
    43    17    40    1
    44    17    41    1
    45    18    42    1
    46    18    43    1
    47    19    44    1
    48    19    45    1
    49    19    46    1
    50    20    47    1
    51    20    48    1
    52    20    49    1
    53    21    50    1
    54    21    51    1
    55    23    52    1
    56    26    53    1
