@<TRIPOS>MOLECULE
ChEBML411644
 37 39 0 0 0
SMALL
USER_CHARGES

@<TRIPOS>ATOM
      1 C         -10.9841   -1.9106    2.6103 C.ar    1  LIG1       -0.0519
      2 C          -3.4801   -2.2059   -0.5979 C.ar    1  LIG1       -0.0556
      3 C          -4.6629   -0.1123   -0.3642 C.ar    1  LIG1       -0.0556
      4 C          -9.6303   -1.5661    2.5731 C.ar    1  LIG1       -0.0400
      5 C          -2.8842   -1.7385   -1.7693 C.ar    1  LIG1       -0.0260
      6 C          -4.0670    0.3552   -1.5355 C.ar    1  LIG1       -0.0260
      7 C         -12.7779   -3.5881    1.7878 C.ar    1  LIG1       -0.0344
      8 C          -9.1669   -3.4507    1.1299 C.ar    1  LIG1       -0.0261
      9 C         -11.4554   -3.0417    1.9011 C.ar    1  LIG1       -0.0102
     10 C          -4.3695   -1.3928    0.1046 C.ar    1  LIG1       -0.0387
     11 C          -8.7331   -2.3296    1.8399 C.ar    1  LIG1        0.0336
     12 C          -3.1777   -0.4580   -2.2381 C.ar    1  LIG1        0.1228
     13 C         -10.5322   -3.7953    1.1697 C.ar    1  LIG1        0.0215
     14 C         -12.8269   -4.7108    0.9961 C.ar    1  LIG1        0.0775
     15 C         -13.9551   -5.5160    0.6571 C.2     1  LIG1        0.2724
     16 C          -6.3321   -2.6146    1.1334 C.2     1  LIG1        0.2204
     17 C          -5.0127   -1.8965    1.3700 C.3     1  LIG1        0.0498
     18 N          -7.3834   -1.9749    1.8105 N.am    1  LIG1       -0.2851
     19 N         -15.2044   -5.1546    1.1766 N.am    1  LIG1       -0.1935
     20 O         -13.8515   -6.5195   -0.0960 O.2     1  LIG1       -0.2690
     21 O          -6.4153   -3.6198    0.4350 O.2     1  LIG1       -0.2769
     22 O         -16.3107   -5.9430    0.8282 O.3     1  LIG1       -0.2964
     23 F          -2.6035   -0.0080   -3.3615 F       1  LIG1       -0.2069
     24 S         -11.2931   -5.1255    0.3791 S.2     1  LIG1       -0.0837
     25 H         -11.6752   -1.3027    3.1892 H       1  LIG1        0.0630
     26 H          -3.2459   -3.2053   -0.2409 H       1  LIG1        0.0627
     27 H          -5.3544    0.5285    0.1767 H       1  LIG1        0.0627
     28 H          -9.2923   -0.6928    3.1259 H       1  LIG1        0.0642
     29 H          -2.1914   -2.3711   -2.3159 H       1  LIG1        0.0653
     30 H          -4.2955    1.3519   -1.9011 H       1  LIG1        0.0653
     31 H         -13.6502   -3.1654    2.2721 H       1  LIG1        0.0643
     32 H          -8.4647   -4.0497    0.5552 H       1  LIG1        0.0654
     33 H          -4.3268   -2.5818    1.8842 H       1  LIG1        0.0414
     34 H          -5.1862   -1.0557    2.0534 H       1  LIG1        0.0414
     35 H          -7.1268   -1.1417    2.3519 H       1  LIG1        0.1556
     36 H         -15.3057   -4.3504    1.7840 H       1  LIG1        0.1839
     37 H         -15.8788   -6.6024    0.2588 H       1  LIG1        0.2427
@<TRIPOS>BOND
     1     1     4   ar
     2     1     9   ar
     3     2     5   ar
     4     2    10   ar
     5     3     6   ar
     6     3    10   ar
     7     4    11   ar
     8     5    12   ar
     9     6    12   ar
    10     7     9   ar
    11     7    14   ar
    12     8    11   ar
    13     8    13   ar
    14     9    13   ar
    15    10    17    1
    16    11    18    1
    17    12    23    1
    18    13    24   ar
    19    14    15    1
    20    14    24   ar
    21    15    19   am
    22    15    20    2
    23    16    17    1
    24    16    18   am
    25    16    21    2
    26    19    22    1
    27     1    25    1
    28     2    26    1
    29     3    27    1
    30     4    28    1
    31     5    29    1
    32     6    30    1
    33     7    31    1
    34     8    32    1
    35    17    33    1
    36    17    34    1
    37    18    35    1
    38    19    36    1
    39    22    37    1
