@<TRIPOS>MOLECULE
ChEBML390739
 37 39 0 0 0
SMALL
USER_CHARGES

@<TRIPOS>ATOM
      1 C         -12.5393   -4.7147    1.3951 C.ar    1  LIG1       -0.0615
      2 C         -11.6797   -5.5305    0.6621 C.ar    1  LIG1       -0.0603
      3 C          -4.2762   -3.1067    1.0808 C.ar    1  LIG1       -0.0609
      4 C         -12.0854   -3.5144    1.9536 C.ar    1  LIG1       -0.0530
      5 C          -3.6950   -2.2297    0.1649 C.ar    1  LIG1       -0.0549
      6 C          -5.5277   -2.8182    1.6250 C.ar    1  LIG1       -0.0509
      7 C         -10.3426   -5.1744    0.4638 C.ar    1  LIG1       -0.0402
      8 C          -9.9603   -2.0182    2.1779 C.ar    1  LIG1       -0.0276
      9 C          -5.6170   -0.7758    0.3374 C.ar    1  LIG1       -0.0437
     10 C         -10.7413   -3.1346    1.7670 C.ar    1  LIG1       -0.0022
     11 C          -4.3654   -1.0644   -0.2069 C.ar    1  LIG1       -0.0247
     12 C          -6.1981   -1.6528    1.2533 C.ar    1  LIG1        0.0244
     13 C          -9.9027   -3.9716    1.0279 C.ar    1  LIG1        0.0378
     14 C          -8.6863   -2.1961    1.6896 C.ar    1  LIG1        0.0797
     15 C          -3.7583   -0.1508   -1.1622 C.2     1  LIG1       -0.0496
     16 C          -2.7741   -0.4723   -2.0315 C.2     1  LIG1        0.0033
     17 C          -7.5510   -1.3422    1.8425 C.2     1  LIG1        0.2066
     18 C          -2.2184    0.5508   -2.9603 C.2     1  LIG1        0.2584
     19 N          -8.6615   -3.3769    0.9972 N.ar    1  LIG1       -0.3112
     20 N          -1.7765   -0.0136   -4.1292 N.am    1  LIG1       -0.1945
     21 O          -7.6250   -0.2706    2.4878 O.2     1  LIG1       -0.2871
     22 O          -2.1790    1.7455   -2.6852 O.2     1  LIG1       -0.2703
     23 O          -1.2396    0.8779   -5.0685 O.3     1  LIG1       -0.2965
     24 H         -13.5752   -5.0126    1.5351 H       1  LIG1        0.0623
     25 H         -12.0535   -6.4585    0.2376 H       1  LIG1        0.0623
     26 H          -3.7537   -4.0139    1.3705 H       1  LIG1        0.0623
     27 H         -12.7664   -2.8876    2.5225 H       1  LIG1        0.0629
     28 H          -2.7189   -2.4683   -0.2510 H       1  LIG1        0.0629
     29 H          -5.9719   -3.5085    2.3377 H       1  LIG1        0.0630
     30 H          -9.6734   -5.8098   -0.1066 H       1  LIG1        0.0642
     31 H         -10.2987   -1.1768    2.7678 H       1  LIG1        0.0651
     32 H          -6.1435    0.1322    0.0508 H       1  LIG1        0.0636
     33 H          -4.1301    0.8799   -1.1461 H       1  LIG1        0.0631
     34 H          -2.3558   -1.4725   -2.0702 H       1  LIG1        0.0679
     35 H          -7.8508   -3.7601    0.5306 H       1  LIG1        0.1529
     36 H          -1.8342   -1.0111   -4.3030 H       1  LIG1        0.1839
     37 H          -1.3390    1.7174   -4.5886 H       1  LIG1        0.2427
@<TRIPOS>BOND
     1     1     2   ar
     2     1     4   ar
     3     2     7   ar
     4     3     5   ar
     5     3     6   ar
     6     4    10   ar
     7     5    11   ar
     8     6    12   ar
     9     7    13   ar
    10     8    10   ar
    11     8    14   ar
    12     9    11   ar
    13     9    12   ar
    14    10    13   ar
    15    11    15    1
    16    12    17    1
    17    13    19   ar
    18    14    17    1
    19    14    19   ar
    20    15    16    2
    21    16    18    1
    22    17    21    2
    23    18    20   am
    24    18    22    2
    25    20    23    1
    26     1    24    1
    27     2    25    1
    28     3    26    1
    29     4    27    1
    30     5    28    1
    31     6    29    1
    32     7    30    1
    33     8    31    1
    34     9    32    1
    35    15    33    1
    36    16    34    1
    37    19    35    1
    38    20    36    1
    39    23    37    1
