@<TRIPOS>MOLECULE
ChEBML368224
 53 56 0 0 0
SMALL
USER_CHARGES

@<TRIPOS>ATOM
      1 C         -10.3382   -5.4542    0.9933 C.ar    1  LIG1       -0.0387
      2 C         -11.7115   -5.7023    0.9136 C.ar    1  LIG1       -0.0416
      3 C         -12.2180   -3.3733    1.3789 C.ar    1  LIG1       -0.0343
      4 C         -10.0748   -1.9261    1.7201 C.ar    1  LIG1       -0.0157
      5 C         -10.8385   -3.0992    1.4641 C.ar    1  LIG1        0.0004
      6 C          -9.9322   -4.1439    1.2697 C.ar    1  LIG1        0.0387
      7 C         -12.6387   -4.6795    1.1031 C.ar    1  LIG1        0.0413
      8 C          -8.7446   -2.2748    1.6772 C.ar    1  LIG1        0.1129
      9 C          -4.6902   -1.1197   -0.3910 C.2     1  LIG1        0.2367
     10 C          -2.2898   -0.7397   -2.3963 C.2     1  LIG1        0.2348
     11 C          -6.4091   -1.3327   -2.0399 C.3     1  LIG1       -0.0087
     12 C          -5.5108   -0.1601   -2.3909 C.3     1  LIG1        0.0173
     13 C          -0.6711   -2.5855   -1.8804 C.3     1  LIG1        0.0378
     14 C          -0.4214   -0.4154   -0.7486 C.3     1  LIG1        0.0378
     15 C           0.8265   -2.5615   -2.1508 C.3     1  LIG1        0.0625
     16 C           1.0678   -0.4844   -1.0617 C.3     1  LIG1        0.0625
     17 C          -6.1032   -1.6151   -0.5732 C.3     1  LIG1        0.1114
     18 C          -3.1998    1.5672   -2.5369 C.3     1  LIG1       -0.0376
     19 C          -3.1073    0.3158   -1.6954 C.3     1  LIG1        0.0995
     20 N          -8.6686   -3.6143    1.4047 N.ar    1  LIG1       -0.3017
     21 N          -4.3820   -0.3029   -1.4889 N.am    1  LIG1       -0.2885
     22 N          -1.1800   -1.2249   -1.7081 N.am    1  LIG1       -0.2957
     23 N          -6.9521   -0.7986    0.3129 N.3     1  LIG1       -0.2767
     24 O          -3.9831   -1.3652    0.5756 O.2     1  LIG1       -0.2752
     25 O          -2.6260   -1.1174   -3.5213 O.2     1  LIG1       -0.2752
     26 O          -7.6105   -0.1695    2.7221 O.2     1  LIG1       -0.4751
     27 O          -6.2333   -2.2351    2.3215 O.2     1  LIG1       -0.4751
     28 O           1.5038   -1.8454   -1.1148 O.3     1  LIG1       -0.3781
     29 S          -7.2754   -1.3178    1.9019 S.O2    1  LIG1       -0.1539
     30 CL        -14.3240   -5.0232    0.9963 Cl      1  LIG1       -0.0843
     31 H          -9.6172   -6.2512    0.8457 H       1  LIG1        0.0643
     32 H         -12.0453   -6.7154    0.6993 H       1  LIG1        0.0639
     33 H         -12.9402   -2.5746    1.5265 H       1  LIG1        0.0645
     34 H         -10.4591   -0.9338    1.9149 H       1  LIG1        0.0663
     35 H          -7.4636   -1.1271   -2.2473 H       1  LIG1        0.0307
     36 H          -6.1118   -2.2020   -2.6402 H       1  LIG1        0.0307
     37 H          -5.1732   -0.1941   -3.4307 H       1  LIG1        0.0470
     38 H          -5.9942    0.8005   -2.1859 H       1  LIG1        0.0470
     39 H          -1.1971   -3.1050   -2.6869 H       1  LIG1        0.0493
     40 H          -0.8778   -3.1151   -0.9429 H       1  LIG1        0.0493
     41 H          -0.6189   -0.8451    0.2406 H       1  LIG1        0.0493
     42 H          -0.7499    0.6252   -0.7354 H       1  LIG1        0.0493
     43 H           1.2219   -3.5818   -2.1689 H       1  LIG1        0.0583
     44 H           1.0510   -2.0959   -3.1178 H       1  LIG1        0.0583
     45 H           1.2986    0.0060   -2.0150 H       1  LIG1        0.0583
     46 H           1.6400    0.0217   -0.2781 H       1  LIG1        0.0583
     47 H          -6.1931   -2.6753   -0.3249 H       1  LIG1        0.0617
     48 H          -3.6543    1.3686   -3.5144 H       1  LIG1        0.0255
     49 H          -3.8151    2.3199   -2.0326 H       1  LIG1        0.0255
     50 H          -2.2080    1.9960   -2.7147 H       1  LIG1        0.0255
     51 H          -2.6558    0.5130   -0.7243 H       1  LIG1        0.0604
     52 H          -7.8108   -4.1408    1.3135 H       1  LIG1        0.1540
     53 H          -6.9844    0.2043    0.1008 H       1  LIG1        0.1650
@<TRIPOS>BOND
     1     1     2   ar
     2     1     6   ar
     3     2     7   ar
     4     3     5   ar
     5     3     7   ar
     6     4     5   ar
     7     4     8   ar
     8     5     6   ar
     9     6    20   ar
    10     7    30    1
    11     8    20   ar
    12     8    29    1
    13     9    17    1
    14     9    21   am
    15     9    24    2
    16    10    19    1
    17    10    22   am
    18    10    25    2
    19    11    12    1
    20    11    17    1
    21    12    21    1
    22    13    15    1
    23    13    22    1
    24    14    16    1
    25    14    22    1
    26    15    28    1
    27    16    28    1
    28    17    23    1
    29    18    19    1
    30    19    21    1
    31    23    29    1
    32    26    29    2
    33    27    29    2
    34     1    31    1
    35     2    32    1
    36     3    33    1
    37     4    34    1
    38    11    35    1
    39    11    36    1
    40    12    37    1
    41    12    38    1
    42    13    39    1
    43    13    40    1
    44    14    41    1
    45    14    42    1
    46    15    43    1
    47    15    44    1
    48    16    45    1
    49    16    46    1
    50    17    47    1
    51    18    48    1
    52    18    49    1
    53    18    50    1
    54    19    51    1
    55    20    52    1
    56    23    53    1
