@<TRIPOS>MOLECULE
ChEBML890658
 42 44 0 0 0
SMALL
USER_CHARGES

@<TRIPOS>ATOM
      1 C          -2.4897    1.5137   -3.5953 C.ar    1  LIG1       -0.0594
      2 C          -1.3519    0.7891   -3.2408 C.ar    1  LIG1       -0.0591
      3 C         -12.2866   -4.9736    1.4640 C.ar    1  LIG1       -0.0573
      4 C         -12.0839   -3.7601    2.1296 C.ar    1  LIG1       -0.0383
      5 C          -3.7311    1.1687   -3.0607 C.ar    1  LIG1       -0.0318
      6 C          -9.9974   -4.9855    0.6352 C.ar    1  LIG1       -0.0315
      7 C          -2.6966   -0.6259   -1.8172 C.ar    1  LIG1       -0.0289
      8 C         -11.2632   -5.5771    0.7294 C.ar    1  LIG1       -0.0488
      9 C          -1.4553   -0.2808   -2.3518 C.ar    1  LIG1       -0.0485
     10 C          -9.7760   -3.7661    1.2975 C.ar    1  LIG1        0.0874
     11 C         -10.8153   -3.1892    2.0218 C.ar    1  LIG1        0.0580
     12 C          -3.8345    0.0988   -2.1716 C.ar    1  LIG1        0.0752
     13 C          -8.9779   -1.9601    2.1102 C.ar    1  LIG1        0.1575
     14 C         -11.5195   -6.8729    0.0333 C.3     1  LIG1       -0.0397
     15 C          -0.2388   -1.0559   -1.9732 C.3     1  LIG1       -0.0397
     16 C          -6.3641   -0.4701    0.3470 C.3     1  LIG1       -0.0195
     17 C          -5.0547   -0.8197   -0.3487 C.3     1  LIG1        0.0541
     18 C          -6.4156   -1.0545    1.7532 C.3     1  LIG1        0.0030
     19 N          -8.6426   -2.9886    1.3641 N.ar    1  LIG1       -0.2249
     20 N         -10.2766   -2.0353    2.5306 N.ar    1  LIG1       -0.2923
     21 O          -5.0543   -0.2398   -1.6458 O.3     1  LIG1       -0.3460
     22 S          -7.9833   -0.6303    2.5681 S.3     1  LIG1       -0.0905
     23 H          -2.4091    2.3469   -4.2871 H       1  LIG1        0.0623
     24 H          -0.3892    1.0650   -3.6629 H       1  LIG1        0.0625
     25 H         -13.2635   -5.4485    1.5256 H       1  LIG1        0.0626
     26 H         -12.8772   -3.2901    2.6999 H       1  LIG1        0.0643
     27 H          -4.6136    1.7371   -3.3408 H       1  LIG1        0.0650
     28 H          -9.2016   -5.4547    0.0644 H       1  LIG1        0.0649
     29 H          -2.7804   -1.4597   -1.1240 H       1  LIG1        0.0653
     30 H         -11.8864   -6.6921   -0.9838 H       1  LIG1        0.0280
     31 H         -10.6065   -7.4783   -0.0271 H       1  LIG1        0.0280
     32 H         -12.2644   -7.4721    0.5720 H       1  LIG1        0.0280
     33 H           0.2351   -0.6148   -1.0877 H       1  LIG1        0.0280
     34 H          -0.4859   -2.1020   -1.7507 H       1  LIG1        0.0280
     35 H           0.4949   -1.0698   -2.7899 H       1  LIG1        0.0280
     36 H          -6.4715    0.6221    0.3751 H       1  LIG1        0.0299
     37 H          -7.1996   -0.8419   -0.2604 H       1  LIG1        0.0299
     38 H          -4.1989   -0.4262    0.2090 H       1  LIG1        0.0572
     39 H          -4.9450   -1.9039   -0.4521 H       1  LIG1        0.0572
     40 H          -5.5943   -0.6639    2.3625 H       1  LIG1        0.0386
     41 H          -6.3255   -2.1449    1.7216 H       1  LIG1        0.0386
     42 H         -10.7531   -1.3601    3.1134 H       1  LIG1        0.1549
@<TRIPOS>BOND
     1     1     2   ar
     2     1     5   ar
     3     2     9   ar
     4     3     4   ar
     5     3     8   ar
     6     4    11   ar
     7     5    12   ar
     8     6     8   ar
     9     6    10   ar
    10     7     9   ar
    11     7    12   ar
    12     8    14    1
    13     9    15    1
    14    10    11   ar
    15    10    19   ar
    16    11    20   ar
    17    12    21    1
    18    13    19   ar
    19    13    20   ar
    20    13    22    1
    21    16    17    1
    22    16    18    1
    23    17    21    1
    24    18    22    1
    25     1    23    1
    26     2    24    1
    27     3    25    1
    28     4    26    1
    29     5    27    1
    30     6    28    1
    31     7    29    1
    32    14    30    1
    33    14    31    1
    34    14    32    1
    35    15    33    1
    36    15    34    1
    37    15    35    1
    38    16    36    1
    39    16    37    1
    40    17    38    1
    41    17    39    1
    42    18    40    1
    43    18    41    1
    44    20    42    1
