@<TRIPOS>MOLECULE
ChEBML2337
 39 42 0 0 0
SMALL
USER_CHARGES

@<TRIPOS>ATOM
      1 C         -12.5348   -4.7659    1.3352 C.ar    1  LIG1       -0.0615
      2 C         -11.6006   -5.6317    0.7700 C.ar    1  LIG1       -0.0603
      3 C         -12.1588   -3.4887    1.7665 C.ar    1  LIG1       -0.0530
      4 C         -10.2645   -5.2505    0.6177 C.ar    1  LIG1       -0.0402
      5 C          -5.0597   -0.7438   -2.5048 C.ar    1  LIG1       -0.0376
      6 C          -3.7044   -0.8465   -2.8314 C.ar    1  LIG1       -0.0299
      7 C          -3.1199   -1.2839   -0.5154 C.ar    1  LIG1       -0.0226
      8 C         -10.1020   -1.8937    1.9407 C.ar    1  LIG1       -0.0276
      9 C          -5.1978   -1.2985    1.0615 C.ar    1  LIG1       -0.0275
     10 C         -10.8172   -3.0822    1.6233 C.ar    1  LIG1       -0.0022
     11 C          -4.4803   -1.1848   -0.1622 C.ar    1  LIG1        0.0003
     12 C          -9.9028   -3.9708    1.0533 C.ar    1  LIG1        0.0378
     13 C          -5.4169   -0.9176   -1.1630 C.ar    1  LIG1        0.0379
     14 C          -2.7478   -1.1123   -1.8537 C.ar    1  LIG1        0.0757
     15 C          -8.7918   -2.0802    1.5648 C.ar    1  LIG1        0.0811
     16 C          -6.5311   -1.1014    0.7850 C.ar    1  LIG1        0.0811
     17 C          -7.6363   -1.1195    1.6903 C.2     1  LIG1        0.2206
     18 C           0.4812   -2.6401   -2.2953 C.3     1  LIG1       -0.0410
     19 C          -0.6159   -2.0728   -1.4200 C.3     1  LIG1        0.0505
     20 N          -8.6815   -3.3359    1.0304 N.ar    1  LIG1       -0.3112
     21 N          -6.6534   -0.8726   -0.5592 N.ar    1  LIG1       -0.3112
     22 O          -7.7014   -0.3205    2.6535 O.2     1  LIG1       -0.2856
     23 O          -1.4338   -1.2066   -2.2034 O.3     1  LIG1       -0.3463
     24 H         -13.5683   -5.0848    1.4425 H       1  LIG1        0.0623
     25 H         -11.9146   -6.6193    0.4424 H       1  LIG1        0.0623
     26 H         -12.8974   -2.8236    2.2050 H       1  LIG1        0.0629
     27 H          -9.5372   -5.9248    0.1780 H       1  LIG1        0.0642
     28 H          -5.8037   -0.5372   -3.2667 H       1  LIG1        0.0643
     29 H          -3.4000   -0.7156   -3.8673 H       1  LIG1        0.0651
     30 H          -2.3679   -1.4917    0.2410 H       1  LIG1        0.0657
     31 H         -10.5073   -0.9996    2.3958 H       1  LIG1        0.0651
     32 H          -4.7789   -1.5027    2.0380 H       1  LIG1        0.0651
     33 H           0.0605   -3.2140   -3.1256 H       1  LIG1        0.0254
     34 H           1.1054   -1.8372   -2.7009 H       1  LIG1        0.0254
     35 H           1.1406   -3.2927   -1.7133 H       1  LIG1        0.0254
     36 H          -0.1884   -1.5001   -0.5915 H       1  LIG1        0.0569
     37 H          -1.2391   -2.8764   -1.0163 H       1  LIG1        0.0569
     38 H          -7.8283   -3.7417    0.6709 H       1  LIG1        0.1529
     39 H          -7.5237   -0.6962   -1.0421 H       1  LIG1        0.1529
@<TRIPOS>BOND
     1     1     2   ar
     2     1     3   ar
     3     2     4   ar
     4     3    10   ar
     5     4    12   ar
     6     5     6   ar
     7     5    13   ar
     8     6    14   ar
     9     7    11   ar
    10     7    14   ar
    11     8    10   ar
    12     8    15   ar
    13     9    11   ar
    14     9    16   ar
    15    10    12   ar
    16    11    13   ar
    17    12    20   ar
    18    13    21   ar
    19    14    23    1
    20    15    17    1
    21    15    20   ar
    22    16    17    1
    23    16    21   ar
    24    17    22    2
    25    18    19    1
    26    19    23    1
    27     1    24    1
    28     2    25    1
    29     3    26    1
    30     4    27    1
    31     5    28    1
    32     6    29    1
    33     7    30    1
    34     8    31    1
    35     9    32    1
    36    18    33    1
    37    18    34    1
    38    18    35    1
    39    19    36    1
    40    19    37    1
    41    20    38    1
    42    21    39    1
