@<TRIPOS>MOLECULE
ChEBML1275246
 39 40 0 0 0
SMALL
USER_CHARGES

@<TRIPOS>ATOM
      1 C          -1.6280    0.3556   -3.7930 C.ar    1  LIG1       -0.0622
      2 C          -2.0197    1.5607   -3.2100 C.ar    1  LIG1       -0.0620
      3 C          -2.3111   -0.8216   -3.4875 C.ar    1  LIG1       -0.0620
      4 C         -10.7382   -5.6807    0.2136 C.ar    1  LIG1       -0.0591
      5 C          -9.9179   -4.6285    0.6205 C.ar    1  LIG1       -0.0548
      6 C          -3.0946    1.5887   -2.3215 C.ar    1  LIG1       -0.0590
      7 C          -3.3860   -0.7936   -2.5989 C.ar    1  LIG1       -0.0590
      8 C         -12.0748   -5.7169    0.6109 C.ar    1  LIG1       -0.0320
      9 C         -11.7708   -3.6486    1.8221 C.ar    1  LIG1       -0.0248
     10 C         -10.4342   -3.6124    1.4247 C.ar    1  LIG1       -0.0228
     11 C          -3.7777    0.4115   -2.0160 C.ar    1  LIG1       -0.0479
     12 C         -12.5911   -4.7009    1.4151 C.ar    1  LIG1        0.0719
     13 C          -9.5792   -2.5151    1.8487 C.2     1  LIG1       -0.0488
     14 C          -8.4220   -2.1517    1.2522 C.2     1  LIG1        0.0111
     15 C          -7.6436   -1.0054    1.7734 C.2     1  LIG1        0.2854
     16 C          -4.9396    0.4410   -1.0554 C.3     1  LIG1       -0.0257
     17 C          -4.4819    0.2170    0.3860 C.3     1  LIG1       -0.0249
     18 C          -5.6585    0.2010    1.3518 C.3     1  LIG1        0.0570
     19 O          -7.9517   -0.3181    2.7341 O.2     1  LIG1       -0.2613
     20 O         -13.8953   -4.7360    1.8029 O.3     1  LIG1       -0.3609
     21 O          -6.5388   -0.8687    0.9913 O.3     1  LIG1       -0.3126
     22 H          -0.7918    0.3341   -4.4858 H       1  LIG1        0.0622
     23 H          -1.4886    2.4775   -3.4486 H       1  LIG1        0.0623
     24 H          -2.0071   -1.7598   -3.9420 H       1  LIG1        0.0623
     25 H         -10.3363   -6.4716   -0.4128 H       1  LIG1        0.0624
     26 H          -8.8778   -4.6140    0.3028 H       1  LIG1        0.0629
     27 H          -3.3927    2.5321   -1.8719 H       1  LIG1        0.0625
     28 H          -3.9123   -1.7157   -2.3667 H       1  LIG1        0.0625
     29 H         -12.7088   -6.5394    0.2909 H       1  LIG1        0.0650
     30 H         -12.1824   -2.8606    2.4495 H       1  LIG1        0.0656
     31 H          -9.9286   -1.9364    2.7116 H       1  LIG1        0.0631
     32 H          -8.0381   -2.6717    0.3813 H       1  LIG1        0.0687
     33 H          -5.6724   -0.3266   -1.3360 H       1  LIG1        0.0317
     34 H          -5.4612    1.4037   -1.1341 H       1  LIG1        0.0317
     35 H          -3.7729    0.9980    0.6909 H       1  LIG1        0.0294
     36 H          -3.9291   -0.7279    0.4719 H       1  LIG1        0.0294
     37 H          -5.3180    0.0400    2.3797 H       1  LIG1        0.0573
     38 H          -6.2159    1.1419    1.3036 H       1  LIG1        0.0573
     39 H         -14.3323   -5.5241    1.4424 H       1  LIG1        0.2182
@<TRIPOS>BOND
     1     1     2   ar
     2     1     3   ar
     3     2     6   ar
     4     3     7   ar
     5     4     5   ar
     6     4     8   ar
     7     5    10   ar
     8     6    11   ar
     9     7    11   ar
    10     8    12   ar
    11     9    10   ar
    12     9    12   ar
    13    10    13    1
    14    11    16    1
    15    12    20    1
    16    13    14    2
    17    14    15    1
    18    15    19    2
    19    15    21    1
    20    16    17    1
    21    17    18    1
    22    18    21    1
    23     1    22    1
    24     2    23    1
    25     3    24    1
    26     4    25    1
    27     5    26    1
    28     6    27    1
    29     7    28    1
    30     8    29    1
    31     9    30    1
    32    13    31    1
    33    14    32    1
    34    16    33    1
    35    16    34    1
    36    17    35    1
    37    17    36    1
    38    18    37    1
    39    18    38    1
    40    20    39    1
