@<TRIPOS>MOLECULE
ChEBML300433
 51 53 0 0 0
SMALL
USER_CHARGES

@<TRIPOS>ATOM
      1 C         -10.3426   -5.1744    0.4638 C.ar    1  LIG1       -0.0387
      2 C         -11.6797   -5.5304    0.6621 C.ar    1  LIG1       -0.0416
      3 C         -12.0853   -3.5143    1.9536 C.ar    1  LIG1       -0.0343
      4 C          -9.9603   -2.0182    2.1778 C.ar    1  LIG1       -0.0262
      5 C         -10.7413   -3.1346    1.7670 C.ar    1  LIG1       -0.0007
      6 C          -9.9026   -3.9717    1.0279 C.ar    1  LIG1        0.0379
      7 C         -12.5394   -4.7147    1.3951 C.ar    1  LIG1        0.0413
      8 C          -8.6863   -2.1960    1.6896 C.ar    1  LIG1        0.0945
      9 C          -7.5058   -1.3083    1.8485 C.2     1  LIG1        0.2576
     10 C          -4.6306   -0.6121   -0.0625 C.2     1  LIG1        0.2319
     11 C          -2.3923    0.0845   -3.6542 C.3     1  LIG1       -0.0515
     12 C          -3.1491    1.4112   -3.5449 C.3     1  LIG1       -0.0515
     13 C          -2.5721   -0.6154   -2.3097 C.3     1  LIG1       -0.0344
     14 C          -3.7444    1.4425   -2.1397 C.3     1  LIG1       -0.0344
     15 C          -2.8225    0.5316   -1.3380 C.3     1  LIG1        0.0255
     16 C          -5.0992   -1.0020    1.3283 C.3     1  LIG1        0.0887
     17 C          -2.6549    0.4180    1.1183 C.3     1  LIG1        0.0428
     18 C          -2.7160    1.9524    3.1562 C.3     1  LIG1        0.0707
     19 C          -3.0774    1.7735    1.6848 C.3     1  LIG1        0.0928
     20 N          -8.6615   -3.3769    0.9972 N.ar    1  LIG1       -0.3101
     21 N          -6.3285   -1.7373    1.2437 N.am    1  LIG1       -0.3013
     22 N          -3.4045    0.0931   -0.1028 N.am    1  LIG1       -0.2948
     23 O          -7.6152   -0.2762    2.5054 O.2     1  LIG1       -0.2704
     24 O          -5.2955   -0.9077   -1.0589 O.2     1  LIG1       -0.2756
     25 O          -3.5059    3.0058    3.6993 O.3     1  LIG1       -0.3936
     26 O          -2.4567    2.8214    0.9391 O.3     1  LIG1       -0.3890
     27 CL        -14.1816   -5.1868    1.6166 Cl      1  LIG1       -0.0843
     28 H          -9.6743   -5.8108   -0.1066 H       1  LIG1        0.0643
     29 H         -12.0393   -6.4624    0.2311 H       1  LIG1        0.0639
     30 H         -12.7545   -2.8773    2.5260 H       1  LIG1        0.0645
     31 H         -10.2984   -1.1765    2.7676 H       1  LIG1        0.0651
     32 H          -2.7667   -0.5323   -4.4773 H       1  LIG1        0.0267
     33 H          -1.3303    0.2782   -3.8444 H       1  LIG1        0.0267
     34 H          -2.4536    2.2469   -3.6838 H       1  LIG1        0.0267
     35 H          -3.9273    1.5008   -4.3093 H       1  LIG1        0.0267
     36 H          -3.4364   -1.2906   -2.3513 H       1  LIG1        0.0285
     37 H          -1.6986   -1.2140   -2.0336 H       1  LIG1        0.0285
     38 H          -3.7898    2.4568   -1.7309 H       1  LIG1        0.0285
     39 H          -4.7683    1.0480   -2.1590 H       1  LIG1        0.0285
     40 H          -1.8848    1.0481   -1.1009 H       1  LIG1        0.0506
     41 H          -4.3607   -1.6471    1.8110 H       1  LIG1        0.0567
     42 H          -5.2899   -0.1097    1.9302 H       1  LIG1        0.0567
     43 H          -1.5880    0.4319    0.8713 H       1  LIG1        0.0497
     44 H          -2.8174   -0.3705    1.8605 H       1  LIG1        0.0497
     45 H          -1.6623    2.2242    3.2722 H       1  LIG1        0.0591
     46 H          -2.9288    1.0479    3.7350 H       1  LIG1        0.0591
     47 H          -4.1595    1.8973    1.5588 H       1  LIG1        0.0641
     48 H          -7.8510   -3.7599    0.5299 H       1  LIG1        0.1529
     49 H          -6.3071   -2.6392    0.7688 H       1  LIG1        0.1503
     50 H          -3.2508    3.0912    4.6313 H       1  LIG1        0.2101
     51 H          -2.7576    2.7206    0.0236 H       1  LIG1        0.2106
@<TRIPOS>BOND
     1     1     2   ar
     2     1     6   ar
     3     2     7   ar
     4     3     5   ar
     5     3     7   ar
     6     4     5   ar
     7     4     8   ar
     8     5     6   ar
     9     6    20   ar
    10     7    27    1
    11     8     9    1
    12     8    20   ar
    13     9    21   am
    14     9    23    2
    15    10    16    1
    16    10    22   am
    17    10    24    2
    18    11    12    1
    19    11    13    1
    20    12    14    1
    21    13    15    1
    22    14    15    1
    23    15    22    1
    24    16    21    1
    25    17    19    1
    26    17    22    1
    27    18    19    1
    28    18    25    1
    29    19    26    1
    30     1    28    1
    31     2    29    1
    32     3    30    1
    33     4    31    1
    34    11    32    1
    35    11    33    1
    36    12    34    1
    37    12    35    1
    38    13    36    1
    39    13    37    1
    40    14    38    1
    41    14    39    1
    42    15    40    1
    43    16    41    1
    44    16    42    1
    45    17    43    1
    46    17    44    1
    47    18    45    1
    48    18    46    1
    49    19    47    1
    50    20    48    1
    51    21    49    1
    52    25    50    1
    53    26    51    1
