@<TRIPOS>MOLECULE
ChEBML704480
 42 45 0 0 0
SMALL
USER_CHARGES

@<TRIPOS>ATOM
      1 C         -12.3643   -5.0091    0.9706 C.ar    1  LIG1       -0.0621
      2 C         -12.0615   -3.9748    1.8560 C.ar    1  LIG1       -0.0604
      3 C         -11.3996   -5.4611    0.0700 C.ar    1  LIG1       -0.0604
      4 C          -4.5921   -0.8344    2.1592 C.ar    1  LIG1       -0.0588
      5 C          -5.9000   -1.2301    2.4393 C.ar    1  LIG1       -0.0495
      6 C         -10.7942   -3.3923    1.8410 C.ar    1  LIG1       -0.0407
      7 C         -10.1322   -4.8786    0.0549 C.ar    1  LIG1       -0.0407
      8 C          -4.0707   -1.0073    0.8771 C.ar    1  LIG1       -0.0311
      9 C          -0.5899   -0.1873   -3.7325 C.ar    1  LIG1       -0.0201
     10 C          -6.1648   -1.9719    0.1553 C.ar    1  LIG1       -0.0186
     11 C          -0.5399   -1.5541   -3.5641 C.ar    1  LIG1       -0.0021
     12 C          -3.4619    1.5637   -2.3631 C.ar    1  LIG1        0.1187
     13 C          -6.6863   -1.7989    1.4374 C.ar    1  LIG1        0.0400
     14 C          -1.7855    0.2657   -3.1236 C.ar    1  LIG1        0.0920
     15 C          -2.4365   -0.8456   -2.5963 C.ar    1  LIG1        0.1094
     16 C          -9.8295   -3.8442    0.9405 C.ar    1  LIG1        0.0328
     17 C          -4.8570   -1.5761   -0.1248 C.ar    1  LIG1        0.0848
     18 C          -3.6436   -0.6981   -1.9357 C.ar    1  LIG1        0.1977
     19 C          -8.0502   -2.2116    1.7290 C.2     1  LIG1        0.2473
     20 C          -1.9582   -3.3109   -2.5131 C.3     1  LIG1        0.0049
     21 N          -2.2858    1.5217   -3.0215 N.ar    1  LIG1       -0.2347
     22 N          -4.1630    0.5434   -1.8202 N.ar    1  LIG1       -0.2105
     23 N          -1.6619   -1.9422   -2.8758 N.ar    1  LIG1       -0.3050
     24 N          -8.5415   -3.2521    0.9254 N.am    1  LIG1       -0.2813
     25 O          -8.7273   -1.6516    2.6022 O.2     1  LIG1       -0.2715
     26 O          -4.3414   -1.7471   -1.3933 O.3     1  LIG1       -0.2899
     27 H         -13.3507   -5.4635    0.9825 H       1  LIG1        0.0622
     28 H         -12.8120   -3.6234    2.5580 H       1  LIG1        0.0623
     29 H         -11.6353   -6.2672   -0.6188 H       1  LIG1        0.0623
     30 H          -3.9801   -0.3916    2.9393 H       1  LIG1        0.0624
     31 H          -6.2969   -1.0900    3.4414 H       1  LIG1        0.0631
     32 H         -10.5697   -2.5870    2.5359 H       1  LIG1        0.0642
     33 H          -9.3884   -5.2391   -0.6513 H       1  LIG1        0.0642
     34 H          -3.0512   -0.6969    0.6649 H       1  LIG1        0.0650
     35 H           0.1536    0.4127   -4.2382 H       1  LIG1        0.0659
     36 H          -6.7740   -2.4142   -0.6298 H       1  LIG1        0.0659
     37 H           0.1994   -2.2792   -3.8770 H       1  LIG1        0.0792
     38 H          -3.9053    2.5477   -2.2542 H       1  LIG1        0.1063
     39 H          -1.5203   -3.5016   -1.5297 H       1  LIG1        0.0436
     40 H          -3.0421   -3.4531   -2.4830 H       1  LIG1        0.0436
     41 H          -1.5293   -3.9839   -3.2608 H       1  LIG1        0.0436
     42 H          -7.8885   -3.6305    0.2437 H       1  LIG1        0.1560
@<TRIPOS>BOND
     1     1     2   ar
     2     1     3   ar
     3     2     6   ar
     4     3     7   ar
     5     4     5   ar
     6     4     8   ar
     7     5    13   ar
     8     6    16   ar
     9     7    16   ar
    10     8    17   ar
    11     9    11   ar
    12     9    14   ar
    13    10    13   ar
    14    10    17   ar
    15    11    23   ar
    16    12    21   ar
    17    12    22   ar
    18    13    19    1
    19    14    15   ar
    20    14    21   ar
    21    15    18   ar
    22    15    23   ar
    23    16    24    1
    24    17    26    1
    25    18    22   ar
    26    18    26    1
    27    19    24   am
    28    19    25    2
    29    20    23    1
    30     1    27    1
    31     2    28    1
    32     3    29    1
    33     4    30    1
    34     5    31    1
    35     6    32    1
    36     7    33    1
    37     8    34    1
    38     9    35    1
    39    10    36    1
    40    11    37    1
    41    12    38    1
    42    20    39    1
    43    20    40    1
    44    20    41    1
    45    24    42    1
