@<TRIPOS>MOLECULE
ChEBML398542
 40 43 0 0 0
SMALL
USER_CHARGES

@<TRIPOS>ATOM
      1 C          -1.7665   -0.4865   -2.8285 C.ar    1  LIG1       -0.0586
      2 C         -12.2162   -3.0937    1.1616 C.ar    1  LIG1       -0.0578
      3 C          -1.9615    0.8244   -3.2492 C.ar    1  LIG1       -0.0438
      4 C          -6.5312   -2.6186   -0.3936 C.3     1  LIG1       -0.0457
      5 C          -5.5409   -2.0641   -1.2071 C.3     1  LIG1       -0.0516
      6 C         -10.8504   -2.8755    1.3418 C.ar    1  LIG1       -0.0406
      7 C         -12.6801   -4.3628    0.8152 C.ar    1  LIG1       -0.0319
      8 C          -2.7113   -1.0959   -2.0103 C.ar    1  LIG1       -0.0358
      9 C          -8.0904   -1.9370    2.9159 C.3     1  LIG1        0.0240
     10 C          -5.1433   -0.3340    0.4330 C.3     1  LIG1        0.0198
     11 C         -10.4121   -5.1953    0.8289 C.ar    1  LIG1       -0.0107
     12 C          -3.1086    1.4771   -2.8275 C.ar    1  LIG1        0.0275
     13 C          -7.3668   -0.8088    3.2646 C.3     1  LIG1        0.1690
     14 C          -6.8407   -2.0368    0.8458 C.3     1  LIG1        0.0676
     15 C          -4.8494   -0.9255   -0.7948 C.3     1  LIG1        0.0067
     16 C          -6.1337   -0.8836    1.2529 C.3     1  LIG1        0.2130
     17 C          -9.9483   -3.9263    1.1754 C.ar    1  LIG1        0.0329
     18 C          -7.8251   -2.5544    1.6984 C.3     1  LIG1        0.0503
     19 C         -11.7780   -5.4136    0.6488 C.ar    1  LIG1        0.0732
     20 C          -3.8247   -0.3571   -1.6438 C.ar    1  LIG1        0.0704
     21 N          -4.0486    0.9181   -2.0328 N.ar    1  LIG1       -0.2562
     22 N          -6.4283   -0.3232    2.4413 N.3     1  LIG1       -0.2109
     23 N          -8.5720   -3.7060    1.3557 N.pl3   1  LIG1       -0.3140
     24 O         -12.2309   -6.6519    0.3108 O.3     1  LIG1       -0.3608
     25 H          -0.8795   -1.0317   -3.1364 H       1  LIG1        0.0624
     26 H         -12.9187   -2.2755    1.2911 H       1  LIG1        0.0624
     27 H          -1.2373    1.3205   -3.8850 H       1  LIG1        0.0639
     28 H          -7.0485   -3.5064   -0.7495 H       1  LIG1        0.0632
     29 H          -5.3194   -2.5334   -2.1629 H       1  LIG1        0.0630
     30 H         -10.4998   -1.8822    1.6103 H       1  LIG1        0.0642
     31 H         -13.7453   -4.5267    0.6769 H       1  LIG1        0.0650
     32 H          -2.5676   -2.1192   -1.6784 H       1  LIG1        0.0645
     33 H          -8.8485   -2.3231    3.5906 H       1  LIG1        0.0706
     34 H          -4.6062    0.5541    0.7588 H       1  LIG1        0.0700
     35 H          -9.7127   -6.0178    0.6978 H       1  LIG1        0.0670
     36 H          -3.3083    2.5004   -3.1276 H       1  LIG1        0.0840
     37 H          -7.5081   -0.2677    4.1902 H       1  LIG1        0.1394
     38 H          -5.9181    0.5100    2.7356 H       1  LIG1        0.4533
     39 H          -7.9985   -4.5300    1.2128 H       1  LIG1        0.1528
     40 H         -11.4883   -7.2717    0.2324 H       1  LIG1        0.2182
@<TRIPOS>BOND
     1     1     3   ar
     2     1     8   ar
     3     2     6   ar
     4     2     7   ar
     5     3    12   ar
     6     4     5    1
     7     4    14    1
     8     5    15    1
     9     6    17   ar
    10     7    19   ar
    11     8    20   ar
    12     9    13    1
    13     9    18    1
    14    10    15    1
    15    10    16    1
    16    11    17   ar
    17    11    19   ar
    18    12    21   ar
    19    13    22    1
    20    14    16    1
    21    14    18    1
    22    15    20    1
    23    16    22    1
    24    17    23    1
    25    18    23    1
    26    19    24    1
    27    20    21   ar
    28     1    25    1
    29     2    26    1
    30     3    27    1
    31     4    28    1
    32     5    29    1
    33     6    30    1
    34     7    31    1
    35     8    32    1
    36     9    33    1
    37    10    34    1
    38    11    35    1
    39    12    36    1
    40    13    37    1
    41    22    38    1
    42    23    39    1
    43    24    40    1
