@<TRIPOS>MOLECULE
ChEBML486171
 41 43 0 0 0
SMALL
USER_CHARGES

@<TRIPOS>ATOM
      1 C          -3.0653    0.0544    1.3676 C.ar    1  LIG1       -0.0539
      2 C         -10.3214   -5.0641    0.4979 C.ar    1  LIG1       -0.0387
      3 C          -4.3167   -0.5391    1.5329 C.ar    1  LIG1       -0.0403
      4 C         -11.6789   -5.3174    0.7145 C.ar    1  LIG1       -0.0416
      5 C         -11.9490   -3.1991    1.8709 C.ar    1  LIG1       -0.0343
      6 C          -9.7295   -1.8352    2.0044 C.ar    1  LIG1       -0.0262
      7 C          -4.5814   -0.6494   -0.8661 C.ar    1  LIG1       -0.0281
      8 C         -10.5830   -2.9219    1.6645 C.ar    1  LIG1       -0.0007
      9 C          -2.5720    0.2962    0.0853 C.ar    1  LIG1       -0.0049
     10 C          -3.3300   -0.0558   -1.0314 C.ar    1  LIG1        0.0632
     11 C          -9.8023   -3.8589    0.9841 C.ar    1  LIG1        0.0379
     12 C          -5.0747   -0.8911    0.4162 C.ar    1  LIG1        0.0334
     13 C         -12.4820   -4.4007    1.3902 C.ar    1  LIG1        0.0413
     14 C          -8.4705   -2.1282    1.5330 C.ar    1  LIG1        0.0948
     15 C          -7.2812   -1.3431    1.6337 C.2     1  LIG1        0.2615
     16 C          -0.8536    1.8398    1.1148 C.3     1  LIG1        0.0733
     17 C          -1.2299    0.9336   -0.0665 C.3     1  LIG1        0.1027
     18 C          -2.8213    0.1915   -2.4137 C.3     1  LIG1        0.4164
     19 N          -8.5246   -3.3507    0.9189 N.ar    1  LIG1       -0.3101
     20 N          -6.3457   -1.4962    0.5837 N.am    1  LIG1       -0.2802
     21 O          -7.0499   -0.5863    2.6046 O.2     1  LIG1       -0.2700
     22 O           0.4403    2.3866    0.9030 O.3     1  LIG1       -0.3933
     23 O          -0.2315   -0.0847   -0.2014 O.3     1  LIG1       -0.3859
     24 F          -3.6831   -0.2124   -3.3923 F       1  LIG1       -0.1661
     25 F          -2.5741    1.5082   -2.6756 F       1  LIG1       -0.1661
     26 F          -1.6491   -0.4599   -2.6639 F       1  LIG1       -0.1661
     27 CL        -14.1516   -4.7479    1.6365 Cl      1  LIG1       -0.0843
     28 H          -2.4826    0.3260    2.2440 H       1  LIG1        0.0627
     29 H          -9.6971   -5.7789   -0.0277 H       1  LIG1        0.0643
     30 H          -4.6910   -0.7215    2.5369 H       1  LIG1        0.0642
     31 H         -12.0997   -6.2497    0.3438 H       1  LIG1        0.0639
     32 H         -12.5740   -2.4834    2.3985 H       1  LIG1        0.0645
     33 H         -10.0106   -0.9365    2.5371 H       1  LIG1        0.0651
     34 H          -5.1719   -0.9236   -1.7377 H       1  LIG1        0.0649
     35 H          -1.5725    2.6571    1.2398 H       1  LIG1        0.0594
     36 H          -0.8390    1.2729    2.0523 H       1  LIG1        0.0594
     37 H          -1.1947    1.5289   -0.9947 H       1  LIG1        0.0677
     38 H          -7.7417   -3.8159    0.4802 H       1  LIG1        0.1529
     39 H          -6.6256   -2.1327   -0.1585 H       1  LIG1        0.1560
     40 H           0.6362    2.9495    1.6696 H       1  LIG1        0.2102
     41 H           0.6133    0.3777   -0.2963 H       1  LIG1        0.2110
@<TRIPOS>BOND
     1     1     3   ar
     2     1     9   ar
     3     2     4   ar
     4     2    11   ar
     5     3    12   ar
     6     4    13   ar
     7     5     8   ar
     8     5    13   ar
     9     6     8   ar
    10     6    14   ar
    11     7    10   ar
    12     7    12   ar
    13     8    11   ar
    14     9    10   ar
    15     9    17    1
    16    10    18    1
    17    11    19   ar
    18    12    20    1
    19    13    27    1
    20    14    15    1
    21    14    19   ar
    22    15    20   am
    23    15    21    2
    24    16    17    1
    25    16    22    1
    26    17    23    1
    27    18    24    1
    28    18    25    1
    29    18    26    1
    30     1    28    1
    31     2    29    1
    32     3    30    1
    33     4    31    1
    34     5    32    1
    35     6    33    1
    36     7    34    1
    37    16    35    1
    38    16    36    1
    39    17    37    1
    40    19    38    1
    41    20    39    1
    42    22    40    1
    43    23    41    1
