@<TRIPOS>MOLECULE
ChEBML593326
 45 48 0 0 0
SMALL
USER_CHARGES

@<TRIPOS>ATOM
      1 C         -12.4991   -4.7562    1.5159 C.ar    1  LIG1       -0.0615
      2 C         -11.7355   -5.4361    0.5750 C.ar    1  LIG1       -0.0603
      3 C         -11.9979   -3.6618    2.1579 C.ar    1  LIG1       -0.0530
      4 C         -10.4588   -5.0190    0.2732 C.ar    1  LIG1       -0.0400
      5 C          -9.9116   -2.1443    2.3478 C.ar    1  LIG1       -0.0252
      6 C         -10.7011   -3.2169    1.8682 C.ar    1  LIG1       -0.0020
      7 C          -9.9249   -3.9045    0.9147 C.ar    1  LIG1        0.0402
      8 C          -8.7144   -2.1922    1.7055 C.ar    1  LIG1        0.1069
      9 C          -7.6003   -1.2568    1.9095 C.2     1  LIG1        0.3075
     10 C          -5.8514   -1.2603   -1.0694 C.3     1  LIG1       -0.0054
     11 C          -5.1186   -2.4786   -0.4700 C.3     1  LIG1       -0.0054
     12 C          -5.2022    0.5298    0.5370 C.3     1  LIG1        0.0165
     13 C          -4.0126   -1.4479    1.5102 C.3     1  LIG1        0.0165
     14 C          -4.8911   -0.0699   -0.8436 C.3     1  LIG1       -0.0206
     15 C          -3.7820   -1.9135    0.0636 C.3     1  LIG1       -0.0206
     16 C          -5.2898   -0.6046    1.5619 C.3     1  LIG1        0.0781
     17 C          -7.6074   -3.6381   -0.0544 C.3     1  LIG1        0.0055
     18 C          -3.0596   -1.0630   -2.0959 C.3     1  LIG1       -0.0449
     19 N          -8.7150   -3.2579    0.8258 N.ar    1  LIG1       -0.2984
     20 N          -3.5453   -0.6972   -0.7586 N.4     1  LIG1        0.2483
     21 O          -7.7288   -0.3143    2.6665 O.2     1  LIG1       -0.2591
     22 O          -6.4350   -1.4436    1.2571 O.3     1  LIG1       -0.3073
     23 H         -13.4987   -5.0973    1.7411 H       1  LIG1        0.0623
     24 H         -12.1475   -6.3007    0.0758 H       1  LIG1        0.0623
     25 H         -12.5988   -3.1399    2.8879 H       1  LIG1        0.0629
     26 H          -9.8729   -5.5546   -0.4591 H       1  LIG1        0.0643
     27 H         -10.2073   -1.4185    3.0908 H       1  LIG1        0.0652
     28 H          -6.7941   -1.0910   -0.5492 H       1  LIG1        0.0326
     29 H          -6.0266   -1.4095   -2.1349 H       1  LIG1        0.0326
     30 H          -5.7010   -2.9083    0.3449 H       1  LIG1        0.0326
     31 H          -4.9334   -3.2267   -1.2407 H       1  LIG1        0.0326
     32 H          -4.4080    1.2195    0.8229 H       1  LIG1        0.0351
     33 H          -6.1532    1.0612    0.4984 H       1  LIG1        0.0351
     34 H          -4.1217   -2.3160    2.1601 H       1  LIG1        0.0351
     35 H          -3.1648   -0.8471    1.8398 H       1  LIG1        0.0351
     36 H          -4.9495    0.6748   -1.6374 H       1  LIG1        0.0853
     37 H          -2.9676   -2.6331   -0.0204 H       1  LIG1        0.0853
     38 H          -5.4057   -0.1830    2.5604 H       1  LIG1        0.0615
     39 H          -6.8915   -4.2424    0.5028 H       1  LIG1        0.0436
     40 H          -7.9929   -4.2147   -0.8953 H       1  LIG1        0.0436
     41 H          -7.1135   -2.7401   -0.4255 H       1  LIG1        0.0436
     42 H          -3.8019   -1.6867   -2.5939 H       1  LIG1        0.0777
     43 H          -2.8926   -0.1591   -2.6816 H       1  LIG1        0.0777
     44 H          -2.1240   -1.6147   -2.0043 H       1  LIG1        0.0777
     45 H          -2.8915   -0.0802   -0.3003 H       1  LIG1        0.2006
@<TRIPOS>BOND
     1     1     2   ar
     2     1     3   ar
     3     2     4   ar
     4     3     6   ar
     5     4     7   ar
     6     5     6   ar
     7     5     8   ar
     8     6     7   ar
     9     7    19   ar
    10     8     9    1
    11     8    19   ar
    12     9    21    2
    13     9    22    1
    14    10    11    1
    15    10    14    1
    16    11    15    1
    17    12    14    1
    18    12    16    1
    19    13    15    1
    20    13    16    1
    21    14    20    1
    22    15    20    1
    23    16    22    1
    24    17    19    1
    25    18    20    1
    26     1    23    1
    27     2    24    1
    28     3    25    1
    29     4    26    1
    30     5    27    1
    31    10    28    1
    32    10    29    1
    33    11    30    1
    34    11    31    1
    35    12    32    1
    36    12    33    1
    37    13    34    1
    38    13    35    1
    39    14    36    1
    40    15    37    1
    41    16    38    1
    42    17    39    1
    43    17    40    1
    44    17    41    1
    45    18    42    1
    46    18    43    1
    47    18    44    1
    48    20    45    1
