@<TRIPOS>MOLECULE
ChEBML212670
 39 41 0 0 0
SMALL
USER_CHARGES

@<TRIPOS>ATOM
      1 C         -12.4152   -4.7241    1.1254 C.ar    1  LIG1       -0.0612
      2 C         -12.0689   -3.4027    1.4297 C.ar    1  LIG1       -0.0530
      3 C         -11.4318   -5.6854    0.9005 C.ar    1  LIG1       -0.0574
      4 C         -10.0107   -1.8400    1.7850 C.ar    1  LIG1       -0.0262
      5 C         -10.7070   -3.0496    1.5073 C.ar    1  LIG1       -0.0019
      6 C         -10.0747   -5.3586    0.9721 C.ar    1  LIG1       -0.0291
      7 C          -9.7432   -4.0337    1.2772 C.ar    1  LIG1        0.0408
      8 C          -8.6628   -2.1083    1.7194 C.ar    1  LIG1        0.0947
      9 C          -7.5657   -1.2085    1.9250 C.2     1  LIG1        0.2602
     10 C          -6.4032   -2.1586   -0.0999 C.3     1  LIG1        0.0539
     11 C          -5.0605   -1.1564    1.7024 C.3     1  LIG1        0.0539
     12 C          -5.6929   -1.3031   -1.1387 C.3     1  LIG1       -0.0183
     13 C          -4.3185   -0.2885    0.6953 C.3     1  LIG1       -0.0183
     14 C          -9.0480   -6.4129    0.7250 C.3     1  LIG1       -0.0379
     15 C          -3.5028   -0.2229   -1.6644 C.3     1  LIG1       -0.0453
     16 N          -8.5115   -3.4339    1.4125 N.ar    1  LIG1       -0.3099
     17 N          -6.3957   -1.4941    1.2097 N.am    1  LIG1       -0.2863
     18 N          -4.2961   -0.9908   -0.6449 N.4     1  LIG1        0.2462
     19 O          -7.6775   -0.2522    2.6901 O.2     1  LIG1       -0.2701
     20 H         -13.4639   -5.0026    1.0646 H       1  LIG1        0.0623
     21 H         -12.8459   -2.6636    1.6036 H       1  LIG1        0.0629
     22 H         -11.7342   -6.7038    0.6662 H       1  LIG1        0.0626
     23 H         -10.4532   -0.8786    2.0093 H       1  LIG1        0.0651
     24 H          -7.4198   -2.3710   -0.4396 H       1  LIG1        0.0525
     25 H          -5.8943   -3.1225    0.0218 H       1  LIG1        0.0525
     26 H          -4.5251   -2.0982    1.8724 H       1  LIG1        0.0525
     27 H          -5.1204   -0.6361    2.6633 H       1  LIG1        0.0525
     28 H          -5.5953   -1.8398   -2.0877 H       1  LIG1        0.0831
     29 H          -6.2050   -0.3479   -1.3006 H       1  LIG1        0.0831
     30 H          -4.8130    0.6784    0.5494 H       1  LIG1        0.0831
     31 H          -3.2800   -0.1322    1.0043 H       1  LIG1        0.0831
     32 H          -8.7887   -6.4504   -0.3398 H       1  LIG1        0.0280
     33 H          -8.1333   -6.2198    1.2999 H       1  LIG1        0.0280
     34 H          -9.4126   -7.4022    1.0301 H       1  LIG1        0.0280
     35 H          -4.0007    0.7356   -1.8220 H       1  LIG1        0.0777
     36 H          -2.4958   -0.0816   -1.2669 H       1  LIG1        0.0777
     37 H          -3.4828   -0.8106   -2.5842 H       1  LIG1        0.0777
     38 H          -7.6247   -3.9057    1.2991 H       1  LIG1        0.1530
     39 H          -3.8103   -1.8887   -0.5118 H       1  LIG1        0.2001
@<TRIPOS>BOND
     1     1     2   ar
     2     1     3   ar
     3     2     5   ar
     4     3     6   ar
     5     4     5   ar
     6     4     8   ar
     7     5     7   ar
     8     6     7   ar
     9     6    14    1
    10     7    16   ar
    11     8     9    1
    12     8    16   ar
    13     9    17   am
    14     9    19    2
    15    10    12    1
    16    10    17    1
    17    11    13    1
    18    11    17    1
    19    12    18    1
    20    13    18    1
    21    15    18    1
    22     1    20    1
    23     2    21    1
    24     3    22    1
    25     4    23    1
    26    10    24    1
    27    10    25    1
    28    11    26    1
    29    11    27    1
    30    12    28    1
    31    12    29    1
    32    13    30    1
    33    13    31    1
    34    14    32    1
    35    14    33    1
    36    14    34    1
    37    15    35    1
    38    15    36    1
    39    15    37    1
    40    16    38    1
    41    18    39    1
