@<TRIPOS>MOLECULE
ChEBML426748
 56 58 0 0 0
SMALL
USER_CHARGES

@<TRIPOS>ATOM
      1 C          -2.3127    1.2916   -3.8454 C.ar    1  LIG1       -0.0431
      2 C          -1.7657    0.1508   -3.2689 C.ar    1  LIG1       -0.0449
      3 C         -10.8546   -2.4441    1.1254 C.ar    1  LIG1       -0.0567
      4 C          -9.5391   -4.4702    1.1615 C.ar    1  LIG1       -0.0567
      5 C          -9.7723   -1.7321    1.6422 C.ar    1  LIG1       -0.0393
      6 C          -8.4567   -3.7582    1.6783 C.ar    1  LIG1       -0.0393
      7 C          -3.5445    1.7253   -3.3826 C.ar    1  LIG1        0.0291
      8 C         -10.7381   -3.8132    0.8851 C.ar    1  LIG1       -0.0425
      9 C          -2.4574   -0.5122   -2.2613 C.ar    1  LIG1        0.0957
     10 C          -8.5733   -2.3890    1.9187 C.ar    1  LIG1        0.0545
     11 C          -3.6827    0.0024   -1.8691 C.ar    1  LIG1        0.1323
     12 C          -5.7003   -1.1781   -1.1711 C.3     1  LIG1        0.0300
     13 C          -6.6602   -0.8935   -0.0217 C.3     1  LIG1        0.0413
     14 C          -4.0528   -0.3202    0.5170 C.3     1  LIG1        0.0325
     15 C          -4.6950   -1.3163    1.4948 C.3     1  LIG1        0.0493
     16 C          -4.0093   -2.6816    1.4573 C.3     1  LIG1       -0.0437
     17 C         -12.3301   -4.0148   -1.0567 C.3     1  LIG1       -0.0561
     18 C         -13.1317   -4.4917    1.2813 C.3     1  LIG1       -0.0561
     19 C         -11.6468   -6.1031    0.1067 C.3     1  LIG1       -0.0561
     20 C         -11.8954   -4.5749    0.3331 C.3     1  LIG1       -0.0132
     21 C          -1.8672   -1.7350   -1.6455 C.3     1  LIG1        0.4193
     22 N          -4.2462    1.1079   -2.4058 N.ar    1  LIG1       -0.2408
     23 N          -4.3679   -0.6479   -0.8749 N.pl3   1  LIG1       -0.3118
     24 N          -6.1523   -1.5165    1.2244 N.3     1  LIG1       -0.2710
     25 O          -7.6411   -0.1264    2.8046 O.2     1  LIG1       -0.4762
     26 O          -6.6231   -2.2738    3.6414 O.2     1  LIG1       -0.4762
     27 F          -0.6535   -2.0808   -2.1687 F       1  LIG1       -0.1660
     28 F          -1.6557   -1.6229   -0.3005 F       1  LIG1       -0.1660
     29 F          -2.6591   -2.8360   -1.8006 F       1  LIG1       -0.1660
     30 S          -7.2020   -1.4873    2.5712 S.O2    1  LIG1       -0.1655
     31 H          -1.7910    1.8248   -4.6320 H       1  LIG1        0.0639
     32 H          -0.8008   -0.2132   -3.6113 H       1  LIG1        0.0631
     33 H         -11.7849   -1.9238    0.9134 H       1  LIG1        0.0626
     34 H          -9.4393   -5.5367    0.9778 H       1  LIG1        0.0626
     35 H          -9.8740   -0.6658    1.8263 H       1  LIG1        0.0642
     36 H          -7.5274   -4.2801    1.8904 H       1  LIG1        0.0642
     37 H          -4.0152    2.6097   -3.7997 H       1  LIG1        0.0840
     38 H          -5.6198   -2.2578   -1.3442 H       1  LIG1        0.0486
     39 H          -6.1048   -0.7306   -2.0877 H       1  LIG1        0.0486
     40 H          -6.7821    0.1855    0.1291 H       1  LIG1        0.0499
     41 H          -7.6403   -1.3199   -0.2619 H       1  LIG1        0.0499
     42 H          -4.4192    0.6916    0.7354 H       1  LIG1        0.0489
     43 H          -2.9657   -0.3070    0.6666 H       1  LIG1        0.0489
     44 H          -4.5706   -0.9059    2.5049 H       1  LIG1        0.0532
     45 H          -4.1138   -3.1189    0.4660 H       1  LIG1        0.0250
     46 H          -4.4671   -3.3436    2.1900 H       1  LIG1        0.0250
     47 H          -2.9517   -2.5688    1.6887 H       1  LIG1        0.0250
     48 H         -13.1805   -4.5580   -1.4853 H       1  LIG1        0.0239
     49 H         -12.6240   -2.9615   -0.9908 H       1  LIG1        0.0239
     50 H         -11.4991   -4.0806   -1.7689 H       1  LIG1        0.0239
     51 H         -13.9840   -5.0501    0.8792 H       1  LIG1        0.0239
     52 H         -12.9274   -4.8948    2.2802 H       1  LIG1        0.0239
     53 H         -13.4484   -3.4488    1.4008 H       1  LIG1        0.0239
     54 H         -12.5254   -6.6186   -0.2995 H       1  LIG1        0.0239
     55 H         -10.8243   -6.2640   -0.6001 H       1  LIG1        0.0239
     56 H         -11.3894   -6.6001    1.0493 H       1  LIG1        0.0239
@<TRIPOS>BOND
     1     1     2   ar
     2     1     7   ar
     3     2     9   ar
     4     3     5   ar
     5     3     8   ar
     6     4     6   ar
     7     4     8   ar
     8     5    10   ar
     9     6    10   ar
    10     7    22   ar
    11     8    20    1
    12     9    11   ar
    13     9    21    1
    14    10    30    1
    15    11    22   ar
    16    11    23    1
    17    12    13    1
    18    12    23    1
    19    13    24    1
    20    14    15    1
    21    14    23    1
    22    15    16    1
    23    15    24    1
    24    17    20    1
    25    18    20    1
    26    19    20    1
    27    21    27    1
    28    21    28    1
    29    21    29    1
    30    24    30    1
    31    25    30    2
    32    26    30    2
    33     1    31    1
    34     2    32    1
    35     3    33    1
    36     4    34    1
    37     5    35    1
    38     6    36    1
    39     7    37    1
    40    12    38    1
    41    12    39    1
    42    13    40    1
    43    13    41    1
    44    14    42    1
    45    14    43    1
    46    15    44    1
    47    16    45    1
    48    16    46    1
    49    16    47    1
    50    17    48    1
    51    17    49    1
    52    17    50    1
    53    18    51    1
    54    18    52    1
    55    18    53    1
    56    19    54    1
    57    19    55    1
    58    19    56    1
