@<TRIPOS>MOLECULE
ChEBML232804
 32 34 0 0 0
SMALL
USER_CHARGES

@<TRIPOS>ATOM
      1 C         -12.5411   -4.6844    1.4098 C.ar    1  LIG1       -0.0615
      2 C          -5.5998   -1.7826   -1.2207 C.ar    1  LIG1       -0.0613
      3 C         -11.6940   -5.5089    0.6793 C.ar    1  LIG1       -0.0603
      4 C          -4.4838   -1.0016   -0.9657 C.ar    1  LIG1       -0.0596
      5 C         -12.0818   -3.5174    1.9469 C.ar    1  LIG1       -0.0530
      6 C          -6.6155   -1.8671   -0.2939 C.ar    1  LIG1       -0.0483
      7 C         -10.3756   -5.1640    0.4836 C.ar    1  LIG1       -0.0402
      8 C          -4.3779   -0.2997    0.2186 C.ar    1  LIG1       -0.0310
      9 C          -9.9800   -2.0281    2.1788 C.ar    1  LIG1       -0.0276
     10 C         -10.7438   -3.1439    1.7619 C.ar    1  LIG1       -0.0022
     11 C          -6.5187   -1.1669    0.9119 C.ar    1  LIG1        0.0541
     12 C          -9.8831   -3.9783    1.0216 C.ar    1  LIG1        0.0378
     13 C          -5.3907   -0.3728    1.1631 C.ar    1  LIG1        0.0858
     14 C          -8.7149   -2.1921    1.7052 C.ar    1  LIG1        0.0798
     15 C          -7.6000   -1.2575    1.9115 C.2     1  LIG1        0.2092
     16 C          -4.0441    1.0184    2.2831 C.3     1  LIG1        0.0423
     17 N          -8.6478   -3.3746    0.9944 N.ar    1  LIG1       -0.3112
     18 O          -7.5685   -0.5582    2.9071 O.2     1  LIG1       -0.2870
     19 O          -5.2880    0.3163    2.3271 O.3     1  LIG1       -0.3485
     20 H         -13.5725   -4.9703    1.5540 H       1  LIG1        0.0623
     21 H          -5.6737   -2.3274   -2.1503 H       1  LIG1        0.0623
     22 H         -12.0736   -6.4294    0.2612 H       1  LIG1        0.0623
     23 H          -3.6923   -0.9413   -1.6980 H       1  LIG1        0.0623
     24 H         -12.7476   -2.8832    2.5135 H       1  LIG1        0.0629
     25 H          -7.4836   -2.4768   -0.4970 H       1  LIG1        0.0631
     26 H          -9.7253   -5.8114   -0.0860 H       1  LIG1        0.0642
     27 H          -3.5053    0.3074    0.4094 H       1  LIG1        0.0650
     28 H         -10.3369   -1.1958    2.7672 H       1  LIG1        0.0651
     29 H          -3.2270    0.3039    2.1830 H       1  LIG1        0.0535
     30 H          -4.0399    1.6970    1.4301 H       1  LIG1        0.0535
     31 H          -3.9167    1.5897    3.2025 H       1  LIG1        0.0535
     32 H          -7.8585   -3.7231    0.5512 H       1  LIG1        0.1529
@<TRIPOS>BOND
     1     1     3   ar
     2     1     5   ar
     3     2     4   ar
     4     2     6   ar
     5     3     7   ar
     6     4     8   ar
     7     5    10   ar
     8     6    11   ar
     9     7    12   ar
    10     8    13   ar
    11     9    10   ar
    12     9    14   ar
    13    10    12   ar
    14    11    13   ar
    15    11    15    1
    16    12    17   ar
    17    13    19    1
    18    14    15    1
    19    14    17   ar
    20    15    18    2
    21    16    19    1
    22     1    20    1
    23     2    21    1
    24     3    22    1
    25     4    23    1
    26     5    24    1
    27     6    25    1
    28     7    26    1
    29     8    27    1
    30     9    28    1
    31    16    29    1
    32    16    30    1
    33    16    31    1
    34    17    32    1
