@<TRIPOS>MOLECULE
ChEBML369964
 48 51 0 0 0
SMALL
USER_CHARGES

@<TRIPOS>ATOM
      1 C          -1.0680    1.1169   -2.9795 C.ar    1  LIG1       -0.0622
      2 C          -1.1702   -0.2410   -3.2175 C.ar    1  LIG1       -0.0619
      3 C          -2.2071    1.8663   -2.7515 C.ar    1  LIG1       -0.0619
      4 C         -12.2580   -3.2611    2.3892 C.ar    1  LIG1       -0.0504
      5 C          -2.4113   -0.8496   -3.2268 C.ar    1  LIG1       -0.0564
      6 C          -3.4485    1.2584   -2.7651 C.ar    1  LIG1       -0.0564
      7 C         -12.8101   -4.4836    2.1479 C.ar    1  LIG1       -0.0313
      8 C         -10.0720   -1.8943    2.1874 C.ar    1  LIG1       -0.0262
      9 C         -10.7242   -5.2939    1.2503 C.ar    1  LIG1       -0.0100
     10 C         -10.9151   -3.0241    2.0640 C.ar    1  LIG1       -0.0020
     11 C          -3.5503   -0.1004   -2.9979 C.ar    1  LIG1       -0.0193
     12 C         -10.1429   -4.0530    1.4885 C.ar    1  LIG1        0.0404
     13 C         -12.0500   -5.5052    1.5789 C.ar    1  LIG1        0.0732
     14 C          -8.8478   -2.2357    1.7053 C.ar    1  LIG1        0.0947
     15 C          -7.6773   -1.3497    1.6480 C.2     1  LIG1        0.2598
     16 C          -5.1827   -0.2274   -0.5837 C.3     1  LIG1       -0.0316
     17 C          -6.5689   -2.0229   -1.6355 C.3     1  LIG1       -0.0316
     18 C          -5.4406   -0.8218    0.8044 C.3     1  LIG1        0.0148
     19 C          -6.8425   -2.6376   -0.2592 C.3     1  LIG1        0.0148
     20 C          -5.1948   -1.3491   -1.6248 C.3     1  LIG1       -0.0080
     21 C          -4.9033   -0.7638   -3.0080 C.3     1  LIG1        0.0819
     22 N          -8.8821   -3.5487    1.2718 N.ar    1  LIG1       -0.3100
     23 N          -6.6900   -1.5939    0.7637 N.am    1  LIG1       -0.2967
     24 O          -7.5992   -0.3956    2.3989 O.2     1  LIG1       -0.2702
     25 O         -12.6169   -6.7175    1.3464 O.3     1  LIG1       -0.3608
     26 O          -4.9129   -1.8113   -3.9801 O.3     1  LIG1       -0.3881
     27 H          -0.0982    1.5922   -2.9715 H       1  LIG1        0.0622
     28 H          -0.2804   -0.8264   -3.3956 H       1  LIG1        0.0623
     29 H          -2.1272    2.9271   -2.5653 H       1  LIG1        0.0623
     30 H         -12.8540   -2.4761    2.8308 H       1  LIG1        0.0630
     31 H          -2.4911   -1.9105   -3.4127 H       1  LIG1        0.0626
     32 H          -4.3387    1.8446   -2.5906 H       1  LIG1        0.0626
     33 H         -13.8450   -4.6628    2.3997 H       1  LIG1        0.0650
     34 H         -10.3511   -0.9329    2.5927 H       1  LIG1        0.0651
     35 H         -10.1416   -6.0897    0.8103 H       1  LIG1        0.0670
     36 H          -4.2115    0.2672   -0.5930 H       1  LIG1        0.0286
     37 H          -5.9626    0.4966   -0.8200 H       1  LIG1        0.0286
     38 H          -7.3356   -1.2819   -1.8618 H       1  LIG1        0.0286
     39 H          -6.5841   -2.8061   -2.3933 H       1  LIG1        0.0286
     40 H          -4.6147   -1.4775    1.0803 H       1  LIG1        0.0469
     41 H          -5.5314   -0.0181    1.5350 H       1  LIG1        0.0469
     42 H          -6.1308   -3.4413   -0.0701 H       1  LIG1        0.0469
     43 H          -7.8582   -3.0318   -0.2304 H       1  LIG1        0.0469
     44 H          -4.4313   -2.0855   -1.3738 H       1  LIG1        0.0334
     45 H          -5.6670   -0.0278   -3.2594 H       1  LIG1        0.0655
     46 H          -8.1387   -4.0342    0.8810 H       1  LIG1        0.1529
     47 H         -12.9881   -6.6859    0.4540 H       1  LIG1        0.2182
     48 H          -4.2246   -2.4392   -3.7211 H       1  LIG1        0.2109
@<TRIPOS>BOND
     1     1     2   ar
     2     1     3   ar
     3     2     5   ar
     4     3     6   ar
     5     4     7   ar
     6     4    10   ar
     7     5    11   ar
     8     6    11   ar
     9     7    13   ar
    10     8    10   ar
    11     8    14   ar
    12     9    12   ar
    13     9    13   ar
    14    10    12   ar
    15    11    21    1
    16    12    22   ar
    17    13    25    1
    18    14    15    1
    19    14    22   ar
    20    15    23   am
    21    15    24    2
    22    16    18    1
    23    16    20    1
    24    17    19    1
    25    17    20    1
    26    18    23    1
    27    19    23    1
    28    20    21    1
    29    21    26    1
    30     1    27    1
    31     2    28    1
    32     3    29    1
    33     4    30    1
    34     5    31    1
    35     6    32    1
    36     7    33    1
    37     8    34    1
    38     9    35    1
    39    16    36    1
    40    16    37    1
    41    17    38    1
    42    17    39    1
    43    18    40    1
    44    18    41    1
    45    19    42    1
    46    19    43    1
    47    20    44    1
    48    21    45    1
    49    22    46    1
    50    25    47    1
    51    26    48    1
