@<TRIPOS>MOLECULE
ChEBML232429
 36 38 0 0 0
SMALL
USER_CHARGES

@<TRIPOS>ATOM
      1 C          -4.1997   -0.6337    0.3859 C.ar    1  LIG1       -0.0613
      2 C          -4.3482   -0.9996   -0.9519 C.ar    1  LIG1       -0.0596
      3 C          -5.2953   -0.6826    1.2481 C.ar    1  LIG1       -0.0483
      4 C         -10.2182   -5.2436    0.5955 C.ar    1  LIG1       -0.0376
      5 C          -5.5922   -1.4141   -1.4276 C.ar    1  LIG1       -0.0310
      6 C         -11.5500   -5.6439    0.7366 C.ar    1  LIG1       -0.0299
      7 C         -12.1410   -3.5204    1.7555 C.ar    1  LIG1       -0.0226
      8 C         -10.1063   -1.9008    1.9588 C.ar    1  LIG1       -0.0275
      9 C         -10.8043   -3.0948    1.6237 C.ar    1  LIG1        0.0003
     10 C          -6.5393   -1.0972    0.7722 C.ar    1  LIG1        0.0541
     11 C          -9.8756   -3.9644    1.0480 C.ar    1  LIG1        0.0379
     12 C         -12.4983   -4.7973    1.3073 C.ar    1  LIG1        0.0753
     13 C          -6.6878   -1.4629   -0.5656 C.ar    1  LIG1        0.0858
     14 C          -8.7919   -2.0658    1.5872 C.ar    1  LIG1        0.0798
     15 C          -7.7100   -1.1424    1.7216 C.2     1  LIG1        0.2092
     16 C         -14.7120   -4.3044    2.0231 C.3     1  LIG1        0.0422
     17 C          -7.9530   -2.2270   -2.4287 C.3     1  LIG1        0.0423
     18 N          -8.6625   -3.3134    1.0386 N.ar    1  LIG1       -0.3112
     19 O          -7.6797   -0.3069    2.6552 O.2     1  LIG1       -0.2870
     20 O         -13.7893   -5.2164    1.4312 O.3     1  LIG1       -0.3493
     21 O          -7.8946   -1.8726   -1.0488 O.3     1  LIG1       -0.3485
     22 H          -3.2309   -0.3109    0.7562 H       1  LIG1        0.0623
     23 H          -3.4950   -0.9607   -1.6227 H       1  LIG1        0.0623
     24 H          -5.1677   -0.3957    2.2888 H       1  LIG1        0.0631
     25 H          -9.4807   -5.9032    0.1507 H       1  LIG1        0.0643
     26 H          -5.7010   -1.6978   -2.4709 H       1  LIG1        0.0650
     27 H         -11.8427   -6.6335    0.3929 H       1  LIG1        0.0651
     28 H         -12.8866   -2.8657    2.1987 H       1  LIG1        0.0657
     29 H         -10.5253   -1.0175    2.4225 H       1  LIG1        0.0651
     30 H         -15.7035   -4.7620    2.0619 H       1  LIG1        0.0535
     31 H         -14.7461   -3.3850    1.4332 H       1  LIG1        0.0535
     32 H         -14.3806   -4.0718    3.0379 H       1  LIG1        0.0535
     33 H          -8.9700   -2.5347   -2.6839 H       1  LIG1        0.0535
     34 H          -7.2535   -3.0433   -2.6261 H       1  LIG1        0.0535
     35 H          -7.6755   -1.3586   -3.0308 H       1  LIG1        0.0535
     36 H          -7.8027   -3.7035    0.6777 H       1  LIG1        0.1529
@<TRIPOS>BOND
     1     1     2   ar
     2     1     3   ar
     3     2     5   ar
     4     3    10   ar
     5     4     6   ar
     6     4    11   ar
     7     5    13   ar
     8     6    12   ar
     9     7     9   ar
    10     7    12   ar
    11     8     9   ar
    12     8    14   ar
    13     9    11   ar
    14    10    13   ar
    15    10    15    1
    16    11    18   ar
    17    12    20    1
    18    13    21    1
    19    14    15    1
    20    14    18   ar
    21    15    19    2
    22    16    20    1
    23    17    21    1
    24     1    22    1
    25     2    23    1
    26     3    24    1
    27     4    25    1
    28     5    26    1
    29     6    27    1
    30     7    28    1
    31     8    29    1
    32    16    30    1
    33    16    31    1
    34    16    32    1
    35    17    33    1
    36    17    34    1
    37    17    35    1
    38    18    36    1
