@<TRIPOS>MOLECULE
ChEBML1018751
 29 30 0 0 0
SMALL
USER_CHARGES

@<TRIPOS>ATOM
      1 C         -10.7572   -3.8584    1.3910 C.ar    1  LIG1       -0.0622
      2 C          -9.5236   -4.2165    0.8472 C.ar    1  LIG1       -0.0615
      3 C         -10.8927   -2.6521    2.0782 C.ar    1  LIG1       -0.0615
      4 C          -1.7653   -0.1343   -2.7009 C.ar    1  LIG1       -0.0573
      5 C          -2.3211    1.0579   -3.1516 C.ar    1  LIG1       -0.0437
      6 C          -8.4255   -3.3683    0.9904 C.ar    1  LIG1       -0.0511
      7 C          -9.7946   -1.8039    2.2215 C.ar    1  LIG1       -0.0511
      8 C          -2.4338   -0.8879   -1.7425 C.ar    1  LIG1       -0.0216
      9 C          -3.5377    1.4494   -2.6167 C.ar    1  LIG1        0.0290
     10 C          -8.5610   -2.1620    1.6776 C.ar    1  LIG1        0.0219
     11 C          -3.6454   -0.4092   -1.2705 C.ar    1  LIG1        0.1211
     12 C          -6.1023   -1.6917    1.2304 C.2     1  LIG1       -0.0001
     13 C          -5.4939   -0.9331    0.3112 C.2     1  LIG1       -0.0019
     14 C          -7.4162   -1.2777    1.8270 C.2     1  LIG1        0.1866
     15 N          -4.2166    0.7440   -1.6844 N.ar    1  LIG1       -0.2413
     16 N          -4.3079   -1.1810   -0.3033 N.pl3   1  LIG1       -0.3059
     17 O          -7.5112   -0.2132    2.4568 O.2     1  LIG1       -0.2891
     18 H         -11.6120   -4.5188    1.2794 H       1  LIG1        0.0622
     19 H          -9.4182   -5.1558    0.3124 H       1  LIG1        0.0623
     20 H         -11.8532   -2.3731    2.5014 H       1  LIG1        0.0623
     21 H          -0.8124   -0.4749   -3.0950 H       1  LIG1        0.0624
     22 H          -1.8179    1.6619   -3.8979 H       1  LIG1        0.0639
     23 H          -7.4690   -3.6572    0.5627 H       1  LIG1        0.0630
     24 H          -9.9118   -0.8664    2.7590 H       1  LIG1        0.0630
     25 H          -2.0076   -1.8198   -1.3856 H       1  LIG1        0.0659
     26 H          -4.0138    2.3711   -2.9350 H       1  LIG1        0.0840
     27 H          -5.6468   -2.6152    1.5691 H       1  LIG1        0.0677
     28 H          -5.9281   -0.0030   -0.0392 H       1  LIG1        0.0791
     29 H          -3.8488   -2.0371   -0.0192 H       1  LIG1        0.1537
@<TRIPOS>BOND
     1     1     2   ar
     2     1     3   ar
     3     2     6   ar
     4     3     7   ar
     5     4     5   ar
     6     4     8   ar
     7     5     9   ar
     8     6    10   ar
     9     7    10   ar
    10     8    11   ar
    11     9    15   ar
    12    10    14    1
    13    11    15   ar
    14    11    16    1
    15    12    13    2
    16    12    14    1
    17    13    16    1
    18    14    17    2
    19     1    18    1
    20     2    19    1
    21     3    20    1
    22     4    21    1
    23     5    22    1
    24     6    23    1
    25     7    24    1
    26     8    25    1
    27     9    26    1
    28    12    27    1
    29    13    28    1
    30    16    29    1
