@<TRIPOS>MOLECULE
ChEBML138629
 48 50 0 0 0
SMALL
USER_CHARGES

@<TRIPOS>ATOM
      1 C          -3.8436   -0.2207   -0.7245 C.3     1  LIG1        0.0053
      2 C          -4.7251   -2.2144   -1.7500 C.3     1  LIG1        0.0053
      3 C         -10.5149   -5.1894    0.2666 C.ar    1  LIG1       -0.0207
      4 C          -8.7850   -3.3572    0.8659 C.ar    1  LIG1       -0.0361
      5 C         -12.2347   -3.8464    2.0285 C.ar    1  LIG1       -0.0145
      6 C          -2.6333   -0.4675   -1.3567 C.3     1  LIG1        0.1690
      7 C          -3.4925   -2.4107   -2.3562 C.3     1  LIG1        0.1690
      8 C         -10.0533   -4.0263    0.9290 C.ar    1  LIG1       -0.0076
      9 C          -4.8980   -1.1062   -0.9262 C.3     1  LIG1       -0.0357
     10 C         -11.8110   -5.6621    0.4881 C.ar    1  LIG1        0.1054
     11 C         -12.6602   -4.9959    1.3603 C.ar    1  LIG1        0.1059
     12 C         -10.9273   -3.3725    1.8030 C.ar    1  LIG1        0.0224
     13 C          -8.7269   -2.2438    1.6699 C.ar    1  LIG1        0.0559
     14 C           0.3276   -3.5548   -1.9388 C.2     1  LIG1       -0.0968
     15 C          -0.2470   -2.3544   -1.8055 C.2     1  LIG1       -0.0270
     16 C          -7.6408   -1.3391    1.8649 C.2     1  LIG1        0.1694
     17 C         -11.2949   -7.4085   -1.0414 C.3     1  LIG1        0.0424
     18 C         -14.7366   -4.7176    2.4859 C.3     1  LIG1        0.0424
     19 C          -6.2244   -0.8663   -0.2525 C.3     1  LIG1       -0.0201
     20 C          -1.2083   -1.7756   -2.7954 C.3     1  LIG1        0.1663
     21 C          -6.2924   -1.5409    1.1196 C.3     1  LIG1        0.0154
     22 N          -2.4941   -1.5424   -2.1447 N.3     1  LIG1       -0.2013
     23 O          -7.7308   -0.3483    2.6421 O.2     1  LIG1       -0.2935
     24 O         -12.2288   -6.7844   -0.1630 O.3     1  LIG1       -0.3465
     25 O         -13.9255   -5.4568    1.5761 O.3     1  LIG1       -0.3465
     26 S         -10.1873   -1.9846    2.5097 S.2     1  LIG1       -0.0856
     27 H          -3.9558    0.6490   -0.0848 H       1  LIG1        0.0688
     28 H          -5.5335   -2.9181   -1.9211 H       1  LIG1        0.0688
     29 H          -9.8558   -5.7177   -0.4192 H       1  LIG1        0.0658
     30 H          -7.9565   -3.6897    0.2519 H       1  LIG1        0.0642
     31 H         -12.9016   -3.3275    2.7120 H       1  LIG1        0.0663
     32 H          -1.7708    0.1780   -1.2455 H       1  LIG1        0.1394
     33 H          -3.2865   -3.2500   -3.0092 H       1  LIG1        0.1394
     34 H           1.0198   -3.9377   -1.1971 H       1  LIG1        0.0537
     35 H           0.1090   -4.1757   -2.8008 H       1  LIG1        0.0537
     36 H          -0.0164   -1.7614   -0.9243 H       1  LIG1        0.0636
     37 H         -11.7537   -8.2904   -1.4953 H       1  LIG1        0.0535
     38 H         -10.4024   -7.6969   -0.4805 H       1  LIG1        0.0535
     39 H         -11.0170   -6.7007   -1.8258 H       1  LIG1        0.0535
     40 H         -15.7182   -5.1905    2.5673 H       1  LIG1        0.0535
     41 H         -14.8437   -3.6904    2.1281 H       1  LIG1        0.0535
     42 H         -14.2552   -4.7112    3.4667 H       1  LIG1        0.0535
     43 H          -7.0339   -1.2331   -0.8969 H       1  LIG1        0.0320
     44 H          -6.3941    0.2140   -0.1541 H       1  LIG1        0.0320
     45 H          -0.8493   -0.8302   -3.2179 H       1  LIG1        0.1091
     46 H          -1.3477   -2.4713   -3.6300 H       1  LIG1        0.1091
     47 H          -5.4999   -1.1386    1.7618 H       1  LIG1        0.0354
     48 H          -6.1420   -2.6205    1.0014 H       1  LIG1        0.0354
@<TRIPOS>BOND
     1     1     6    1
     2     1     9    1
     3     2     7    1
     4     2     9    1
     5     3     8   ar
     6     3    10   ar
     7     4     8   ar
     8     4    13   ar
     9     5    11   ar
    10     5    12   ar
    11     6    22    1
    12     7    22    1
    13     8    12   ar
    14     9    19    1
    15    10    11   ar
    16    10    24    1
    17    11    25    1
    18    12    26   ar
    19    13    16    1
    20    13    26   ar
    21    14    15    2
    22    15    20    1
    23    16    21    1
    24    16    23    2
    25    17    24    1
    26    18    25    1
    27    19    21    1
    28    20    22    1
    29     1    27    1
    30     2    28    1
    31     3    29    1
    32     4    30    1
    33     5    31    1
    34     6    32    1
    35     7    33    1
    36    14    34    1
    37    14    35    1
    38    15    36    1
    39    17    37    1
    40    17    38    1
    41    17    39    1
    42    18    40    1
    43    18    41    1
    44    18    42    1
    45    19    43    1
    46    19    44    1
    47    20    45    1
    48    20    46    1
    49    21    47    1
    50    21    48    1
