@<TRIPOS>MOLECULE
ChEBML300441
 48 50 0 0 0
SMALL
USER_CHARGES

@<TRIPOS>ATOM
      1 C         -10.3464   -5.1708    0.4644 C.ar    1  LIG1       -0.0387
      2 C         -11.6840   -5.5238    0.6649 C.ar    1  LIG1       -0.0416
      3 C         -12.0824   -3.5079    1.9589 C.ar    1  LIG1       -0.0343
      4 C          -9.9534   -2.0171    2.1806 C.ar    1  LIG1       -0.0262
      5 C         -10.7378   -3.1312    1.7701 C.ar    1  LIG1       -0.0007
      6 C          -9.9025   -3.9696    1.0288 C.ar    1  LIG1        0.0379
      7 C         -12.5403   -4.7067    1.4002 C.ar    1  LIG1        0.0413
      8 C          -8.6808   -2.1975    1.6898 C.ar    1  LIG1        0.0945
      9 C          -7.4980   -1.3126    1.8474 C.2     1  LIG1        0.2576
     10 C          -4.6246   -0.6214   -0.0684 C.2     1  LIG1        0.2319
     11 C          -2.5077   -0.6754   -2.2737 C.3     1  LIG1       -0.0107
     12 C          -3.7488    1.5051   -2.0831 C.3     1  LIG1       -0.0107
     13 C          -2.0863   -0.2269   -3.6694 C.3     1  LIG1        0.0484
     14 C          -3.2635    1.8204   -3.4949 C.3     1  LIG1        0.0484
     15 C          -2.8220    0.5180   -1.3693 C.3     1  LIG1        0.0298
     16 C          -5.0916   -1.0114    1.3229 C.3     1  LIG1        0.0887
     17 C          -2.6429    0.4058    1.0862 C.3     1  LIG1        0.0377
     18 C          -1.6729   -0.7191    1.3979 C.3     1  LIG1        0.0589
     19 N          -8.6600   -3.3778    0.9963 N.ar    1  LIG1       -0.3101
     20 N          -6.3228   -1.7438    1.2399 N.am    1  LIG1       -0.3013
     21 N          -3.4040    0.0778   -0.1203 N.am    1  LIG1       -0.2950
     22 O          -7.6038   -0.2809    2.5052 O.2     1  LIG1       -0.2704
     23 O          -5.2922   -0.9146   -1.0639 O.2     1  LIG1       -0.2756
     24 O          -3.0764    0.6226   -4.2472 O.3     1  LIG1       -0.3812
     25 O          -0.8015   -0.9115    0.2909 O.3     1  LIG1       -0.3947
     26 CL        -14.1832   -5.1752    1.6243 Cl      1  LIG1       -0.0843
     27 H          -9.6805   -5.8082   -0.1077 H       1  LIG1        0.0643
     28 H         -12.0465   -6.4547    0.2338 H       1  LIG1        0.0639
     29 H         -12.7490   -2.8698    2.5331 H       1  LIG1        0.0645
     30 H         -10.2884   -1.1752    2.7717 H       1  LIG1        0.0651
     31 H          -3.4185   -1.2809   -2.3661 H       1  LIG1        0.0309
     32 H          -1.7325   -1.3132   -1.8341 H       1  LIG1        0.0309
     33 H          -3.8608    2.4315   -1.5087 H       1  LIG1        0.0309
     34 H          -4.7417    1.0431   -2.1573 H       1  LIG1        0.0309
     35 H          -1.1214    0.2931   -3.6528 H       1  LIG1        0.0567
     36 H          -1.9770   -1.1001   -4.3207 H       1  LIG1        0.0567
     37 H          -4.0102    2.4278   -4.0162 H       1  LIG1        0.0567
     38 H          -2.3279    2.3917   -3.4798 H       1  LIG1        0.0567
     39 H          -1.8898    1.0248   -1.0961 H       1  LIG1        0.0507
     40 H          -4.3537   -1.6588    1.8036 H       1  LIG1        0.0567
     41 H          -5.2791   -0.1193    1.9259 H       1  LIG1        0.0567
     42 H          -3.3506    0.5584    1.9073 H       1  LIG1        0.0493
     43 H          -2.0993    1.3377    0.9039 H       1  LIG1        0.0493
     44 H          -2.2213   -1.6520    1.5623 H       1  LIG1        0.0580
     45 H          -1.0712   -0.4976    2.2853 H       1  LIG1        0.0580
     46 H          -7.8513   -3.7622    0.5272 H       1  LIG1        0.1529
     47 H          -6.3044   -2.6454    0.7641 H       1  LIG1        0.1503
     48 H          -0.2010   -1.6356    0.5304 H       1  LIG1        0.2101
@<TRIPOS>BOND
     1     1     2   ar
     2     1     6   ar
     3     2     7   ar
     4     3     5   ar
     5     3     7   ar
     6     4     5   ar
     7     4     8   ar
     8     5     6   ar
     9     6    19   ar
    10     7    26    1
    11     8     9    1
    12     8    19   ar
    13     9    20   am
    14     9    22    2
    15    10    16    1
    16    10    21   am
    17    10    23    2
    18    11    13    1
    19    11    15    1
    20    12    14    1
    21    12    15    1
    22    13    24    1
    23    14    24    1
    24    15    21    1
    25    16    20    1
    26    17    18    1
    27    17    21    1
    28    18    25    1
    29     1    27    1
    30     2    28    1
    31     3    29    1
    32     4    30    1
    33    11    31    1
    34    11    32    1
    35    12    33    1
    36    12    34    1
    37    13    35    1
    38    13    36    1
    39    14    37    1
    40    14    38    1
    41    15    39    1
    42    16    40    1
    43    16    41    1
    44    17    42    1
    45    17    43    1
    46    18    44    1
    47    18    45    1
    48    19    46    1
    49    20    47    1
    50    25    48    1
