@<TRIPOS>MOLECULE
ChEBML311669
 41 43 0 0 0
SMALL
USER_CHARGES

@<TRIPOS>ATOM
      1 C         -12.3616   -3.6969    1.8387 C.ar    1  LIG1       -0.0482
      2 C         -11.6480   -5.7757    0.8355 C.ar    1  LIG1       -0.0482
      3 C         -11.0634   -3.1985    1.7295 C.ar    1  LIG1       -0.0401
      4 C         -10.3498   -5.2773    0.7263 C.ar    1  LIG1       -0.0401
      5 C          -2.8813   -1.1580   -2.2020 C.ar    1  LIG1       -0.0167
      6 C          -1.9084   -0.5650   -2.9873 C.ar    1  LIG1       -0.0193
      7 C         -12.6539   -4.9855    1.3918 C.ar    1  LIG1        0.0556
      8 C         -10.0575   -3.9887    1.1734 C.ar    1  LIG1        0.0340
      9 C          -3.8920   -0.3565   -1.7105 C.ar    1  LIG1        0.1430
     10 C          -2.0109    0.7902   -3.2294 C.ar    1  LIG1        0.1514
     11 C          -8.5211   -2.1210    0.9697 C.2     1  LIG1        0.3050
     12 C          -5.5109   -0.1468    0.1079 C.3     1  LIG1        0.0289
     13 C          -5.5700   -2.1060   -1.4652 C.3     1  LIG1        0.0289
     14 C          -7.0229   -0.3591    0.0803 C.3     1  LIG1        0.0315
     15 C          -6.4643   -2.7338   -0.3951 C.3     1  LIG1        0.0315
     16 C         -14.0420   -5.5182    1.5086 C.3     1  LIG1        0.4160
     17 N          -3.9672    0.9673   -1.9634 N.ar    1  LIG1       -0.1337
     18 N          -3.0113    1.5500   -2.7356 N.ar    1  LIG1       -0.1367
     19 N          -4.8555   -0.9444   -0.9323 N.pl3   1  LIG1       -0.3112
     20 N          -7.3723   -1.7695    0.2361 N.am    1  LIG1       -0.2824
     21 N          -8.7548   -3.4888    1.0634 N.am    1  LIG1       -0.2691
     22 O          -9.2598   -1.2825    1.4962 O.2     1  LIG1       -0.2537
     23 F         -14.9211   -4.6369    2.0711 F       1  LIG1       -0.1661
     24 F         -14.5991   -5.8602    0.3092 F       1  LIG1       -0.1661
     25 F         -14.1095   -6.6437    2.2778 F       1  LIG1       -0.1661
     26 CL         -0.8625    1.6244   -4.1874 Cl      1  LIG1       -0.0602
     27 H         -13.1387   -3.0750    2.2754 H       1  LIG1        0.0629
     28 H         -11.8667   -6.7811    0.4854 H       1  LIG1        0.0629
     29 H         -10.8470   -2.1927    2.0808 H       1  LIG1        0.0642
     30 H          -9.5732   -5.9021    0.2922 H       1  LIG1        0.0642
     31 H          -2.8382   -2.2208   -1.9874 H       1  LIG1        0.0661
     32 H          -1.0961   -1.1579   -3.3939 H       1  LIG1        0.0657
     33 H          -5.2980    0.9215   -0.0219 H       1  LIG1        0.0485
     34 H          -5.1064   -0.4458    1.0823 H       1  LIG1        0.0485
     35 H          -4.8566   -2.8576   -1.8237 H       1  LIG1        0.0485
     36 H          -6.1824   -1.7937   -2.3209 H       1  LIG1        0.0485
     37 H          -7.4968    0.2367    0.8675 H       1  LIG1        0.0486
     38 H          -7.4424   -0.0291   -0.8780 H       1  LIG1        0.0486
     39 H          -7.0479   -3.5439   -0.8448 H       1  LIG1        0.0486
     40 H          -5.8518   -3.1633    0.4068 H       1  LIG1        0.0486
     41 H          -7.9996   -4.1628    1.1121 H       1  LIG1        0.1573
@<TRIPOS>BOND
     1     1     3   ar
     2     1     7   ar
     3     2     4   ar
     4     2     7   ar
     5     3     8   ar
     6     4     8   ar
     7     5     6   ar
     8     5     9   ar
     9     6    10   ar
    10     7    16    1
    11     8    21    1
    12     9    17   ar
    13     9    19    1
    14    10    18   ar
    15    10    26    1
    16    11    20   am
    17    11    21   am
    18    11    22    2
    19    12    14    1
    20    12    19    1
    21    13    15    1
    22    13    19    1
    23    14    20    1
    24    15    20    1
    25    16    23    1
    26    16    24    1
    27    16    25    1
    28    17    18   ar
    29     1    27    1
    30     2    28    1
    31     3    29    1
    32     4    30    1
    33     5    31    1
    34     6    32    1
    35    12    33    1
    36    12    34    1
    37    13    35    1
    38    13    36    1
    39    14    37    1
    40    14    38    1
    41    15    39    1
    42    15    40    1
    43    21    41    1
