@<TRIPOS>MOLECULE
ChEBML406366
 53 55 0 0 0
SMALL
USER_CHARGES

@<TRIPOS>ATOM
      1 C          -2.6469    1.3542   -3.4305 C.ar    1  LIG1       -0.0598
      2 C          -8.7292   -2.9783    1.6132 C.ar    1  LIG1       -0.0494
      3 C         -10.3126   -1.1917    1.9848 C.ar    1  LIG1       -0.0494
      4 C          -1.7254    0.3072   -3.4393 C.ar    1  LIG1       -0.0499
      5 C          -9.7826   -3.8752    1.4363 C.ar    1  LIG1       -0.0577
      6 C         -11.3661   -2.0887    1.8079 C.ar    1  LIG1       -0.0577
      7 C          -3.8204    1.2442   -2.6846 C.ar    1  LIG1       -0.0409
      8 C          -3.1508   -0.9599   -1.9562 C.ar    1  LIG1       -0.0287
      9 C          -8.9942   -1.6365    1.8875 C.ar    1  LIG1        0.0372
     10 C         -11.1011   -3.4304    1.5336 C.ar    1  LIG1       -0.0426
     11 C          -1.9772   -0.8498   -2.7022 C.ar    1  LIG1        0.0573
     12 C          -4.0723    0.0871   -1.9474 C.ar    1  LIG1        0.0292
     13 C          -7.8923   -0.6966    2.0722 C.2     1  LIG1        0.2456
     14 C          -5.8021   -1.3528   -1.0131 C.3     1  LIG1        0.0274
     15 C          -5.5527    1.0281   -0.2438 C.3     1  LIG1        0.0274
     16 C          -7.1354   -1.2589   -0.2710 C.3     1  LIG1        0.0302
     17 C          -5.9189    0.4167    1.1065 C.3     1  LIG1        0.0302
     18 C         -11.8251   -5.8296    1.7894 C.3     1  LIG1       -0.0561
     19 C         -12.6598   -4.4647   -0.1538 C.3     1  LIG1       -0.0561
     20 C         -13.5337   -4.0574    2.1378 C.3     1  LIG1       -0.0561
     21 C         -12.2273   -4.3897    1.3433 C.3     1  LIG1       -0.0132
     22 C          -0.9921   -1.9693   -2.7124 C.3     1  LIG1        0.4160
     23 N          -5.2257   -0.0208   -1.2139 N.pl3   1  LIG1       -0.3276
     24 N          -7.0181   -0.5385    1.0008 N.am    1  LIG1       -0.2947
     25 O          -7.8391   -0.1204    3.1544 O.2     1  LIG1       -0.2716
     26 F           0.1077   -1.7239   -3.4846 F       1  LIG1       -0.1661
     27 F          -0.4978   -2.2742   -1.4760 F       1  LIG1       -0.1661
     28 F          -1.5231   -3.1320   -3.1911 F       1  LIG1       -0.1661
     29 H          -2.4506    2.2553   -4.0045 H       1  LIG1        0.0623
     30 H          -7.7055   -3.3350    1.5353 H       1  LIG1        0.0631
     31 H         -10.5310   -0.1486    2.1981 H       1  LIG1        0.0631
     32 H          -0.8135    0.4016   -4.0235 H       1  LIG1        0.0629
     33 H          -9.5670   -4.9187    1.2227 H       1  LIG1        0.0626
     34 H         -12.3905   -1.7334    1.8849 H       1  LIG1        0.0626
     35 H          -4.5316    2.0663   -2.6845 H       1  LIG1        0.0642
     36 H          -3.3456   -1.8627   -1.3818 H       1  LIG1        0.0648
     37 H          -5.1018   -1.9696   -0.4355 H       1  LIG1        0.0485
     38 H          -5.9607   -1.8430   -1.9811 H       1  LIG1        0.0485
     39 H          -6.3957    1.6113   -0.6336 H       1  LIG1        0.0485
     40 H          -4.7118    1.7196   -0.1098 H       1  LIG1        0.0485
     41 H          -7.8696   -0.7133   -0.8763 H       1  LIG1        0.0486
     42 H          -7.5314   -2.2645   -0.0969 H       1  LIG1        0.0486
     43 H          -5.0637   -0.1296    1.5231 H       1  LIG1        0.0486
     44 H          -6.1804    1.2056    1.8203 H       1  LIG1        0.0486
     45 H         -12.6364   -6.5554    1.6597 H       1  LIG1        0.0239
     46 H         -10.9681   -6.2022    1.2176 H       1  LIG1        0.0239
     47 H         -11.5406   -5.8330    2.8483 H       1  LIG1        0.0239
     48 H         -13.4869   -5.1684   -0.2979 H       1  LIG1        0.0239
     49 H         -12.9907   -3.4967   -0.5481 H       1  LIG1        0.0239
     50 H         -11.8233   -4.8088   -0.7735 H       1  LIG1        0.0239
     51 H         -14.3311   -4.7904    1.9653 H       1  LIG1        0.0239
     52 H         -13.3405   -4.0405    3.2168 H       1  LIG1        0.0239
     53 H         -13.9289   -3.0774    1.8460 H       1  LIG1        0.0239
@<TRIPOS>BOND
     1     1     4   ar
     2     1     7   ar
     3     2     5   ar
     4     2     9   ar
     5     3     6   ar
     6     3     9   ar
     7     4    11   ar
     8     5    10   ar
     9     6    10   ar
    10     7    12   ar
    11     8    11   ar
    12     8    12   ar
    13     9    13    1
    14    10    21    1
    15    11    22    1
    16    12    23    1
    17    13    24   am
    18    13    25    2
    19    14    16    1
    20    14    23    1
    21    15    17    1
    22    15    23    1
    23    16    24    1
    24    17    24    1
    25    18    21    1
    26    19    21    1
    27    20    21    1
    28    22    26    1
    29    22    27    1
    30    22    28    1
    31     1    29    1
    32     2    30    1
    33     3    31    1
    34     4    32    1
    35     5    33    1
    36     6    34    1
    37     7    35    1
    38     8    36    1
    39    14    37    1
    40    14    38    1
    41    15    39    1
    42    15    40    1
    43    16    41    1
    44    16    42    1
    45    17    43    1
    46    17    44    1
    47    18    45    1
    48    18    46    1
    49    18    47    1
    50    19    48    1
    51    19    49    1
    52    19    50    1
    53    20    51    1
    54    20    52    1
    55    20    53    1
