@<TRIPOS>MOLECULE
ChEBML198826
 48 50 0 0 0
SMALL
USER_CHARGES

@<TRIPOS>ATOM
      1 C          -2.0425    1.2517   -2.8962 C.ar    1  LIG1       -0.0425
      2 C         -11.9179   -2.8903    0.9646 C.ar    1  LIG1       -0.0569
      3 C         -11.6047   -5.2624    0.6300 C.ar    1  LIG1       -0.0569
      4 C         -10.5539   -2.7458    1.2175 C.ar    1  LIG1       -0.0404
      5 C         -10.2405   -5.1179    0.8829 C.ar    1  LIG1       -0.0404
      6 C          -1.5417    0.1290   -2.2465 C.ar    1  LIG1       -0.0429
      7 C          -3.3860    1.5494   -2.7344 C.ar    1  LIG1        0.0291
      8 C         -12.4434   -4.1486    0.6708 C.ar    1  LIG1       -0.0453
      9 C          -9.7152   -3.8596    1.1767 C.ar    1  LIG1        0.0340
     10 C          -2.3878   -0.6507   -1.4658 C.ar    1  LIG1        0.0578
     11 C          -3.7159   -0.2677   -1.3677 C.ar    1  LIG1        0.1343
     12 C          -7.8151   -2.4830    1.7968 C.2     1  LIG1        0.3050
     13 C          -4.7264   -0.6944    0.8159 C.3     1  LIG1        0.0289
     14 C          -5.6557   -1.7389   -1.2726 C.3     1  LIG1        0.0289
     15 C          -6.2015   -0.6961    1.2106 C.3     1  LIG1        0.0315
     16 C          -6.3802   -2.6655   -0.2950 C.3     1  LIG1        0.0315
     17 C         -14.5984   -5.2137    1.4292 C.3     1  LIG1       -0.0587
     18 C         -14.1860   -4.8129   -1.0252 C.3     1  LIG1       -0.0587
     19 C         -13.9019   -4.3030    0.4004 C.3     1  LIG1       -0.0219
     20 N          -4.2386    0.8159   -1.9841 N.ar    1  LIG1       -0.2402
     21 N          -4.5682   -1.0223   -0.6036 N.pl3   1  LIG1       -0.3118
     22 N          -6.8360   -1.9800    0.9193 N.am    1  LIG1       -0.2824
     23 N          -8.3463   -3.7148    1.4302 N.am    1  LIG1       -0.2691
     24 O          -8.1695   -1.8829    2.8167 O.2     1  LIG1       -0.2537
     25 BR         -1.6793   -2.1734   -0.5917 Br      1  LIG1       -0.0470
     26 H          -1.4017    1.8739   -3.5106 H       1  LIG1        0.0639
     27 H         -12.5644   -2.0173    1.0007 H       1  LIG1        0.0626
     28 H         -12.0057   -6.2467    0.4026 H       1  LIG1        0.0626
     29 H         -10.1552   -1.7603    1.4449 H       1  LIG1        0.0642
     30 H          -9.5962   -5.9928    0.8496 H       1  LIG1        0.0642
     31 H          -0.4902   -0.1216   -2.3593 H       1  LIG1        0.0636
     32 H          -3.8253    2.4151   -3.2189 H       1  LIG1        0.0840
     33 H          -4.2970    0.2892    1.0434 H       1  LIG1        0.0485
     34 H          -4.1773   -1.4367    1.4077 H       1  LIG1        0.0485
     35 H          -5.2616   -2.3327   -2.1060 H       1  LIG1        0.0485
     36 H          -6.3665   -1.0131   -1.6882 H       1  LIG1        0.0485
     37 H          -6.3024   -0.4576    2.2746 H       1  LIG1        0.0486
     38 H          -6.7528    0.0683    0.6495 H       1  LIG1        0.0486
     39 H          -7.2379   -3.1211   -0.8006 H       1  LIG1        0.0486
     40 H          -5.7114   -3.4721    0.0292 H       1  LIG1        0.0486
     41 H         -14.1689   -6.2215    1.4315 H       1  LIG1        0.0236
     42 H         -15.6693   -5.3095    1.2194 H       1  LIG1        0.0236
     43 H         -14.4900   -4.8025    2.4391 H       1  LIG1        0.0236
     44 H         -13.7181   -5.7914   -1.1816 H       1  LIG1        0.0236
     45 H         -13.7898   -4.1273   -1.7822 H       1  LIG1        0.0236
     46 H         -15.2605   -4.9234   -1.2072 H       1  LIG1        0.0236
     47 H         -14.4038   -3.3196    0.4765 H       1  LIG1        0.0346
     48 H          -7.7810   -4.5549    1.3882 H       1  LIG1        0.1573
@<TRIPOS>BOND
     1     1     6   ar
     2     1     7   ar
     3     2     4   ar
     4     2     8   ar
     5     3     5   ar
     6     3     8   ar
     7     4     9   ar
     8     5     9   ar
     9     6    10   ar
    10     7    20   ar
    11     8    19    1
    12     9    23    1
    13    10    11   ar
    14    10    25    1
    15    11    20   ar
    16    11    21    1
    17    12    22   am
    18    12    23   am
    19    12    24    2
    20    13    15    1
    21    13    21    1
    22    14    16    1
    23    14    21    1
    24    15    22    1
    25    16    22    1
    26    17    19    1
    27    18    19    1
    28     1    26    1
    29     2    27    1
    30     3    28    1
    31     4    29    1
    32     5    30    1
    33     6    31    1
    34     7    32    1
    35    13    33    1
    36    13    34    1
    37    14    35    1
    38    14    36    1
    39    15    37    1
    40    15    38    1
    41    16    39    1
    42    16    40    1
    43    17    41    1
    44    17    42    1
    45    17    43    1
    46    18    44    1
    47    18    45    1
    48    18    46    1
    49    19    47    1
    50    23    48    1
