@<TRIPOS>MOLECULE
ChEBML348050
 36 39 0 0 0
SMALL
USER_CHARGES

@<TRIPOS>ATOM
      1 C         -12.4127   -4.7889    1.2896 C.ar    1  LIG1       -0.0615
      2 C         -11.4605   -5.6367    0.7271 C.ar    1  LIG1       -0.0603
      3 C          -2.7428   -1.8691   -1.7590 C.ar    1  LIG1       -0.0577
      4 C         -12.0602   -3.5082    1.7306 C.ar    1  LIG1       -0.0530
      5 C         -10.1294   -5.2336    0.5873 C.ar    1  LIG1       -0.0402
      6 C          -3.5780   -2.4873   -0.8241 C.ar    1  LIG1       -0.0400
      7 C          -2.9676   -0.5554   -2.1656 C.ar    1  LIG1       -0.0310
      8 C         -10.0305   -1.8819    1.9297 C.ar    1  LIG1       -0.0276
      9 C          -6.0446    0.0153    0.0121 C.ar    1  LIG1       -0.0249
     10 C         -10.7242   -3.0799    1.6001 C.ar    1  LIG1       -0.0022
     11 C          -4.8941   -0.4205   -0.7032 C.ar    1  LIG1        0.0281
     12 C          -9.7915   -3.9507    1.0327 C.ar    1  LIG1        0.0378
     13 C          -4.6447   -1.7384   -0.3143 C.ar    1  LIG1        0.0404
     14 C          -4.0385    0.1816   -1.6470 C.ar    1  LIG1        0.0838
     15 C          -8.7146   -2.0457    1.5630 C.ar    1  LIG1        0.0811
     16 C          -6.4636   -1.0272    0.8063 C.ar    1  LIG1        0.0812
     17 C          -7.5754   -1.0676    1.7028 C.2     1  LIG1        0.2206
     18 C          -5.0670    1.6554   -3.2046 C.3     1  LIG1        0.0423
     19 N          -8.5802   -3.2964    1.0227 N.ar    1  LIG1       -0.3112
     20 N          -5.6129   -2.0804    0.6027 N.ar    1  LIG1       -0.3111
     21 O          -7.6606   -0.2749    2.6696 O.2     1  LIG1       -0.2856
     22 O          -4.2325    1.4703   -2.0668 O.3     1  LIG1       -0.3486
     23 H         -13.4418   -5.1246    1.3869 H       1  LIG1        0.0623
     24 H         -11.7562   -6.6273    0.3917 H       1  LIG1        0.0623
     25 H          -1.9041   -2.4230   -2.1734 H       1  LIG1        0.0624
     26 H         -12.8128   -2.8573    2.1669 H       1  LIG1        0.0629
     27 H          -9.3881   -5.8939    0.1498 H       1  LIG1        0.0642
     28 H          -3.4024   -3.5104   -0.5092 H       1  LIG1        0.0643
     29 H          -2.3007   -0.1021   -2.8950 H       1  LIG1        0.0650
     30 H         -10.4533   -0.9969    2.3863 H       1  LIG1        0.0651
     31 H          -6.5131    0.9886   -0.0498 H       1  LIG1        0.0652
     32 H          -5.1398    2.7212   -3.4346 H       1  LIG1        0.0535
     33 H          -6.0600    1.2474   -2.9995 H       1  LIG1        0.0535
     34 H          -4.6283    1.1303   -4.0564 H       1  LIG1        0.0535
     35 H          -7.7180   -3.6868    0.6678 H       1  LIG1        0.1529
     36 H          -5.6826   -2.9800    1.0584 H       1  LIG1        0.1529
@<TRIPOS>BOND
     1     1     2   ar
     2     1     4   ar
     3     2     5   ar
     4     3     6   ar
     5     3     7   ar
     6     4    10   ar
     7     5    12   ar
     8     6    13   ar
     9     7    14   ar
    10     8    10   ar
    11     8    15   ar
    12     9    11   ar
    13     9    16   ar
    14    10    12   ar
    15    11    13   ar
    16    11    14   ar
    17    12    19   ar
    18    13    20   ar
    19    14    22    1
    20    15    17    1
    21    15    19   ar
    22    16    17    1
    23    16    20   ar
    24    17    21    2
    25    18    22    1
    26     1    23    1
    27     2    24    1
    28     3    25    1
    29     4    26    1
    30     5    27    1
    31     6    28    1
    32     7    29    1
    33     8    30    1
    34     9    31    1
    35    18    32    1
    36    18    33    1
    37    18    34    1
    38    19    35    1
    39    20    36    1
