@<TRIPOS>MOLECULE
ChEBML390734
 37 39 0 0 0
SMALL
USER_CHARGES

@<TRIPOS>ATOM
      1 C         -12.5324   -4.7907    1.3197 C.ar    1  LIG1       -0.0615
      2 C         -11.5890   -5.6428    0.7490 C.ar    1  LIG1       -0.0603
      3 C         -12.1688   -3.5146    1.7645 C.ar    1  LIG1       -0.0530
      4 C          -4.1832   -1.3017    0.3619 C.ar    1  LIG1       -0.0542
      5 C          -5.6881   -0.8331   -1.4692 C.ar    1  LIG1       -0.0542
      6 C          -5.2648   -1.3354    1.2421 C.ar    1  LIG1       -0.0504
      7 C          -6.7696   -0.8669   -0.5891 C.ar    1  LIG1       -0.0504
      8 C         -10.2558   -5.2486    0.6046 C.ar    1  LIG1       -0.0402
      9 C         -10.1266   -1.9035    1.9607 C.ar    1  LIG1       -0.0276
     10 C         -10.8304   -3.0951    1.6294 C.ar    1  LIG1       -0.0022
     11 C          -4.3948   -1.0505   -0.9938 C.ar    1  LIG1       -0.0254
     12 C          -6.5579   -1.1181    0.7667 C.ar    1  LIG1        0.0239
     13 C          -9.9066   -3.9700    1.0538 C.ar    1  LIG1        0.0378
     14 C          -8.8137   -2.0750    1.5870 C.ar    1  LIG1        0.0797
     15 C          -3.2671   -1.0150   -1.9117 C.2     1  LIG1       -0.0497
     16 C          -2.0552   -1.5677   -1.6799 C.2     1  LIG1        0.0033
     17 C          -7.7271   -1.1565    1.7183 C.2     1  LIG1        0.2066
     18 C          -0.9666   -1.4601   -2.6906 C.2     1  LIG1        0.2584
     19 N          -8.6908   -3.3244    1.0408 N.ar    1  LIG1       -0.3112
     20 N          -0.1207   -2.5381   -2.6401 N.am    1  LIG1       -0.1945
     21 O          -7.6914   -0.3200    2.6506 O.2     1  LIG1       -0.2871
     22 O          -0.8688   -0.5117   -3.4625 O.2     1  LIG1       -0.2703
     23 O           0.9352   -2.5246   -3.5621 O.3     1  LIG1       -0.2965
     24 H         -13.5635   -5.1195    1.4206 H       1  LIG1        0.0623
     25 H         -11.8933   -6.6298    0.4108 H       1  LIG1        0.0623
     26 H         -12.9146   -2.8601    2.2072 H       1  LIG1        0.0629
     27 H          -3.1809   -1.4729    0.7472 H       1  LIG1        0.0629
     28 H          -5.8690   -0.6363   -2.5232 H       1  LIG1        0.0629
     29 H          -5.0883   -1.5325    2.2964 H       1  LIG1        0.0630
     30 H          -7.7732   -0.6966   -0.9701 H       1  LIG1        0.0630
     31 H          -9.5213   -5.9123    0.1607 H       1  LIG1        0.0642
     32 H         -10.5410   -1.0174    2.4232 H       1  LIG1        0.0651
     33 H          -3.4283   -0.4759   -2.8521 H       1  LIG1        0.0631
     34 H          -1.8381   -2.0911   -0.7548 H       1  LIG1        0.0679
     35 H          -7.8330   -3.7193    0.6801 H       1  LIG1        0.1529
     36 H          -0.2505   -3.2960   -1.9787 H       1  LIG1        0.1839
     37 H           0.7579   -1.6845   -4.0179 H       1  LIG1        0.2427
@<TRIPOS>BOND
     1     1     2   ar
     2     1     3   ar
     3     2     8   ar
     4     3    10   ar
     5     4     6   ar
     6     4    11   ar
     7     5     7   ar
     8     5    11   ar
     9     6    12   ar
    10     7    12   ar
    11     8    13   ar
    12     9    10   ar
    13     9    14   ar
    14    10    13   ar
    15    11    15    1
    16    12    17    1
    17    13    19   ar
    18    14    17    1
    19    14    19   ar
    20    15    16    2
    21    16    18    1
    22    17    21    2
    23    18    20   am
    24    18    22    2
    25    20    23    1
    26     1    24    1
    27     2    25    1
    28     3    26    1
    29     4    27    1
    30     5    28    1
    31     6    29    1
    32     7    30    1
    33     8    31    1
    34     9    32    1
    35    15    33    1
    36    16    34    1
    37    19    35    1
    38    20    36    1
    39    23    37    1
