@<TRIPOS>MOLECULE
ChEBML1137485
 48 51 0 0 0
SMALL
USER_CHARGES

@<TRIPOS>ATOM
      1 C          -3.6530    1.2133   -3.2083 C.ar    1  LIG1       -0.0602
      2 C          -2.3857    0.8224   -3.5990 C.ar    1  LIG1       -0.0595
      3 C         -13.8981   -4.9458    1.0486 C.ar    1  LIG1       -0.0431
      4 C         -12.5330   -4.7164    1.0404 C.ar    1  LIG1       -0.0497
      5 C          -4.2547    0.6235   -2.1125 C.ar    1  LIG1       -0.0382
      6 C          -1.7137   -0.1605   -2.8959 C.ar    1  LIG1       -0.0299
      7 C         -10.0162   -1.9653    1.8827 C.ar    1  LIG1       -0.0058
      8 C         -14.7530   -3.9267    1.4270 C.ar    1  LIG1        0.0268
      9 C         -12.9962   -2.4812    1.7920 C.ar    1  LIG1        0.0362
     10 C         -12.0710   -3.4529    1.4184 C.ar    1  LIG1        0.0202
     11 C          -3.5887   -0.3671   -1.4056 C.ar    1  LIG1        0.0594
     12 C          -2.3095   -0.7563   -1.7965 C.ar    1  LIG1        0.0957
     13 C         -10.6171   -3.1532    1.4274 C.ar    1  LIG1        0.0920
     14 C          -8.6594   -2.1481    1.6954 C.ar    1  LIG1        0.1124
     15 C          -7.5889   -1.1895    2.0145 C.2     1  LIG1        0.2614
     16 C          -4.5882    0.1136    0.6100 C.3     1  LIG1        0.0275
     17 C          -5.4310   -1.5985   -0.7874 C.3     1  LIG1        0.0275
     18 C          -5.2439   -0.4778    1.8620 C.3     1  LIG1        0.0303
     19 C          -6.1422   -2.3029    0.3725 C.3     1  LIG1        0.0303
     20 C          -0.3818   -1.8949   -1.7407 C.3     1  LIG1        0.0423
     21 N         -14.2872   -2.7441    1.7789 N.ar    1  LIG1       -0.2640
     22 N          -9.6560   -3.9506    1.0114 N.ar    1  LIG1       -0.1834
     23 N          -8.5080   -3.3919    1.1499 N.ar    1  LIG1       -0.2326
     24 N          -4.1981   -0.9701   -0.2992 N.pl3   1  LIG1       -0.3255
     25 N          -6.3763   -1.3178    1.4405 N.am    1  LIG1       -0.2935
     26 O          -7.7987   -0.2817    2.7963 O.2     1  LIG1       -0.2701
     27 O          -1.6494   -1.7229   -1.1037 O.3     1  LIG1       -0.3473
     28 H          -4.1739    1.9817   -3.7601 H       1  LIG1        0.0623
     29 H          -1.9192    1.2863   -4.4554 H       1  LIG1        0.0623
     30 H         -14.2912   -5.9101    0.7621 H       1  LIG1        0.0639
     31 H         -11.8425   -5.4940    0.7489 H       1  LIG1        0.0631
     32 H          -5.2446    0.9309   -1.8092 H       1  LIG1        0.0643
     33 H          -0.7238   -0.4634   -3.2038 H       1  LIG1        0.0651
     34 H         -10.5101   -1.0963    2.2919 H       1  LIG1        0.0668
     35 H         -15.8187   -4.1020    1.4343 H       1  LIG1        0.0839
     36 H         -12.6525   -1.5019    2.0907 H       1  LIG1        0.0847
     37 H          -3.7040    0.6823    0.8974 H       1  LIG1        0.0485
     38 H          -5.2956    0.7728    0.1067 H       1  LIG1        0.0485
     39 H          -6.0869   -0.8348   -1.2054 H       1  LIG1        0.0485
     40 H          -5.1855   -2.3279   -1.5593 H       1  LIG1        0.0485
     41 H          -4.5186   -1.0844    2.4044 H       1  LIG1        0.0486
     42 H          -5.6027    0.3272    2.5034 H       1  LIG1        0.0486
     43 H          -5.5165   -3.1117    0.7497 H       1  LIG1        0.0486
     44 H          -7.0952   -2.7051    0.0286 H       1  LIG1        0.0486
     45 H          -0.5338   -2.1970   -2.7769 H       1  LIG1        0.0535
     46 H           0.1691   -0.9548   -1.7134 H       1  LIG1        0.0535
     47 H           0.1863   -2.6642   -1.2176 H       1  LIG1        0.0535
     48 H          -7.6596   -3.7938    0.9058 H       1  LIG1        0.1757
@<TRIPOS>BOND
     1     1     2   ar
     2     1     5   ar
     3     2     6   ar
     4     3     4   ar
     5     3     8   ar
     6     4    10   ar
     7     5    11   ar
     8     6    12   ar
     9     7    13   ar
    10     7    14   ar
    11     8    21   ar
    12     9    10   ar
    13     9    21   ar
    14    10    13    1
    15    11    12   ar
    16    11    24    1
    17    12    27    1
    18    13    22   ar
    19    14    15    1
    20    14    23   ar
    21    15    25   am
    22    15    26    2
    23    16    18    1
    24    16    24    1
    25    17    19    1
    26    17    24    1
    27    18    25    1
    28    19    25    1
    29    20    27    1
    30    22    23   ar
    31     1    28    1
    32     2    29    1
    33     3    30    1
    34     4    31    1
    35     5    32    1
    36     6    33    1
    37     7    34    1
    38     8    35    1
    39     9    36    1
    40    16    37    1
    41    16    38    1
    42    17    39    1
    43    17    40    1
    44    18    41    1
    45    18    42    1
    46    19    43    1
    47    19    44    1
    48    20    45    1
    49    20    46    1
    50    20    47    1
    51    23    48    1
