@<TRIPOS>MOLECULE
ChEBML216436
 39 41 0 0 0
SMALL
USER_CHARGES

@<TRIPOS>ATOM
      1 C          -3.3988    0.6454   -3.5971 C.ar    1  LIG1       -0.0622
      2 C         -12.4872   -5.3354    1.4137 C.ar    1  LIG1       -0.0616
      3 C         -11.3154   -6.0637    1.5969 C.ar    1  LIG1       -0.0616
      4 C          -2.7524   -0.5695   -3.3695 C.ar    1  LIG1       -0.0619
      5 C          -3.8835    1.3897   -2.5216 C.ar    1  LIG1       -0.0619
      6 C         -12.4493   -3.9408    1.4089 C.ar    1  LIG1       -0.0544
      7 C         -10.1014   -5.4001    1.7758 C.ar    1  LIG1       -0.0543
      8 C         -11.1794   -1.8530    1.5855 C.ar    1  LIG1       -0.0536
      9 C          -9.9654   -1.1895    1.7645 C.ar    1  LIG1       -0.0504
     10 C          -2.5907   -1.0401   -2.0665 C.ar    1  LIG1       -0.0575
     11 C          -3.7219    0.9191   -1.2185 C.ar    1  LIG1       -0.0575
     12 C          -8.8315   -3.3123    1.9525 C.ar    1  LIG1       -0.0432
     13 C         -11.2362   -3.2563    1.5876 C.ar    1  LIG1       -0.0183
     14 C         -10.0446   -3.9968    1.7738 C.ar    1  LIG1       -0.0176
     15 C          -8.7936   -1.9177    1.9477 C.ar    1  LIG1        0.0225
     16 C          -3.0754   -0.2958   -0.9910 C.ar    1  LIG1       -0.0316
     17 C          -6.2663   -1.8876    1.6674 C.2     1  LIG1       -0.0011
     18 C          -5.2142   -1.1619    1.2710 C.2     1  LIG1       -0.0160
     19 C          -7.5290   -1.2250    2.1367 C.2     1  LIG1        0.1866
     20 C          -2.9019   -0.8020    0.4119 C.3     1  LIG1        0.0244
     21 N          -4.0155   -1.6265    0.8320 N.4     1  LIG1       -0.4110
     22 O          -3.7070   -3.0058    0.9499 O.3     1  LIG1       -0.7681
     23 O          -7.4858   -0.1193    2.6978 O.2     1  LIG1       -0.2891
     24 H          -3.5234    1.0124   -4.6118 H       1  LIG1        0.0622
     25 H         -13.4323   -5.8526    1.2760 H       1  LIG1        0.0623
     26 H         -11.3456   -7.1493    1.6000 H       1  LIG1        0.0623
     27 H          -2.3739   -1.1486   -4.2069 H       1  LIG1        0.0623
     28 H          -4.3859    2.3361   -2.6983 H       1  LIG1        0.0623
     29 H         -13.3778   -3.3920    1.2655 H       1  LIG1        0.0629
     30 H          -9.1978   -5.9900    1.9158 H       1  LIG1        0.0629
     31 H         -12.0831   -1.2639    1.4432 H       1  LIG1        0.0629
     32 H          -9.9480   -0.1025    1.7589 H       1  LIG1        0.0630
     33 H          -2.0859   -1.9879   -1.8987 H       1  LIG1        0.0626
     34 H          -4.1029    1.5057   -0.3867 H       1  LIG1        0.0626
     35 H          -7.9088   -3.8723    2.0975 H       1  LIG1        0.0637
     36 H          -6.2179   -2.9705    1.6677 H       1  LIG1        0.0677
     37 H          -5.2378   -0.0776    1.2668 H       1  LIG1        0.0781
     38 H          -1.9884   -1.4005    0.4962 H       1  LIG1        0.0510
     39 H          -2.8136    0.0279    1.1209 H       1  LIG1        0.0510
@<TRIPOS>BOND
     1     1     4   ar
     2     1     5   ar
     3     2     3   ar
     4     2     6   ar
     5     3     7   ar
     6     4    10   ar
     7     5    11   ar
     8     6    13   ar
     9     7    14   ar
    10     8     9   ar
    11     8    13   ar
    12     9    15   ar
    13    10    16   ar
    14    11    16   ar
    15    12    14   ar
    16    12    15   ar
    17    13    14   ar
    18    15    19    1
    19    16    20    1
    20    17    18    2
    21    17    19    1
    22    18    21    1
    23    19    23    2
    24    20    21    1
    25    21    22    1
    26     1    24    1
    27     2    25    1
    28     3    26    1
    29     4    27    1
    30     5    28    1
    31     6    29    1
    32     7    30    1
    33     8    31    1
    34     9    32    1
    35    10    33    1
    36    11    34    1
    37    12    35    1
    38    17    36    1
    39    18    37    1
    40    20    38    1
    41    20    39    1
