@<TRIPOS>MOLECULE
ChEBML5347
 50 53 0 0 0
SMALL
USER_CHARGES

@<TRIPOS>ATOM
      1 C          -3.9386   -5.5038   -4.5538 C.ar    1  LIG1       -0.0622
      2 C          -2.0282    1.6043   -3.2364 C.ar    1  LIG1       -0.0622
      3 C         -12.3068   -4.9983    1.9548 C.ar    1  LIG1       -0.0615
      4 C          -4.5885   -4.3174   -4.8935 C.ar    1  LIG1       -0.0616
      5 C          -3.2085   -5.5845   -3.3680 C.ar    1  LIG1       -0.0616
      6 C          -3.3919    1.3590   -3.3967 C.ar    1  LIG1       -0.0616
      7 C          -1.2081    0.6346   -2.6593 C.ar    1  LIG1       -0.0616
      8 C         -11.7206   -5.5216    0.8041 C.ar    1  LIG1       -0.0603
      9 C         -11.7436   -3.8959    2.6077 C.ar    1  LIG1       -0.0530
     10 C          -4.5081   -3.2113   -4.0474 C.ar    1  LIG1       -0.0544
     11 C          -3.1281   -4.4784   -2.5220 C.ar    1  LIG1       -0.0544
     12 C          -3.9356    0.1441   -2.9798 C.ar    1  LIG1       -0.0544
     13 C          -1.7520   -0.5803   -2.2424 C.ar    1  LIG1       -0.0544
     14 C         -10.5563   -4.9620    0.2698 C.ar    1  LIG1       -0.0402
     15 C          -9.7486   -2.2203    2.4780 C.ar    1  LIG1       -0.0262
     16 C         -10.5699   -3.3149    2.0878 C.ar    1  LIG1       -0.0022
     17 C          -3.7779   -3.2918   -2.8616 C.ar    1  LIG1       -0.0181
     18 C          -3.1157   -0.8256   -2.4026 C.ar    1  LIG1       -0.0181
     19 C         -10.0045   -3.8603    0.9332 C.ar    1  LIG1        0.0378
     20 C          -8.7196   -2.1244    1.5698 C.ar    1  LIG1        0.0944
     21 C          -4.1749   -2.2487   -0.7055 C.2     1  LIG1       -0.0745
     22 C          -3.6919   -2.1141   -1.9603 C.2     1  LIG1       -0.0151
     23 C          -7.6447   -1.1834    1.5439 C.2     1  LIG1        0.2572
     24 C          -4.2379   -1.2078    0.3845 C.3     1  LIG1       -0.0184
     25 C          -5.5487   -0.4270    0.3498 C.3     1  LIG1        0.0148
     26 N          -8.8826   -3.1176    0.6418 N.ar    1  LIG1       -0.3101
     27 N          -6.7004   -1.2872    0.4999 N.am    1  LIG1       -0.3100
     28 O          -7.5234   -0.3002    2.4300 O.2     1  LIG1       -0.2704
     29 H          -4.0023   -6.3655   -5.2119 H       1  LIG1        0.0622
     30 H          -1.6045    2.5497   -3.5622 H       1  LIG1        0.0622
     31 H         -13.2125   -5.4502    2.3508 H       1  LIG1        0.0623
     32 H          -5.1580   -4.2548   -5.8163 H       1  LIG1        0.0623
     33 H          -2.7035   -6.5086   -3.1028 H       1  LIG1        0.0623
     34 H          -4.0304    2.1135   -3.8471 H       1  LIG1        0.0623
     35 H          -0.1462    0.8250   -2.5355 H       1  LIG1        0.0623
     36 H         -12.1748   -6.3784    0.3134 H       1  LIG1        0.0623
     37 H         -12.2112   -3.4976    3.5040 H       1  LIG1        0.0629
     38 H          -5.0200   -2.2932   -4.3259 H       1  LIG1        0.0629
     39 H          -2.5551   -4.5567   -1.6011 H       1  LIG1        0.0629
     40 H          -5.0007   -0.0324   -3.1113 H       1  LIG1        0.0629
     41 H          -1.0998   -1.3263   -1.7943 H       1  LIG1        0.0629
     42 H         -10.0999   -5.3699   -0.6258 H       1  LIG1        0.0642
     43 H          -9.8986   -1.5745    3.3330 H       1  LIG1        0.0651
     44 H          -4.5808   -3.2145   -0.4020 H       1  LIG1        0.0583
     45 H          -4.1599   -1.7283    1.3468 H       1  LIG1        0.0326
     46 H          -3.3974   -0.5082    0.3417 H       1  LIG1        0.0326
     47 H          -5.6545    0.0845   -0.6124 H       1  LIG1        0.0470
     48 H          -5.5910    0.3279    1.1419 H       1  LIG1        0.0470
     49 H          -8.2695   -3.2850   -0.1443 H       1  LIG1        0.1529
     50 H          -6.7949   -2.0514   -0.1610 H       1  LIG1        0.1497
@<TRIPOS>BOND
     1     1     4   ar
     2     1     5   ar
     3     2     6   ar
     4     2     7   ar
     5     3     8   ar
     6     3     9   ar
     7     4    10   ar
     8     5    11   ar
     9     6    12   ar
    10     7    13   ar
    11     8    14   ar
    12     9    16   ar
    13    10    17   ar
    14    11    17   ar
    15    12    18   ar
    16    13    18   ar
    17    14    19   ar
    18    15    16   ar
    19    15    20   ar
    20    16    19   ar
    21    17    22    1
    22    18    22    1
    23    19    26   ar
    24    20    23    1
    25    20    26   ar
    26    21    22    2
    27    21    24    1
    28    23    27   am
    29    23    28    2
    30    24    25    1
    31    25    27    1
    32     1    29    1
    33     2    30    1
    34     3    31    1
    35     4    32    1
    36     5    33    1
    37     6    34    1
    38     7    35    1
    39     8    36    1
    40     9    37    1
    41    10    38    1
    42    11    39    1
    43    12    40    1
    44    13    41    1
    45    14    42    1
    46    15    43    1
    47    21    44    1
    48    24    45    1
    49    24    46    1
    50    25    47    1
    51    25    48    1
    52    26    49    1
    53    27    50    1
