@<TRIPOS>MOLECULE
ChEBML198778
 55 58 0 0 0
SMALL
USER_CHARGES

@<TRIPOS>ATOM
      1 C          -2.2359    0.9600   -3.4732 C.ar    1  LIG1       -0.0422
      2 C         -11.9786   -2.9641    0.9314 C.ar    1  LIG1       -0.0569
      3 C         -11.6332   -5.3518    0.8032 C.ar    1  LIG1       -0.0569
      4 C         -10.6125   -2.7777    1.1424 C.ar    1  LIG1       -0.0404
      5 C         -10.2670   -5.1655    1.0142 C.ar    1  LIG1       -0.0404
      6 C          -1.9716   -0.3831   -3.2295 C.ar    1  LIG1       -0.0384
      7 C          -3.3302    1.5305   -2.8428 C.ar    1  LIG1        0.0292
      8 C         -12.4890   -4.2511    0.7619 C.ar    1  LIG1       -0.0447
      9 C          -9.7567   -3.8784    1.1837 C.ar    1  LIG1        0.0340
     10 C          -2.7978   -1.1046   -2.3750 C.ar    1  LIG1        0.0809
     11 C          -3.8667   -0.4417   -1.7937 C.ar    1  LIG1        0.1388
     12 C          -7.8677   -2.4244    1.6395 C.2     1  LIG1        0.3050
     13 C         -16.2653   -6.2436    0.0686 C.3     1  LIG1       -0.0533
     14 C         -16.0349   -5.5927    1.4291 C.3     1  LIG1       -0.0527
     15 C         -15.6753   -5.4069   -1.0626 C.3     1  LIG1       -0.0527
     16 C         -14.5553   -5.2996    1.6708 C.3     1  LIG1       -0.0464
     17 C         -14.1938   -5.1129   -0.8333 C.3     1  LIG1       -0.0464
     18 C          -4.8280   -0.6860    0.4396 C.3     1  LIG1        0.0289
     19 C          -5.7802   -1.9265   -1.5279 C.3     1  LIG1        0.0289
     20 C          -6.2951   -0.6738    0.8632 C.3     1  LIG1        0.0315
     21 C          -6.4704   -2.7724   -0.4569 C.3     1  LIG1        0.0315
     22 C         -13.9497   -4.4503    0.5365 C.3     1  LIG1       -0.0162
     23 N          -4.1553    0.8618   -2.0065 N.ar    1  LIG1       -0.2398
     24 N          -4.6918   -1.1372   -0.9480 N.pl3   1  LIG1       -0.3115
     25 N          -6.9140   -1.9878    0.7005 N.am    1  LIG1       -0.2824
     26 N          -8.3857   -3.6917    1.3950 N.am    1  LIG1       -0.2691
     27 O          -8.2123   -1.7406    2.6089 O.2     1  LIG1       -0.2537
     28 CL         -2.4557   -2.7674   -2.0839 Cl      1  LIG1       -0.0805
     29 H          -1.6057    1.5420   -4.1360 H       1  LIG1        0.0639
     30 H         -12.6385   -2.1009    0.9030 H       1  LIG1        0.0626
     31 H         -12.0224   -6.3582    0.6729 H       1  LIG1        0.0626
     32 H         -10.2256   -1.7702    1.2729 H       1  LIG1        0.0642
     33 H          -9.6092   -6.0304    1.0456 H       1  LIG1        0.0642
     34 H          -1.1185   -0.8521   -3.7129 H       1  LIG1        0.0640
     35 H          -3.5797    2.5746   -3.0003 H       1  LIG1        0.0840
     36 H         -15.8109   -7.2418    0.0597 H       1  LIG1        0.0266
     37 H         -17.3401   -6.3799   -0.0967 H       1  LIG1        0.0266
     38 H         -16.6059   -4.6581    1.4888 H       1  LIG1        0.0267
     39 H         -16.4137   -6.2491    2.2205 H       1  LIG1        0.0267
     40 H         -15.8024   -5.9332   -2.0152 H       1  LIG1        0.0267
     41 H         -16.2259   -4.4618   -1.1441 H       1  LIG1        0.0267
     42 H         -14.4383   -4.7817    2.6310 H       1  LIG1        0.0273
     43 H         -14.0101   -6.2488    1.7610 H       1  LIG1        0.0273
     44 H         -13.6255   -6.0502   -0.9034 H       1  LIG1        0.0273
     45 H         -13.8226   -4.4635   -1.6359 H       1  LIG1        0.0273
     46 H          -4.4105    0.3201    0.5696 H       1  LIG1        0.0485
     47 H          -4.2557   -1.3644    1.0838 H       1  LIG1        0.0485
     48 H          -5.3925   -2.5867   -2.3130 H       1  LIG1        0.0485
     49 H          -6.5105   -1.2512   -1.9918 H       1  LIG1        0.0485
     50 H          -6.3794   -0.3426    1.9035 H       1  LIG1        0.0486
     51 H          -6.8694    0.0292    0.2477 H       1  LIG1        0.0486
     52 H          -7.3303   -3.2838   -0.9022 H       1  LIG1        0.0486
     53 H          -5.7826   -3.5369   -0.0759 H       1  LIG1        0.0486
     54 H         -14.4253   -3.4608    0.5416 H       1  LIG1        0.0352
     55 H          -7.8077   -4.5238    1.4164 H       1  LIG1        0.1573
@<TRIPOS>BOND
     1     1     6   ar
     2     1     7   ar
     3     2     4   ar
     4     2     8   ar
     5     3     5   ar
     6     3     8   ar
     7     4     9   ar
     8     5     9   ar
     9     6    10   ar
    10     7    23   ar
    11     8    22    1
    12     9    26    1
    13    10    11   ar
    14    10    28    1
    15    11    23   ar
    16    11    24    1
    17    12    25   am
    18    12    26   am
    19    12    27    2
    20    13    14    1
    21    13    15    1
    22    14    16    1
    23    15    17    1
    24    16    22    1
    25    17    22    1
    26    18    20    1
    27    18    24    1
    28    19    21    1
    29    19    24    1
    30    20    25    1
    31    21    25    1
    32     1    29    1
    33     2    30    1
    34     3    31    1
    35     4    32    1
    36     5    33    1
    37     6    34    1
    38     7    35    1
    39    13    36    1
    40    13    37    1
    41    14    38    1
    42    14    39    1
    43    15    40    1
    44    15    41    1
    45    16    42    1
    46    16    43    1
    47    17    44    1
    48    17    45    1
    49    18    46    1
    50    18    47    1
    51    19    48    1
    52    19    49    1
    53    20    50    1
    54    20    51    1
    55    21    52    1
    56    21    53    1
    57    22    54    1
    58    26    55    1
