@<TRIPOS>MOLECULE
ChEBML205311
 72 75 0 0 0
SMALL
USER_CHARGES

@<TRIPOS>ATOM
      1 C         -10.6743   -4.0595   -0.3943 C.ar    1  LIG1       -0.0383
      2 C         -12.0710   -4.0150   -0.4273 C.ar    1  LIG1       -0.0377
      3 C          -1.2390    0.1620   -2.5242 C.ar    1  LIG1       -0.0330
      4 C          -1.7569    1.2182   -3.2654 C.ar    1  LIG1       -0.0049
      5 C         -12.1526   -3.0903    1.8166 C.ar    1  LIG1       -0.0304
      6 C          -9.7830   -2.7619    2.8565 C.ar    1  LIG1       -0.0261
      7 C         -10.7451   -3.1256    1.8731 C.ar    1  LIG1       -0.0003
      8 C         -10.0399   -3.6084    0.7686 C.ar    1  LIG1        0.0379
      9 C         -12.8008   -3.5382    0.6598 C.ar    1  LIG1        0.0437
     10 C          -2.1022   -0.7122   -1.8731 C.ar    1  LIG1        0.0676
     11 C          -8.5356   -3.0263    2.3397 C.ar    1  LIG1        0.0947
     12 C          -3.4642   -0.4887   -1.9936 C.ar    1  LIG1        0.1447
     13 C          -3.1345    1.3553   -3.3236 C.ar    1  LIG1        0.2143
     14 C          -7.2565   -2.8267    2.9560 C.2     1  LIG1        0.2598
     15 C          -4.3364   -2.2471    0.9484 C.3     1  LIG1       -0.0185
     16 C          -6.3042   -0.9329    0.0509 C.3     1  LIG1       -0.0185
     17 C          -4.9213   -2.0964    2.3520 C.3     1  LIG1        0.0162
     18 C          -6.8502   -0.8336    1.4762 C.3     1  LIG1        0.0162
     19 C          -4.7808   -1.1134    0.0155 C.3     1  LIG1        0.0271
     20 C          -5.5922   -2.2219   -3.2459 C.3     1  LIG1       -0.0494
     21 C          -0.9722   -4.1145   -0.9202 C.3     1  LIG1       -0.0444
     22 C          -1.1483   -3.0019   -3.1607 C.3     1  LIG1       -0.0444
     23 C           0.7132   -2.3890   -1.5962 C.3     1  LIG1       -0.0444
     24 C         -15.0241   -5.3461    2.3807 C.3     1  LIG1        0.0225
     25 C          -4.8208   -2.5670   -2.0177 C.3     1  LIG1        0.0104
     26 C          -0.7587   -2.8071   -1.6917 C.3     1  LIG1        0.0228
     27 N          -4.0046    0.5262   -2.7047 N.ar    1  LIG1       -0.2026
     28 N          -8.7008   -3.5364    1.0800 N.ar    1  LIG1       -0.3101
     29 N          -6.3826   -1.9567    2.2903 N.am    1  LIG1       -0.2966
     30 N          -1.5798   -1.7819   -1.1218 N.pl3   1  LIG1       -0.3369
     31 N         -14.2275   -3.5055    0.5947 N.pl3   1  LIG1       -0.2633
     32 N          -4.3397   -1.3640   -1.3418 N.pl3   1  LIG1       -0.3113
     33 O          -6.9745   -3.3996    4.0071 O.2     1  LIG1       -0.2702
     34 O         -16.4664   -4.7494    0.2995 O.2     1  LIG1       -0.4814
     35 O         -14.3317   -6.0415   -0.0453 O.2     1  LIG1       -0.4814
     36 F          -3.6476    2.3708   -4.0353 F       1  LIG1       -0.1848
     37 S         -15.0778   -5.0021    0.6361 S.O2    1  LIG1       -0.1957
     38 H         -10.1071   -4.4307   -1.2411 H       1  LIG1        0.0643
     39 H         -12.5852   -4.3610   -1.3216 H       1  LIG1        0.0643
     40 H          -0.1618    0.0312   -2.4603 H       1  LIG1        0.0645
     41 H          -1.1020    1.9105   -3.7819 H       1  LIG1        0.0671
     42 H         -12.7244   -2.7190    2.6631 H       1  LIG1        0.0650
     43 H          -9.9863   -2.3510    3.8365 H       1  LIG1        0.0651
     44 H          -3.2424   -2.2879    1.0091 H       1  LIG1        0.0302
     45 H          -4.6736   -3.2022    0.5257 H       1  LIG1        0.0302
     46 H          -6.7675   -1.7983   -0.4406 H       1  LIG1        0.0302
     47 H          -6.6007   -0.0436   -0.5177 H       1  LIG1        0.0302
     48 H          -4.6246   -2.9565    2.9577 H       1  LIG1        0.0470
     49 H          -4.5276   -1.2045    2.8524 H       1  LIG1        0.0470
     50 H          -6.5096    0.0885    1.9609 H       1  LIG1        0.0470
     51 H          -7.9440   -0.8014    1.4491 H       1  LIG1        0.0470
     52 H          -4.3084   -0.1817    0.3472 H       1  LIG1        0.0506
     53 H          -6.4662   -1.6094   -2.9993 H       1  LIG1        0.0246
     54 H          -4.9636   -1.6821   -3.9626 H       1  LIG1        0.0246
     55 H          -5.9481   -3.1388   -3.7308 H       1  LIG1        0.0246
     56 H          -0.7001   -4.0006    0.1355 H       1  LIG1        0.0252
     57 H          -2.0182   -4.4376   -0.9649 H       1  LIG1        0.0252
     58 H          -0.3519   -4.9204   -1.3296 H       1  LIG1        0.0252
     59 H          -1.0039   -2.0786   -3.7338 H       1  LIG1        0.0252
     60 H          -2.2044   -3.2802   -3.2560 H       1  LIG1        0.0252
     61 H          -0.5484   -3.7884   -3.6317 H       1  LIG1        0.0252
     62 H           0.8946   -1.4548   -2.1403 H       1  LIG1        0.0252
     63 H           1.0181   -2.2379   -0.5548 H       1  LIG1        0.0252
     64 H           1.3702   -3.1506   -2.0321 H       1  LIG1        0.0252
     65 H         -15.5388   -6.2912    2.5613 H       1  LIG1        0.0442
     66 H         -13.9789   -5.4154    2.6859 H       1  LIG1        0.0442
     67 H         -15.5235   -4.5317    2.9076 H       1  LIG1        0.0442
     68 H          -3.9496   -3.1784   -2.2712 H       1  LIG1        0.0466
     69 H          -5.4454   -3.1197   -1.3098 H       1  LIG1        0.0466
     70 H          -7.9507   -3.8205    0.4648 H       1  LIG1        0.1529
     71 H          -1.8068   -1.8078   -0.1444 H       1  LIG1        0.1471
     72 H         -14.6594   -2.7494    1.1508 H       1  LIG1        0.1702
@<TRIPOS>BOND
     1     1     2   ar
     2     1     8   ar
     3     2     9   ar
     4     3     4   ar
     5     3    10   ar
     6     4    13   ar
     7     5     7   ar
     8     5     9   ar
     9     6     7   ar
    10     6    11   ar
    11     7     8   ar
    12     8    28   ar
    13     9    31    1
    14    10    12   ar
    15    10    30    1
    16    11    14    1
    17    11    28   ar
    18    12    27   ar
    19    12    32    1
    20    13    27   ar
    21    13    36    1
    22    14    29   am
    23    14    33    2
    24    15    17    1
    25    15    19    1
    26    16    18    1
    27    16    19    1
    28    17    29    1
    29    18    29    1
    30    19    32    1
    31    20    25    1
    32    21    26    1
    33    22    26    1
    34    23    26    1
    35    24    37    1
    36    25    32    1
    37    26    30    1
    38    31    37    1
    39    34    37    2
    40    35    37    2
    41     1    38    1
    42     2    39    1
    43     3    40    1
    44     4    41    1
    45     5    42    1
    46     6    43    1
    47    15    44    1
    48    15    45    1
    49    16    46    1
    50    16    47    1
    51    17    48    1
    52    17    49    1
    53    18    50    1
    54    18    51    1
    55    19    52    1
    56    20    53    1
    57    20    54    1
    58    20    55    1
    59    21    56    1
    60    21    57    1
    61    21    58    1
    62    22    59    1
    63    22    60    1
    64    22    61    1
    65    23    62    1
    66    23    63    1
    67    23    64    1
    68    24    65    1
    69    24    66    1
    70    24    67    1
    71    25    68    1
    72    25    69    1
    73    28    70    1
    74    30    71    1
    75    31    72    1
