@<TRIPOS>MOLECULE
ChEBML351264
 52 55 0 0 0
SMALL
USER_CHARGES

@<TRIPOS>ATOM
      1 C         -11.9341   -3.7535    2.7629 C.ar    1  LIG1       -0.0527
      2 C         -12.5482   -4.8718    2.1874 C.ar    1  LIG1       -0.0581
      3 C          -3.1202    1.5473   -2.2819 C.ar    1  LIG1       -0.0575
      4 C          -3.0154   -0.8252   -2.7259 C.ar    1  LIG1       -0.0575
      5 C          -1.9321    1.7322   -2.9889 C.ar    1  LIG1       -0.0432
      6 C          -1.8272   -0.6405   -3.4329 C.ar    1  LIG1       -0.0432
      7 C          -9.8563   -2.1937    2.5296 C.ar    1  LIG1       -0.0272
      8 C         -10.7878   -5.0480    0.5218 C.ar    1  LIG1       -0.0367
      9 C         -10.7294   -3.2720    2.2131 C.ar    1  LIG1       -0.0022
     10 C          -3.6619    0.2687   -2.1503 C.ar    1  LIG1       -0.0474
     11 C         -11.9821   -5.5076    1.0843 C.ar    1  LIG1       -0.0409
     12 C         -10.1851   -3.9290    1.1075 C.ar    1  LIG1        0.0380
     13 C          -1.2856    0.6383   -3.5645 C.ar    1  LIG1        0.0406
     14 C          -8.8181   -2.2169    1.6270 C.ar    1  LIG1        0.0841
     15 C          -7.6968   -1.3601    1.5167 C.ar    1  LIG1        0.2202
     16 C          -5.9354   -0.4706    0.8956 C.ar    1  LIG1        0.1593
     17 C         -13.2136   -8.4631   -1.8635 C.3     1  LIG1       -0.0457
     18 C         -15.0261   -8.3976   -0.1573 C.3     1  LIG1       -0.0457
     19 C          -4.9482    0.0684   -1.3868 C.3     1  LIG1       -0.0207
     20 C         -12.6606   -6.6983    0.4911 C.3     1  LIG1        0.0117
     21 C          -4.7169   -0.2051    0.1230 C.3     1  LIG1        0.0140
     22 C         -13.6671   -6.3604   -0.6086 C.3     1  LIG1       -0.0308
     23 N          -6.7764   -1.5028    0.5968 N.ar    1  LIG1       -0.2028
     24 N          -6.2911    0.2852    1.9387 N.ar    1  LIG1       -0.1113
     25 N          -9.0253   -3.2669    0.7732 N.ar    1  LIG1       -0.3108
     26 N         -14.2457   -7.6034   -1.1758 N.4     1  LIG1        0.2420
     27 O          -7.4838   -0.3161    2.3599 O.2     1  LIG1       -0.1898
     28 CL          0.1798    0.8666   -4.4367 Cl      1  LIG1       -0.0843
     29 H         -12.3863   -3.2666    3.6221 H       1  LIG1        0.0630
     30 H         -13.4786   -5.2399    2.6136 H       1  LIG1        0.0626
     31 H          -3.6177    2.4046   -1.8362 H       1  LIG1        0.0626
     32 H          -3.4310   -1.8247   -2.6282 H       1  LIG1        0.0626
     33 H          -1.5221    2.7344   -3.0834 H       1  LIG1        0.0638
     34 H          -1.3346   -1.5021   -3.8759 H       1  LIG1        0.0638
     35 H          -9.9798   -1.4795    3.3332 H       1  LIG1        0.0651
     36 H         -10.3411   -5.5381   -0.3374 H       1  LIG1        0.0645
     37 H         -12.4801   -8.7676   -1.1147 H       1  LIG1        0.0777
     38 H         -13.7273   -9.3293   -2.2849 H       1  LIG1        0.0777
     39 H         -12.7479   -7.8632   -2.6477 H       1  LIG1        0.0777
     40 H         -14.3345   -8.7006    0.6310 H       1  LIG1        0.0777
     41 H         -15.8133   -7.7527    0.2377 H       1  LIG1        0.0777
     42 H         -15.4486   -9.2673   -0.6641 H       1  LIG1        0.0777
     43 H          -5.5710    0.9622   -1.5231 H       1  LIG1        0.0320
     44 H          -5.5184   -0.7590   -1.8281 H       1  LIG1        0.0320
     45 H         -11.8986   -7.3660    0.0608 H       1  LIG1        0.0370
     46 H         -13.1576   -7.2927    1.2728 H       1  LIG1        0.0370
     47 H          -4.1832    0.6783    0.5364 H       1  LIG1        0.0353
     48 H          -3.9761   -1.0293    0.2207 H       1  LIG1        0.0353
     49 H         -13.1815   -5.8403   -1.4395 H       1  LIG1        0.0818
     50 H         -14.5041   -5.7575   -0.2432 H       1  LIG1        0.0818
     51 H          -8.4186   -3.5230    0.0059 H       1  LIG1        0.1529
     52 H         -14.9246   -7.3311   -1.9074 H       1  LIG1        0.1997
@<TRIPOS>BOND
     1     1     2   ar
     2     1     9   ar
     3     2    11   ar
     4     3     5   ar
     5     3    10   ar
     6     4     6   ar
     7     4    10   ar
     8     5    13   ar
     9     6    13   ar
    10     7     9   ar
    11     7    14   ar
    12     8    11   ar
    13     8    12   ar
    14     9    12   ar
    15    10    19    1
    16    11    20    1
    17    12    25   ar
    18    13    28    1
    19    14    15    1
    20    14    25   ar
    21    15    23   ar
    22    15    27   ar
    23    16    21    1
    24    16    23   ar
    25    16    24   ar
    26    17    26    1
    27    18    26    1
    28    19    21    1
    29    20    22    1
    30    22    26    1
    31    24    27   ar
    32     1    29    1
    33     2    30    1
    34     3    31    1
    35     4    32    1
    36     5    33    1
    37     6    34    1
    38     7    35    1
    39     8    36    1
    40    17    37    1
    41    17    38    1
    42    17    39    1
    43    18    40    1
    44    18    41    1
    45    18    42    1
    46    19    43    1
    47    19    44    1
    48    20    45    1
    49    20    46    1
    50    21    47    1
    51    21    48    1
    52    22    49    1
    53    22    50    1
    54    25    51    1
    55    26    52    1
