@<TRIPOS>MOLECULE
ChEBML249369
 65 68 0 0 0
SMALL
USER_CHARGES

@<TRIPOS>ATOM
      1 C          -1.2999   -0.2514   -4.8337 C.ar    1  LIG1       -0.0411
      2 C         -10.2456   -5.3151    0.9147 C.ar    1  LIG1       -0.0383
      3 C         -11.5957   -5.6610    1.0215 C.ar    1  LIG1       -0.0377
      4 C          -1.0652   -0.3285   -3.4654 C.ar    1  LIG1       -0.0266
      5 C         -12.1624   -3.4368    1.8148 C.ar    1  LIG1       -0.0304
      6 C         -10.0854   -1.8673    1.9786 C.ar    1  LIG1       -0.0261
      7 C          -2.5852    0.0491   -5.2553 C.ar    1  LIG1        0.0293
      8 C         -10.8069   -3.0653    1.7154 C.ar    1  LIG1       -0.0003
      9 C          -9.8816   -4.0111    1.2686 C.ar    1  LIG1        0.0379
     10 C         -12.5410   -4.7379    1.4643 C.ar    1  LIG1        0.0437
     11 C          -2.1080   -0.1060   -2.5731 C.ar    1  LIG1        0.1156
     12 C          -8.7608   -2.1046    1.6921 C.ar    1  LIG1        0.0947
     13 C          -3.3570    0.1882   -3.0958 C.ar    1  LIG1        0.1505
     14 C          -7.6517   -1.2025    1.7999 C.2     1  LIG1        0.2598
     15 C          -6.2806   -1.0190   -1.5138 C.3     1  LIG1       -0.0185
     16 C          -4.6299   -0.1179    0.1796 C.3     1  LIG1       -0.0185
     17 C          -6.8022   -1.9764   -0.4432 C.3     1  LIG1        0.0162
     18 C          -5.2082   -1.0846    1.2142 C.3     1  LIG1        0.0162
     19 C          -4.8237   -0.6115   -1.2602 C.3     1  LIG1        0.0268
     20 C          -1.6083    2.0133   -0.2931 C.3     1  LIG1       -0.0384
     21 C          -0.2367    0.0544    0.5026 C.3     1  LIG1       -0.0384
     22 C          -5.1203    1.6865   -2.1980 C.3     1  LIG1        0.0018
     23 C         -14.6945   -5.4789   -0.9823 C.3     1  LIG1        0.0225
     24 C          -0.9173    0.7165   -0.6858 C.3     1  LIG1        0.0588
     25 N          -3.6235    0.2717   -4.4186 N.ar    1  LIG1       -0.2386
     26 N          -8.6478   -3.4003    1.2643 N.ar    1  LIG1       -0.3101
     27 N          -6.5997   -1.4114    0.8979 N.am    1  LIG1       -0.2966
     28 N         -13.9135   -5.1223    1.5623 N.pl3   1  LIG1       -0.2633
     29 N          -4.4069    0.4112   -2.1984 N.pl3   1  LIG1       -0.3136
     30 O          -7.6548   -0.3085    2.6445 O.2     1  LIG1       -0.2702
     31 O         -16.3730   -4.7696    0.8741 O.2     1  LIG1       -0.4814
     32 O         -14.6650   -3.0923    0.0904 O.2     1  LIG1       -0.4814
     33 O          -1.8816   -0.1819   -1.2359 O.3     1  LIG1       -0.3398
     34 S         -15.0275   -4.4534    0.4325 S.O2    1  LIG1       -0.1957
     35 H          -0.5033   -0.4205   -5.5490 H       1  LIG1        0.0640
     36 H          -9.5104   -6.0344    0.5698 H       1  LIG1        0.0643
     37 H         -11.9011   -6.6698    0.7518 H       1  LIG1        0.0643
     38 H          -0.0684   -0.5614   -3.1015 H       1  LIG1        0.0652
     39 H         -12.9019   -2.7191    2.1599 H       1  LIG1        0.0650
     40 H         -10.4960   -0.9334    2.3393 H       1  LIG1        0.0651
     41 H          -2.8204    0.1214   -6.3122 H       1  LIG1        0.0840
     42 H          -6.3833   -1.4825   -2.5021 H       1  LIG1        0.0302
     43 H          -6.9032   -0.1151   -1.5132 H       1  LIG1        0.0302
     44 H          -5.1365    0.8503    0.2855 H       1  LIG1        0.0302
     45 H          -3.5671    0.0509    0.3900 H       1  LIG1        0.0302
     46 H          -7.8572   -2.1881   -0.6353 H       1  LIG1        0.0470
     47 H          -6.2743   -2.9361   -0.4776 H       1  LIG1        0.0470
     48 H          -4.6444   -2.0245    1.2276 H       1  LIG1        0.0470
     49 H          -5.1292   -0.6442    2.2131 H       1  LIG1        0.0470
     50 H          -4.1825   -1.4857   -1.4217 H       1  LIG1        0.0506
     51 H          -2.3574    1.8440    0.4865 H       1  LIG1        0.0257
     52 H          -0.8757    2.7385    0.0772 H       1  LIG1        0.0257
     53 H          -2.0994    2.4759   -1.1565 H       1  LIG1        0.0257
     54 H          -0.9531   -0.1616    1.3010 H       1  LIG1        0.0257
     55 H           0.5483    0.7048    0.9031 H       1  LIG1        0.0257
     56 H           0.2507   -0.8811    0.2066 H       1  LIG1        0.0257
     57 H          -5.9029    1.6791   -1.4350 H       1  LIG1        0.0432
     58 H          -5.5818    1.8617   -3.1737 H       1  LIG1        0.0432
     59 H          -4.4289    2.5063   -1.9852 H       1  LIG1        0.0432
     60 H         -15.3454   -5.1617   -1.7986 H       1  LIG1        0.0442
     61 H         -13.6464   -5.3547   -1.2587 H       1  LIG1        0.0442
     62 H         -14.8984   -6.5160   -0.7114 H       1  LIG1        0.0442
     63 H          -0.1757    0.9191   -1.4654 H       1  LIG1        0.0603
     64 H          -7.7851   -3.8472    0.9853 H       1  LIG1        0.1529
     65 H         -14.0589   -6.1240    1.7688 H       1  LIG1        0.1702
@<TRIPOS>BOND
     1     1     4   ar
     2     1     7   ar
     3     2     3   ar
     4     2     9   ar
     5     3    10   ar
     6     4    11   ar
     7     5     8   ar
     8     5    10   ar
     9     6     8   ar
    10     6    12   ar
    11     7    25   ar
    12     8     9   ar
    13     9    26   ar
    14    10    28    1
    15    11    13   ar
    16    11    33    1
    17    12    14    1
    18    12    26   ar
    19    13    25   ar
    20    13    29    1
    21    14    27   am
    22    14    30    2
    23    15    17    1
    24    15    19    1
    25    16    18    1
    26    16    19    1
    27    17    27    1
    28    18    27    1
    29    19    29    1
    30    20    24    1
    31    21    24    1
    32    22    29    1
    33    23    34    1
    34    24    33    1
    35    28    34    1
    36    31    34    2
    37    32    34    2
    38     1    35    1
    39     2    36    1
    40     3    37    1
    41     4    38    1
    42     5    39    1
    43     6    40    1
    44     7    41    1
    45    15    42    1
    46    15    43    1
    47    16    44    1
    48    16    45    1
    49    17    46    1
    50    17    47    1
    51    18    48    1
    52    18    49    1
    53    19    50    1
    54    20    51    1
    55    20    52    1
    56    20    53    1
    57    21    54    1
    58    21    55    1
    59    21    56    1
    60    22    57    1
    61    22    58    1
    62    22    59    1
    63    23    60    1
    64    23    61    1
    65    23    62    1
    66    24    63    1
    67    26    64    1
    68    28    65    1
