@<TRIPOS>MOLECULE
ChEBML471834
 41 44 0 0 0
SMALL
USER_CHARGES

@<TRIPOS>ATOM
      1 C          -2.1550    1.2933   -3.1330 C.ar    1  LIG1       -0.0431
      2 C          -1.6191    0.0467   -2.8296 C.ar    1  LIG1       -0.0449
      3 C         -11.5595   -6.0753    0.0548 C.ar    1  LIG1       -0.0482
      4 C         -12.5377   -4.1519    1.1414 C.ar    1  LIG1       -0.0482
      5 C         -10.2917   -5.5115    0.1982 C.ar    1  LIG1       -0.0402
      6 C         -11.2699   -3.5880    1.2847 C.ar    1  LIG1       -0.0402
      7 C          -3.4521    1.5584   -2.7243 C.ar    1  LIG1        0.0291
      8 C          -8.6321   -0.7690    3.0484 C.ar    1  LIG1        0.1187
      9 C         -12.6825   -5.3954    0.5263 C.ar    1  LIG1        0.0556
     10 C          -2.3857   -0.8836   -2.1367 C.ar    1  LIG1        0.0959
     11 C          -7.2703   -1.8614    1.0355 C.ar    1  LIG1        0.1389
     12 C         -10.1470   -4.2679    0.8131 C.ar    1  LIG1        0.0314
     13 C          -3.6724   -0.5209   -1.7724 C.ar    1  LIG1        0.1354
     14 C          -8.4181   -2.4877    1.5238 C.ar    1  LIG1        0.1523
     15 C          -6.9035   -0.6725    1.6526 C.ar    1  LIG1        0.1347
     16 C          -5.4659   -1.3862   -0.1298 C.ar    1  LIG1        0.1651
     17 C         -14.0384   -5.9972    0.3731 C.3     1  LIG1        0.4160
     18 C          -1.8072   -2.2190   -1.8132 C.3     1  LIG1        0.4193
     19 N          -4.2275    0.6803   -2.0495 N.ar    1  LIG1       -0.2406
     20 N          -9.1054   -1.9290    2.5448 N.ar    1  LIG1       -0.2190
     21 N          -7.5446   -0.0697    2.6695 N.ar    1  LIG1       -0.2271
     22 N          -6.4353   -2.2649    0.0088 N.ar    1  LIG1       -0.2199
     23 N          -8.8651   -3.6984    0.9600 N.pl3   1  LIG1       -0.2977
     24 N          -4.4715   -1.4829   -1.0521 N.pl3   1  LIG1       -0.2780
     25 F         -14.0303   -7.2147   -0.2461 F       1  LIG1       -0.1661
     26 F         -14.6813   -6.2060    1.5602 F       1  LIG1       -0.1661
     27 F         -14.8792   -5.2163   -0.3660 F       1  LIG1       -0.1661
     28 F          -0.5257   -2.3832   -2.2573 F       1  LIG1       -0.1660
     29 F          -1.7558   -2.4833   -0.4738 F       1  LIG1       -0.1660
     30 F          -2.5187   -3.2468   -2.3617 F       1  LIG1       -0.1660
     31 S          -5.4890   -0.0430    0.9402 S.2     1  LIG1       -0.0317
     32 H          -1.5755    2.0340   -3.6718 H       1  LIG1        0.0639
     33 H          -0.6042   -0.1899   -3.1372 H       1  LIG1        0.0631
     34 H         -11.6632   -7.0440   -0.4265 H       1  LIG1        0.0629
     35 H         -13.4070   -3.6142    1.5103 H       1  LIG1        0.0629
     36 H          -9.4235   -6.0491   -0.1742 H       1  LIG1        0.0642
     37 H         -11.1689   -2.6183    1.7649 H       1  LIG1        0.0642
     38 H          -3.9173    2.5155   -2.9368 H       1  LIG1        0.0840
     39 H          -9.2040   -0.3436    3.8659 H       1  LIG1        0.1063
     40 H          -8.1183   -4.2754    0.5843 H       1  LIG1        0.1543
     41 H          -4.1943   -2.4437   -1.3270 H       1  LIG1        0.1563
@<TRIPOS>BOND
     1     1     2   ar
     2     1     7   ar
     3     2    10   ar
     4     3     5   ar
     5     3     9   ar
     6     4     6   ar
     7     4     9   ar
     8     5    12   ar
     9     6    12   ar
    10     7    19   ar
    11     8    20   ar
    12     8    21   ar
    13     9    17    1
    14    10    13   ar
    15    10    18    1
    16    11    14   ar
    17    11    15   ar
    18    11    22   ar
    19    12    23    1
    20    13    19   ar
    21    13    24    1
    22    14    20   ar
    23    14    23    1
    24    15    21   ar
    25    15    31   ar
    26    16    22   ar
    27    16    24    1
    28    16    31   ar
    29    17    25    1
    30    17    26    1
    31    17    27    1
    32    18    28    1
    33    18    29    1
    34    18    30    1
    35     1    32    1
    36     2    33    1
    37     3    34    1
    38     4    35    1
    39     5    36    1
    40     6    37    1
    41     7    38    1
    42     8    39    1
    43    23    40    1
    44    24    41    1
