@<TRIPOS>MOLECULE
ChEBML855572
 32 34 0 0 0
SMALL
USER_CHARGES

@<TRIPOS>ATOM
      1 C          -1.9948   -0.6191   -2.9344 C.ar    1  LIG1       -0.0585
      2 C          -2.2491    0.6687   -3.3930 C.ar    1  LIG1       -0.0438
      3 C         -10.9034   -3.1165    1.0343 C.ar    1  LIG1       -0.0392
      4 C          -9.8246   -5.2514    1.3743 C.ar    1  LIG1       -0.0392
      5 C         -12.1479   -3.7135    1.2351 C.ar    1  LIG1       -0.0417
      6 C         -11.0692   -5.8483    1.5752 C.ar    1  LIG1       -0.0417
      7 C          -2.8009   -1.1704   -1.9446 C.ar    1  LIG1       -0.0352
      8 C          -4.4155   -1.3159    0.8551 C.ar    1  LIG1       -0.0447
      9 C          -5.5720   -1.7409    1.5707 C.ar    1  LIG1       -0.0417
     10 C          -3.3129    1.3580   -2.8338 C.ar    1  LIG1        0.0275
     11 C          -9.7416   -3.8856    1.1039 C.ar    1  LIG1        0.0329
     12 C         -12.2309   -5.0793    1.5054 C.ar    1  LIG1        0.0407
     13 C          -3.8399   -0.3986   -1.4500 C.ar    1  LIG1        0.0769
     14 C          -4.7212   -0.8979   -0.4213 C.ar    1  LIG1        0.0381
     15 C          -6.7179   -1.6311    0.8138 C.ar    1  LIG1        0.0752
     16 C          -8.1043   -1.9638    1.1838 C.2     1  LIG1        0.2540
     17 N          -4.1177    0.8558   -1.8706 N.ar    1  LIG1       -0.2556
     18 N          -8.4969   -3.2884    0.9035 N.am    1  LIG1       -0.2809
     19 O          -8.8504   -1.1158    1.6685 O.2     1  LIG1       -0.2709
     20 S          -6.3970   -1.0183   -0.7526 S.2     1  LIG1       -0.0823
     21 CL        -13.7668   -5.8157    1.7532 Cl      1  LIG1       -0.0843
     22 H          -1.1703   -1.1920   -3.3478 H       1  LIG1        0.0624
     23 H          -1.6346    1.1183   -4.1645 H       1  LIG1        0.0639
     24 H         -10.8504   -2.0515    0.8239 H       1  LIG1        0.0643
     25 H          -8.9258   -5.8600    1.4309 H       1  LIG1        0.0643
     26 H         -13.0449   -3.1023    1.1781 H       1  LIG1        0.0639
     27 H         -11.1191   -6.9136    1.7849 H       1  LIG1        0.0639
     28 H          -2.6099   -2.1749   -1.5810 H       1  LIG1        0.0646
     29 H          -3.4124   -1.3196    1.2636 H       1  LIG1        0.0636
     30 H          -5.5591   -2.1079    2.5895 H       1  LIG1        0.0637
     31 H          -3.5540    2.3650   -3.1579 H       1  LIG1        0.0840
     32 H          -7.7722   -3.8926    0.4991 H       1  LIG1        0.1560
@<TRIPOS>BOND
     1     1     2   ar
     2     1     7   ar
     3     2    10   ar
     4     3     5   ar
     5     3    11   ar
     6     4     6   ar
     7     4    11   ar
     8     5    12   ar
     9     6    12   ar
    10     7    13   ar
    11     8     9   ar
    12     8    14   ar
    13     9    15   ar
    14    10    17   ar
    15    11    18    1
    16    12    21    1
    17    13    14    1
    18    13    17   ar
    19    14    20   ar
    20    15    16    1
    21    15    20   ar
    22    16    18   am
    23    16    19    2
    24     1    22    1
    25     2    23    1
    26     3    24    1
    27     4    25    1
    28     5    26    1
    29     6    27    1
    30     7    28    1
    31     8    29    1
    32     9    30    1
    33    10    31    1
    34    18    32    1
