@<TRIPOS>MOLECULE
ChEBML300242
 46 48 0 0 0
SMALL
USER_CHARGES

@<TRIPOS>ATOM
      1 C         -10.4681   -5.1986    0.6097 C.ar    1  LIG1       -0.0387
      2 C         -11.8170   -5.4925    0.8294 C.ar    1  LIG1       -0.0416
      3 C         -12.1415   -3.3953    2.0099 C.ar    1  LIG1       -0.0343
      4 C          -9.9608   -1.9707    2.1487 C.ar    1  LIG1       -0.0262
      5 C         -10.7848   -3.0773    1.8006 C.ar    1  LIG1       -0.0007
      6 C          -9.9811   -3.9845    1.1067 C.ar    1  LIG1        0.0379
      7 C         -12.6425   -4.6062    1.5184 C.ar    1  LIG1        0.0413
      8 C          -8.6963   -2.2228    1.6687 C.ar    1  LIG1        0.0945
      9 C          -7.4825   -1.3730    1.7771 C.2     1  LIG1        0.2576
     10 C          -4.9378   -0.2722    0.0314 C.2     1  LIG1        0.2316
     11 C          -1.4678    0.7023   -4.0579 C.3     1  LIG1       -0.0532
     12 C          -2.3260    1.8165   -3.4653 C.3     1  LIG1       -0.0515
     13 C          -2.1212   -0.6656   -3.8829 C.3     1  LIG1       -0.0515
     14 C          -2.6727    1.5434   -2.0027 C.3     1  LIG1       -0.0345
     15 C          -2.4669   -0.9417   -2.4206 C.3     1  LIG1       -0.0345
     16 C          -3.3388    0.1735   -1.8330 C.3     1  LIG1        0.0250
     17 C          -2.4614   -0.1377    0.4490 C.3     1  LIG1        0.0031
     18 C          -5.0681   -1.1866    1.2369 C.3     1  LIG1        0.0887
     19 N          -8.7185   -3.4397    1.0416 N.ar    1  LIG1       -0.3101
     20 N          -6.3245   -1.8784    1.1945 N.am    1  LIG1       -0.3013
     21 N          -3.6237   -0.0842   -0.4412 N.am    1  LIG1       -0.3005
     22 O          -7.5506   -0.3034    2.3770 O.2     1  LIG1       -0.2704
     23 O          -5.9340    0.2511   -0.4747 O.2     1  LIG1       -0.2756
     24 CL        -14.3005   -5.0031    1.7680 Cl      1  LIG1       -0.0843
     25 H          -9.8263   -5.8898    0.0736 H       1  LIG1        0.0643
     26 H         -12.2130   -6.4323    0.4504 H       1  LIG1        0.0639
     27 H         -12.7841   -2.7033    2.5479 H       1  LIG1        0.0645
     28 H         -10.2647   -1.0861    2.6924 H       1  LIG1        0.0651
     29 H          -1.2968    0.8956   -5.1229 H       1  LIG1        0.0266
     30 H          -0.4851    0.7017   -3.5705 H       1  LIG1        0.0266
     31 H          -1.7964    2.7723   -3.5462 H       1  LIG1        0.0267
     32 H          -3.2513    1.9132   -4.0466 H       1  LIG1        0.0267
     33 H          -3.0344   -0.7150   -4.4887 H       1  LIG1        0.0267
     34 H          -1.4478   -1.4458   -4.2554 H       1  LIG1        0.0267
     35 H          -1.7596    1.5933   -1.3949 H       1  LIG1        0.0285
     36 H          -3.3368    2.3331   -1.6307 H       1  LIG1        0.0285
     37 H          -2.9856   -1.9051   -2.3433 H       1  LIG1        0.0285
     38 H          -1.5415   -1.0397   -1.8380 H       1  LIG1        0.0285
     39 H          -4.3090    0.1793   -2.3446 H       1  LIG1        0.0506
     40 H          -2.0800   -1.1605    0.5077 H       1  LIG1        0.0433
     41 H          -2.7393    0.1923    1.4537 H       1  LIG1        0.0433
     42 H          -1.6673    0.5131    0.0735 H       1  LIG1        0.0433
     43 H          -4.2757   -1.9395    1.2299 H       1  LIG1        0.0567
     44 H          -5.0439   -0.6040    2.1615 H       1  LIG1        0.0567
     45 H          -7.9247   -3.8778    0.5946 H       1  LIG1        0.1529
     46 H          -6.3389   -2.8049    0.7694 H       1  LIG1        0.1503
@<TRIPOS>BOND
     1     1     2   ar
     2     1     6   ar
     3     2     7   ar
     4     3     5   ar
     5     3     7   ar
     6     4     5   ar
     7     4     8   ar
     8     5     6   ar
     9     6    19   ar
    10     7    24    1
    11     8     9    1
    12     8    19   ar
    13     9    20   am
    14     9    22    2
    15    10    18    1
    16    10    21   am
    17    10    23    2
    18    11    12    1
    19    11    13    1
    20    12    14    1
    21    13    15    1
    22    14    16    1
    23    15    16    1
    24    16    21    1
    25    17    21    1
    26    18    20    1
    27     1    25    1
    28     2    26    1
    29     3    27    1
    30     4    28    1
    31    11    29    1
    32    11    30    1
    33    12    31    1
    34    12    32    1
    35    13    33    1
    36    13    34    1
    37    14    35    1
    38    14    36    1
    39    15    37    1
    40    15    38    1
    41    16    39    1
    42    17    40    1
    43    17    41    1
    44    17    42    1
    45    18    43    1
    46    18    44    1
    47    19    45    1
    48    20    46    1
