@<TRIPOS>MOLECULE
ChEBML336404
 37 39 0 0 0
SMALL
USER_CHARGES

@<TRIPOS>ATOM
      1 C          -1.8598    0.9427   -3.6217 C.ar    1  LIG1       -0.0622
      2 C         -12.6791   -4.5978    0.6591 C.ar    1  LIG1       -0.0615
      3 C          -3.2215    0.7724   -3.8716 C.ar    1  LIG1       -0.0619
      4 C          -1.3283    0.5861   -2.3823 C.ar    1  LIG1       -0.0619
      5 C         -11.7596   -5.1756   -0.2141 C.ar    1  LIG1       -0.0603
      6 C         -12.2697   -3.6560    1.6101 C.ar    1  LIG1       -0.0530
      7 C          -4.0516    0.2457   -2.8820 C.ar    1  LIG1       -0.0582
      8 C          -2.1584    0.0595   -1.3928 C.ar    1  LIG1       -0.0582
      9 C         -10.4056   -4.8320   -0.1660 C.ar    1  LIG1       -0.0402
     10 C         -10.1611   -2.3990    2.4923 C.ar    1  LIG1       -0.0342
     11 C         -10.9096   -3.2940    1.6776 C.ar    1  LIG1       -0.0027
     12 C          -3.5200   -0.1108   -1.6427 C.ar    1  LIG1       -0.0376
     13 C         -10.0107   -3.8892    0.7898 C.ar    1  LIG1        0.0375
     14 C          -8.8469   -2.4671    2.0911 C.ar    1  LIG1        0.0250
     15 C          -5.8281   -0.2524    1.7125 C.2     1  LIG1        0.1063
     16 C          -4.4146   -0.6786   -0.5754 C.3     1  LIG1        0.0249
     17 C          -7.6509   -1.7610    2.5868 C.3     1  LIG1        0.0477
     18 N          -8.7661   -3.3683    1.0636 N.ar    1  LIG1       -0.3165
     19 N          -7.0000   -0.9677    1.5660 N.am    1  LIG1       -0.3278
     20 S          -4.8870   -0.1310    3.0910 S.2     1  LIG1       -0.0282
     21 S          -5.4171    0.5967    0.2242 S.3     1  LIG1       -0.0986
     22 H          -1.2133    1.3517   -4.3927 H       1  LIG1        0.0622
     23 H         -13.7265   -4.8817    0.6027 H       1  LIG1        0.0623
     24 H          -3.6354    1.0490   -4.8368 H       1  LIG1        0.0623
     25 H          -0.2679    0.7176   -2.1877 H       1  LIG1        0.0623
     26 H         -12.0998   -5.9052   -0.9450 H       1  LIG1        0.0623
     27 H         -12.9968   -3.2128    2.2845 H       1  LIG1        0.0629
     28 H          -5.1114    0.1167   -3.0856 H       1  LIG1        0.0626
     29 H          -1.7354   -0.2154   -0.4301 H       1  LIG1        0.0626
     30 H          -9.6905   -5.2828   -0.8458 H       1  LIG1        0.0642
     31 H         -10.5454   -1.7728    3.2864 H       1  LIG1        0.0646
     32 H          -5.0807   -1.4365   -1.0022 H       1  LIG1        0.0435
     33 H          -3.8144   -1.1850    0.1887 H       1  LIG1        0.0435
     34 H          -7.8922   -1.0731    3.4174 H       1  LIG1        0.0530
     35 H          -6.8869   -2.4553    2.9807 H       1  LIG1        0.0530
     36 H          -7.9174   -3.6182    0.5746 H       1  LIG1        0.1525
     37 H          -7.4477   -0.9314    0.6543 H       1  LIG1        0.1479
@<TRIPOS>BOND
     1     1     3   ar
     2     1     4   ar
     3     2     5   ar
     4     2     6   ar
     5     3     7   ar
     6     4     8   ar
     7     5     9   ar
     8     6    11   ar
     9     7    12   ar
    10     8    12   ar
    11     9    13   ar
    12    10    11   ar
    13    10    14   ar
    14    11    13   ar
    15    12    16    1
    16    13    18   ar
    17    14    17    1
    18    14    18   ar
    19    15    19    1
    20    15    20    2
    21    15    21    1
    22    16    21    1
    23    17    19    1
    24     1    22    1
    25     2    23    1
    26     3    24    1
    27     4    25    1
    28     5    26    1
    29     6    27    1
    30     7    28    1
    31     8    29    1
    32     9    30    1
    33    10    31    1
    34    16    32    1
    35    16    33    1
    36    17    34    1
    37    17    35    1
    38    18    36    1
    39    19    37    1
