@<TRIPOS>MOLECULE
ChEBML300381
 49 51 0 0 0
SMALL
USER_CHARGES

@<TRIPOS>ATOM
      1 C         -10.3426   -5.1744    0.4638 C.ar    1  LIG1       -0.0387
      2 C         -11.6797   -5.5304    0.6621 C.ar    1  LIG1       -0.0416
      3 C         -12.0853   -3.5143    1.9536 C.ar    1  LIG1       -0.0343
      4 C          -9.9603   -2.0182    2.1778 C.ar    1  LIG1       -0.0262
      5 C         -10.7413   -3.1346    1.7670 C.ar    1  LIG1       -0.0007
      6 C          -9.9026   -3.9717    1.0279 C.ar    1  LIG1        0.0379
      7 C         -12.5394   -4.7147    1.3951 C.ar    1  LIG1        0.0413
      8 C          -8.6863   -2.1960    1.6896 C.ar    1  LIG1        0.0945
      9 C          -7.5058   -1.3083    1.8485 C.2     1  LIG1        0.2576
     10 C          -4.6306   -0.6121   -0.0625 C.2     1  LIG1        0.2318
     11 C          -2.3923    0.0845   -3.6542 C.3     1  LIG1       -0.0515
     12 C          -3.1491    1.4112   -3.5449 C.3     1  LIG1       -0.0515
     13 C          -2.5721   -0.6154   -2.3097 C.3     1  LIG1       -0.0345
     14 C          -3.7444    1.4425   -2.1397 C.3     1  LIG1       -0.0345
     15 C          -2.8225    0.5316   -1.3380 C.3     1  LIG1        0.0253
     16 C          -1.2807   -1.7108    1.0072 C.3     1  LIG1       -0.0639
     17 C          -5.0992   -1.0020    1.3283 C.3     1  LIG1        0.0887
     18 C          -1.2588   -0.1932    1.1224 C.3     1  LIG1       -0.0402
     19 C          -2.6549    0.4180    1.1183 C.3     1  LIG1        0.0142
     20 N          -8.6615   -3.3769    0.9972 N.ar    1  LIG1       -0.3101
     21 N          -6.3285   -1.7373    1.2437 N.am    1  LIG1       -0.3013
     22 N          -3.4045    0.0931   -0.1028 N.am    1  LIG1       -0.2975
     23 O          -7.6152   -0.2762    2.5054 O.2     1  LIG1       -0.2704
     24 O          -5.2955   -0.9077   -1.0589 O.2     1  LIG1       -0.2756
     25 CL        -14.1816   -5.1868    1.6166 Cl      1  LIG1       -0.0843
     26 H          -9.6743   -5.8108   -0.1066 H       1  LIG1        0.0643
     27 H         -12.0393   -6.4624    0.2311 H       1  LIG1        0.0639
     28 H         -12.7545   -2.8773    2.5260 H       1  LIG1        0.0645
     29 H         -10.2984   -1.1765    2.7676 H       1  LIG1        0.0651
     30 H          -2.7667   -0.5323   -4.4773 H       1  LIG1        0.0267
     31 H          -1.3303    0.2782   -3.8444 H       1  LIG1        0.0267
     32 H          -2.4536    2.2469   -3.6838 H       1  LIG1        0.0267
     33 H          -3.9273    1.5008   -4.3093 H       1  LIG1        0.0267
     34 H          -3.4364   -1.2906   -2.3513 H       1  LIG1        0.0285
     35 H          -1.6986   -1.2140   -2.0336 H       1  LIG1        0.0285
     36 H          -3.7898    2.4568   -1.7309 H       1  LIG1        0.0285
     37 H          -4.7683    1.0480   -2.1590 H       1  LIG1        0.0285
     38 H          -1.8848    1.0481   -1.1009 H       1  LIG1        0.0506
     39 H          -1.8395   -2.1589    1.8350 H       1  LIG1        0.0231
     40 H          -1.7638   -2.0105    0.0716 H       1  LIG1        0.0231
     41 H          -0.2682   -2.1259    1.0098 H       1  LIG1        0.0231
     42 H          -4.3607   -1.6471    1.8110 H       1  LIG1        0.0567
     43 H          -5.2899   -0.1097    1.9302 H       1  LIG1        0.0567
     44 H          -0.6916    0.2141    0.2774 H       1  LIG1        0.0280
     45 H          -0.7262    0.0908    2.0378 H       1  LIG1        0.0280
     46 H          -3.2352    0.0318    1.9622 H       1  LIG1        0.0469
     47 H          -2.6117    1.5082    1.2051 H       1  LIG1        0.0469
     48 H          -7.8510   -3.7599    0.5299 H       1  LIG1        0.1529
     49 H          -6.3071   -2.6392    0.7688 H       1  LIG1        0.1503
@<TRIPOS>BOND
     1     1     2   ar
     2     1     6   ar
     3     2     7   ar
     4     3     5   ar
     5     3     7   ar
     6     4     5   ar
     7     4     8   ar
     8     5     6   ar
     9     6    20   ar
    10     7    25    1
    11     8     9    1
    12     8    20   ar
    13     9    21   am
    14     9    23    2
    15    10    17    1
    16    10    22   am
    17    10    24    2
    18    11    12    1
    19    11    13    1
    20    12    14    1
    21    13    15    1
    22    14    15    1
    23    15    22    1
    24    16    18    1
    25    17    21    1
    26    18    19    1
    27    19    22    1
    28     1    26    1
    29     2    27    1
    30     3    28    1
    31     4    29    1
    32    11    30    1
    33    11    31    1
    34    12    32    1
    35    12    33    1
    36    13    34    1
    37    13    35    1
    38    14    36    1
    39    14    37    1
    40    15    38    1
    41    16    39    1
    42    16    40    1
    43    16    41    1
    44    17    42    1
    45    17    43    1
    46    18    44    1
    47    18    45    1
    48    19    46    1
    49    19    47    1
    50    20    48    1
    51    21    49    1
