@<TRIPOS>MOLECULE
ChEBML311664
 47 49 0 0 0
SMALL
USER_CHARGES

@<TRIPOS>ATOM
      1 C          -2.0490    0.0241   -3.3667 C.ar    1  LIG1       -0.0385
      2 C         -12.0119   -3.7747    1.9883 C.ar    1  LIG1       -0.0569
      3 C         -11.4322   -5.6862    0.6291 C.ar    1  LIG1       -0.0569
      4 C         -10.7239   -3.2657    1.8216 C.ar    1  LIG1       -0.0404
      5 C         -10.1443   -5.1772    0.4624 C.ar    1  LIG1       -0.0404
      6 C          -2.9465   -0.6765   -2.5802 C.ar    1  LIG1       -0.0182
      7 C          -2.1559    1.3999   -3.4000 C.ar    1  LIG1        0.0497
      8 C         -12.3659   -4.9850    1.3920 C.ar    1  LIG1       -0.0453
      9 C          -9.7902   -3.9669    1.0588 C.ar    1  LIG1        0.0340
     10 C          -3.8914    0.0453   -1.8788 C.ar    1  LIG1        0.1429
     11 C          -8.2548   -2.0893    0.9723 C.2     1  LIG1        0.3050
     12 C          -5.3175   -0.0107    0.1047 C.3     1  LIG1        0.0289
     13 C          -5.5617   -1.7215   -1.7201 C.3     1  LIG1        0.0289
     14 C          -6.8275   -0.2168    0.1996 C.3     1  LIG1        0.0315
     15 C          -6.3538   -2.4977   -0.6670 C.3     1  LIG1        0.0315
     16 C         -13.7502   -6.8860    2.2997 C.3     1  LIG1       -0.0587
     17 C         -14.5062   -5.6487    0.2376 C.3     1  LIG1       -0.0587
     18 C         -13.7430   -5.5292    1.5703 C.3     1  LIG1       -0.0219
     19 N          -3.0907    2.0802   -2.7031 N.ar    1  LIG1       -0.1572
     20 N          -3.9726    1.3917   -1.9300 N.ar    1  LIG1       -0.1353
     21 N          -4.7808   -0.6492   -1.1002 N.pl3   1  LIG1       -0.3112
     22 N          -7.1800   -1.6351    0.1850 N.am    1  LIG1       -0.2824
     23 N          -8.4979   -3.4562    0.8911 N.am    1  LIG1       -0.2691
     24 O          -8.9250   -1.3360    1.6860 O.2     1  LIG1       -0.2537
     25 H          -1.2853   -0.4912   -3.9377 H       1  LIG1        0.0641
     26 H         -12.7323   -3.2228    2.5862 H       1  LIG1        0.0626
     27 H         -11.6994   -6.6303    0.1617 H       1  LIG1        0.0626
     28 H         -10.4590   -2.3213    2.2905 H       1  LIG1        0.0642
     29 H          -9.4241   -5.7324   -0.1333 H       1  LIG1        0.0642
     30 H          -2.8971   -1.7589   -2.5262 H       1  LIG1        0.0660
     31 H          -1.4833    2.0055   -3.9963 H       1  LIG1        0.0859
     32 H          -5.1030    1.0652    0.1094 H       1  LIG1        0.0485
     33 H          -4.8220   -0.4477    0.9801 H       1  LIG1        0.0485
     34 H          -4.8986   -2.4131   -2.2535 H       1  LIG1        0.0485
     35 H          -6.2519   -1.2886   -2.4558 H       1  LIG1        0.0485
     36 H          -7.2117    0.2585    1.1082 H       1  LIG1        0.0486
     37 H          -7.3357    0.2483   -0.6539 H       1  LIG1        0.0486
     38 H          -6.9909   -3.2342   -1.1675 H       1  LIG1        0.0486
     39 H          -5.6705   -3.0387   -0.0013 H       1  LIG1        0.0486
     40 H         -13.1801   -7.6424    1.7496 H       1  LIG1        0.0236
     41 H         -14.7694   -7.2665    2.4283 H       1  LIG1        0.0236
     42 H         -13.3011   -6.7876    3.2944 H       1  LIG1        0.0236
     43 H         -13.9755   -6.3183   -0.4483 H       1  LIG1        0.0236
     44 H         -14.6069   -4.6755   -0.2551 H       1  LIG1        0.0236
     45 H         -15.5142   -6.0519    0.3849 H       1  LIG1        0.0236
     46 H         -14.3392   -4.8423    2.2008 H       1  LIG1        0.0346
     47 H          -7.7513   -4.1300    0.7657 H       1  LIG1        0.1573
@<TRIPOS>BOND
     1     1     6   ar
     2     1     7   ar
     3     2     4   ar
     4     2     8   ar
     5     3     5   ar
     6     3     8   ar
     7     4     9   ar
     8     5     9   ar
     9     6    10   ar
    10     7    19   ar
    11     8    18    1
    12     9    23    1
    13    10    20   ar
    14    10    21    1
    15    11    22   am
    16    11    23   am
    17    11    24    2
    18    12    14    1
    19    12    21    1
    20    13    15    1
    21    13    21    1
    22    14    22    1
    23    15    22    1
    24    16    18    1
    25    17    18    1
    26    19    20   ar
    27     1    25    1
    28     2    26    1
    29     3    27    1
    30     4    28    1
    31     5    29    1
    32     6    30    1
    33     7    31    1
    34    12    32    1
    35    12    33    1
    36    13    34    1
    37    13    35    1
    38    14    36    1
    39    14    37    1
    40    15    38    1
    41    15    39    1
    42    16    40    1
    43    16    41    1
    44    16    42    1
    45    17    43    1
    46    17    44    1
    47    17    45    1
    48    18    46    1
    49    23    47    1
