@<TRIPOS>MOLECULE
ChEBML715554
 58 61 0 0 0
SMALL
USER_CHARGES

@<TRIPOS>ATOM
      1 C          -2.2077    0.6561   -3.5027 C.ar    1  LIG1       -0.0431
      2 C          -1.9332   -0.5988   -2.9705 C.ar    1  LIG1       -0.0449
      3 C         -12.2842   -3.7616    1.7316 C.ar    1  LIG1       -0.0482
      4 C         -11.4965   -5.7900    0.6817 C.ar    1  LIG1       -0.0482
      5 C         -10.9999   -3.2229    1.6546 C.ar    1  LIG1       -0.0402
      6 C         -10.2122   -5.2512    0.6045 C.ar    1  LIG1       -0.0402
      7 C          -3.2535    1.3793   -2.9523 C.ar    1  LIG1        0.0291
      8 C          -7.0122   -1.6693    1.2440 C.ar    1  LIG1        0.0158
      9 C         -12.5325   -5.0452    1.2453 C.ar    1  LIG1        0.0556
     10 C          -2.7019   -1.0851   -1.9189 C.ar    1  LIG1        0.0957
     11 C          -9.9638   -3.9678    1.0910 C.ar    1  LIG1        0.0314
     12 C          -6.3948   -0.7757    2.1205 C.ar    1  LIG1        0.0509
     13 C          -3.7254   -0.2838   -1.4392 C.ar    1  LIG1        0.1322
     14 C          -7.9738   -2.4937    1.8194 C.ar    1  LIG1        0.1289
     15 C          -7.6468   -1.5879    3.8678 C.ar    1  LIG1        0.1329
     16 C          -6.7261   -1.7678   -0.2310 C.3     1  LIG1       -0.0067
     17 C          -5.3538    0.2248    1.6783 C.3     1  LIG1        0.0059
     18 C          -5.2465   -2.0046   -0.5504 C.3     1  LIG1        0.0171
     19 C          -4.1477   -0.4125    0.9838 C.3     1  LIG1        0.0184
     20 C          -7.6730   -2.8592    6.0443 C.3     1  LIG1       -0.0556
     21 C          -9.4571   -1.1439    5.5647 C.3     1  LIG1       -0.0556
     22 C          -7.9880   -1.5374    5.3181 C.3     1  LIG1        0.0134
     23 C         -13.9051   -5.6222    1.3276 C.3     1  LIG1        0.4160
     24 C          -2.4040   -2.4311   -1.3509 C.3     1  LIG1        0.4193
     25 N          -4.0222    0.9401   -1.9306 N.ar    1  LIG1       -0.2408
     26 N          -6.7051   -0.7277    3.4412 N.ar    1  LIG1       -0.2371
     27 N          -8.3131   -2.4824    3.1240 N.ar    1  LIG1       -0.2174
     28 N          -4.4843   -0.7584   -0.4033 N.pl3   1  LIG1       -0.3146
     29 N          -8.6710   -3.4250    1.0115 N.pl3   1  LIG1       -0.2993
     30 F         -14.8181   -4.7837    1.9019 F       1  LIG1       -0.1661
     31 F         -14.4358   -5.9467    0.1115 F       1  LIG1       -0.1661
     32 F         -13.9489   -6.7704    2.0643 F       1  LIG1       -0.1661
     33 F          -1.3573   -3.0634   -1.9598 F       1  LIG1       -0.1660
     34 F          -2.0807   -2.4057   -0.0239 F       1  LIG1       -0.1660
     35 F          -3.4598   -3.2902   -1.4537 F       1  LIG1       -0.1660
     36 H          -1.6213    1.0554   -4.3221 H       1  LIG1        0.0639
     37 H          -1.1189   -1.1892   -3.3816 H       1  LIG1        0.0631
     38 H         -13.0851   -3.1748    2.1732 H       1  LIG1        0.0629
     39 H         -11.6801   -6.7913    0.3018 H       1  LIG1        0.0629
     40 H         -10.8170   -2.2225    2.0379 H       1  LIG1        0.0642
     41 H          -9.4122   -5.8408    0.1640 H       1  LIG1        0.0642
     42 H          -3.5093    2.3632   -3.3318 H       1  LIG1        0.0840
     43 H          -7.2779   -2.5916   -0.6955 H       1  LIG1        0.0334
     44 H          -7.0983   -0.8557   -0.7147 H       1  LIG1        0.0334
     45 H          -5.8372    0.9795    1.0466 H       1  LIG1        0.0348
     46 H          -4.9867    0.7551    2.5665 H       1  LIG1        0.0348
     47 H          -4.8249   -2.7952    0.0833 H       1  LIG1        0.0472
     48 H          -5.1510   -2.3535   -1.5866 H       1  LIG1        0.0472
     49 H          -3.3156    0.3028    0.9750 H       1  LIG1        0.0473
     50 H          -3.7942   -1.2957    1.5304 H       1  LIG1        0.0473
     51 H          -8.2334   -3.6976    5.6163 H       1  LIG1        0.0238
     52 H          -7.9235   -2.8013    7.1091 H       1  LIG1        0.0238
     53 H          -6.6060   -3.0948    5.9630 H       1  LIG1        0.0238
     54 H         -10.1310   -1.8685    5.0941 H       1  LIG1        0.0238
     55 H          -9.6832   -0.1563    5.1480 H       1  LIG1        0.0238
     56 H          -9.6924   -1.1146    6.6342 H       1  LIG1        0.0238
     57 H          -7.3784   -0.7623    5.8209 H       1  LIG1        0.0379
     58 H          -8.1266   -3.7603    0.2253 H       1  LIG1        0.1543
@<TRIPOS>BOND
     1     1     2   ar
     2     1     7   ar
     3     2    10   ar
     4     3     5   ar
     5     3     9   ar
     6     4     6   ar
     7     4     9   ar
     8     5    11   ar
     9     6    11   ar
    10     7    25   ar
    11     8    12   ar
    12     8    14   ar
    13     8    16    1
    14     9    23    1
    15    10    13   ar
    16    10    24    1
    17    11    29    1
    18    12    17    1
    19    12    26   ar
    20    13    25   ar
    21    13    28    1
    22    14    27   ar
    23    14    29    1
    24    15    22    1
    25    15    26   ar
    26    15    27   ar
    27    16    18    1
    28    17    19    1
    29    18    28    1
    30    19    28    1
    31    20    22    1
    32    21    22    1
    33    23    30    1
    34    23    31    1
    35    23    32    1
    36    24    33    1
    37    24    34    1
    38    24    35    1
    39     1    36    1
    40     2    37    1
    41     3    38    1
    42     4    39    1
    43     5    40    1
    44     6    41    1
    45     7    42    1
    46    16    43    1
    47    16    44    1
    48    17    45    1
    49    17    46    1
    50    18    47    1
    51    18    48    1
    52    19    49    1
    53    19    50    1
    54    20    51    1
    55    20    52    1
    56    20    53    1
    57    21    54    1
    58    21    55    1
    59    21    56    1
    60    22    57    1
    61    29    58    1
