@<TRIPOS>MOLECULE
ChEBML567846
 41 43 0 0 0
SMALL
USER_CHARGES

@<TRIPOS>ATOM
      1 C          -2.6421    1.4555   -3.4865 C.ar    1  LIG1       -0.0621
      2 C          -1.6837    0.4604   -3.5414 C.ar    1  LIG1       -0.0596
      3 C          -3.6860    1.3644   -2.5842 C.ar    1  LIG1       -0.0596
      4 C         -10.0475   -1.8134    2.1568 C.ar    1  LIG1       -0.0508
      5 C          -6.4073   -2.0054   -0.0385 C.ar    1  LIG1       -0.0484
      6 C          -5.1901   -0.8451    1.7019 C.ar    1  LIG1       -0.0484
      7 C         -11.0752   -2.7163    1.9820 C.ar    1  LIG1       -0.0583
      8 C          -1.7666   -0.6276   -2.6943 C.ar    1  LIG1       -0.0312
      9 C          -3.7767    0.2757   -1.7388 C.ar    1  LIG1       -0.0312
     10 C          -5.2398   -2.1487   -0.7531 C.ar    1  LIG1       -0.0305
     11 C          -4.0259   -0.9987    0.9839 C.ar    1  LIG1       -0.0305
     12 C          -8.4965   -3.4202    1.2369 C.ar    1  LIG1       -0.0478
     13 C          -6.3919   -1.3537    1.1989 C.ar    1  LIG1        0.0227
     14 C          -8.7468   -2.1601    1.7842 C.ar    1  LIG1        0.0228
     15 C         -10.8200   -3.9634    1.4388 C.ar    1  LIG1       -0.0481
     16 C          -9.5331   -4.3154    1.0724 C.ar    1  LIG1       -0.0474
     17 C          -2.8131   -0.7215   -1.7879 C.ar    1  LIG1        0.0820
     18 C          -4.0458   -1.6471   -0.2463 C.ar    1  LIG1        0.0821
     19 C          -7.6405   -1.1977    1.9682 C.2     1  LIG1        0.1926
     20 C         -11.9482   -4.9448    1.2513 C.3     1  LIG1       -0.0395
     21 C          -9.2641   -5.6780    0.4877 C.3     1  LIG1       -0.0395
     22 O          -7.7597   -0.2773    2.7537 O.2     1  LIG1       -0.2885
     23 O          -2.8971   -1.7910   -0.9539 O.3     1  LIG1       -0.3104
     24 H          -2.5751    2.3056   -4.1492 H       1  LIG1        0.0622
     25 H          -0.8694    0.5339   -4.2470 H       1  LIG1        0.0623
     26 H          -4.4331    2.1432   -2.5431 H       1  LIG1        0.0623
     27 H         -10.2481   -0.8404    2.5804 H       1  LIG1        0.0630
     28 H          -7.3340   -2.3959   -0.4325 H       1  LIG1        0.0631
     29 H          -5.1745   -0.3372    2.6549 H       1  LIG1        0.0631
     30 H         -12.0815   -2.4493    2.2693 H       1  LIG1        0.0626
     31 H          -1.0174   -1.4043   -2.7371 H       1  LIG1        0.0650
     32 H          -4.5946    0.2028   -1.0374 H       1  LIG1        0.0650
     33 H          -5.2508   -2.6519   -1.7088 H       1  LIG1        0.0650
     34 H          -3.0965   -0.6109    1.3739 H       1  LIG1        0.0650
     35 H          -7.4930   -3.6947    0.9467 H       1  LIG1        0.0633
     36 H         -12.0534   -5.5534    2.1495 H       1  LIG1        0.0280
     37 H         -12.8758   -4.4019    1.0696 H       1  LIG1        0.0280
     38 H         -11.7315   -5.5892    0.3992 H       1  LIG1        0.0280
     39 H          -9.3660   -5.6345   -0.5967 H       1  LIG1        0.0280
     40 H          -8.2521   -5.9906    0.7452 H       1  LIG1        0.0280
     41 H          -9.9795   -6.3945    0.8914 H       1  LIG1        0.0280
@<TRIPOS>BOND
     1     1     2   ar
     2     1     3   ar
     3     2     8   ar
     4     3     9   ar
     5     4     7   ar
     6     4    14   ar
     7     5    10   ar
     8     5    13   ar
     9     6    11   ar
    10     6    13   ar
    11     7    15   ar
    12     8    17   ar
    13     9    17   ar
    14    10    18   ar
    15    11    18   ar
    16    12    14   ar
    17    12    16   ar
    18    13    19    1
    19    14    19    1
    20    15    16   ar
    21    15    20    1
    22    16    21    1
    23    17    23    1
    24    18    23    1
    25    19    22    2
    26     1    24    1
    27     2    25    1
    28     3    26    1
    29     4    27    1
    30     5    28    1
    31     6    29    1
    32     7    30    1
    33     8    31    1
    34     9    32    1
    35    10    33    1
    36    11    34    1
    37    12    35    1
    38    20    36    1
    39    20    37    1
    40    20    38    1
    41    21    39    1
    42    21    40    1
    43    21    41    1
