@<TRIPOS>MOLECULE
ChEBML52993
 59 62 0 0 0
SMALL
USER_CHARGES

@<TRIPOS>ATOM
      1 C          -2.3500    0.9797   -3.4905 C.ar    1  LIG1       -0.0418
      2 C         -12.0855   -3.5054    1.9567 C.ar    1  LIG1       -0.0503
      3 C          -1.7532   -0.1784   -3.0106 C.ar    1  LIG1       -0.0360
      4 C         -12.5523   -4.6702    1.4247 C.ar    1  LIG1       -0.0287
      5 C          -9.9781   -2.0234    2.1810 C.ar    1  LIG1       -0.0262
      6 C         -10.3836   -5.1612    0.4925 C.ar    1  LIG1       -0.0074
      7 C          -3.5530    1.3932   -2.9554 C.ar    1  LIG1        0.0292
      8 C         -10.7458   -3.1380    1.7675 C.ar    1  LIG1       -0.0020
      9 C          -9.8887   -3.9765    1.0272 C.ar    1  LIG1        0.0405
     10 C          -2.3948   -0.8836   -2.0011 C.ar    1  LIG1        0.0672
     11 C         -11.7078   -5.5036    0.6916 C.ar    1  LIG1        0.1035
     12 C          -8.7154   -2.1908    1.7066 C.ar    1  LIG1        0.0947
     13 C          -3.6136   -0.4070   -1.5119 C.ar    1  LIG1        0.1412
     14 C          -7.5984   -1.2583    1.9096 C.2     1  LIG1        0.2599
     15 C          -4.4751   -0.1593    0.6010 C.3     1  LIG1        0.0288
     16 C          -5.5982   -1.4540   -1.0290 C.3     1  LIG1        0.0288
     17 C          -5.1785   -0.8689    1.7625 C.3     1  LIG1        0.0303
     18 C          -6.3756   -2.2490    0.0248 C.3     1  LIG1        0.0303
     19 C           0.1329   -3.4306   -1.0006 C.3     1  LIG1       -0.0470
     20 C          -0.9061   -3.4466   -3.2727 C.3     1  LIG1       -0.0470
     21 C         -11.1963   -6.1496   -2.2001 C.3     1  LIG1        0.0307
     22 C          -0.5867   -2.5825   -2.0512 C.3     1  LIG1        0.0142
     23 N          -4.1429    0.7044   -1.9956 N.ar    1  LIG1       -0.2394
     24 N          -8.6516   -3.3764    0.9971 N.ar    1  LIG1       -0.3100
     25 N          -4.2736   -1.1046   -0.5030 N.pl3   1  LIG1       -0.3112
     26 N          -6.4335   -1.4505    1.2597 N.am    1  LIG1       -0.2936
     27 N          -1.8318   -2.0573   -1.4855 N.pl3   1  LIG1       -0.3393
     28 O          -7.7250   -0.3126    2.6645 O.2     1  LIG1       -0.2701
     29 O         -13.4265   -7.5086   -1.5763 O.2     1  LIG1       -0.4736
     30 O         -13.3636   -5.0840   -1.0266 O.2     1  LIG1       -0.4736
     31 O         -12.1903   -6.6611    0.1696 O.3     1  LIG1       -0.2441
     32 S         -12.7128   -6.3321   -1.2216 S.O2    1  LIG1       -0.1529
     33 H          -1.8771    1.5517   -4.2750 H       1  LIG1        0.0639
     34 H         -12.7465   -2.8666    2.5236 H       1  LIG1        0.0630
     35 H          -0.8117   -0.5224   -3.4128 H       1  LIG1        0.0644
     36 H         -13.5849   -4.9503    1.5724 H       1  LIG1        0.0651
     37 H         -10.3320   -1.1894    2.7688 H       1  LIG1        0.0651
     38 H          -9.7353   -5.8116   -0.0759 H       1  LIG1        0.0671
     39 H          -4.0189    2.2940   -3.3270 H       1  LIG1        0.0840
     40 H          -3.5092    0.2174    0.9373 H       1  LIG1        0.0485
     41 H          -5.0898    0.6732    0.2585 H       1  LIG1        0.0485
     42 H          -6.1443   -0.5424   -1.2720 H       1  LIG1        0.0485
     43 H          -5.4836   -2.0588   -1.9286 H       1  LIG1        0.0485
     44 H          -4.5374   -1.6598    2.1516 H       1  LIG1        0.0486
     45 H          -5.3974   -0.1508    2.5528 H       1  LIG1        0.0486
     46 H          -5.8672   -3.1929    0.2216 H       1  LIG1        0.0486
     47 H          -7.3863   -2.4437   -0.3340 H       1  LIG1        0.0486
     48 H           1.0593   -3.8213   -1.4215 H       1  LIG1        0.0249
     49 H           0.3604   -2.8149   -0.1303 H       1  LIG1        0.0249
     50 H          -0.5084   -4.2597   -0.7015 H       1  LIG1        0.0249
     51 H          -1.4187   -2.8424   -4.0211 H       1  LIG1        0.0249
     52 H           0.0203   -3.8374   -3.6935 H       1  LIG1        0.0249
     53 H          -1.5474   -4.2757   -2.9736 H       1  LIG1        0.0249
     54 H         -10.6335   -7.0827   -2.1753 H       1  LIG1        0.0450
     55 H         -11.4560   -5.9091   -3.2310 H       1  LIG1        0.0450
     56 H         -10.5884   -5.3474   -1.7818 H       1  LIG1        0.0450
     57 H           0.0545   -1.7534   -2.3503 H       1  LIG1        0.0497
     58 H          -7.8639   -3.7275    0.5531 H       1  LIG1        0.1529
     59 H          -2.2664   -2.5227   -0.7537 H       1  LIG1        0.1469
@<TRIPOS>BOND
     1     1     3   ar
     2     1     7   ar
     3     2     4   ar
     4     2     8   ar
     5     3    10   ar
     6     4    11   ar
     7     5     8   ar
     8     5    12   ar
     9     6     9   ar
    10     6    11   ar
    11     7    23   ar
    12     8     9   ar
    13     9    24   ar
    14    10    13   ar
    15    10    27    1
    16    11    31    1
    17    12    14    1
    18    12    24   ar
    19    13    23   ar
    20    13    25    1
    21    14    26   am
    22    14    28    2
    23    15    17    1
    24    15    25    1
    25    16    18    1
    26    16    25    1
    27    17    26    1
    28    18    26    1
    29    19    22    1
    30    20    22    1
    31    21    32    1
    32    22    27    1
    33    29    32    2
    34    30    32    2
    35    31    32    1
    36     1    33    1
    37     2    34    1
    38     3    35    1
    39     4    36    1
    40     5    37    1
    41     6    38    1
    42     7    39    1
    43    15    40    1
    44    15    41    1
    45    16    42    1
    46    16    43    1
    47    17    44    1
    48    17    45    1
    49    18    46    1
    50    18    47    1
    51    19    48    1
    52    19    49    1
    53    19    50    1
    54    20    51    1
    55    20    52    1
    56    20    53    1
    57    21    54    1
    58    21    55    1
    59    21    56    1
    60    22    57    1
    61    24    58    1
    62    27    59    1
