@<TRIPOS>MOLECULE
ChEBML369977
 50 53 0 0 0
SMALL
USER_CHARGES

@<TRIPOS>ATOM
      1 C         -12.2499   -3.2115    2.3733 C.ar    1  LIG1       -0.0504
      2 C          -1.2148   -0.2416   -3.4602 C.ar    1  LIG1       -0.0590
      3 C          -2.0270    1.8522   -2.6305 C.ar    1  LIG1       -0.0590
      4 C          -2.5010   -0.7478   -3.4420 C.ar    1  LIG1       -0.0587
      5 C          -3.3139    1.3476   -2.6164 C.ar    1  LIG1       -0.0587
      6 C         -12.8091   -4.4208    2.0862 C.ar    1  LIG1       -0.0313
      7 C         -10.0618   -1.8435    2.2037 C.ar    1  LIG1       -0.0262
      8 C         -10.7370   -5.1975    1.1288 C.ar    1  LIG1       -0.0100
      9 C         -10.9102   -2.9646    2.0421 C.ar    1  LIG1       -0.0020
     10 C          -0.9782    1.0593   -3.0571 C.ar    1  LIG1       -0.0511
     11 C          -3.5505    0.0469   -3.0203 C.ar    1  LIG1       -0.0477
     12 C         -10.1487   -3.9698    1.4132 C.ar    1  LIG1        0.0404
     13 C         -12.0593   -5.4191    1.4644 C.ar    1  LIG1        0.0732
     14 C          -8.8448   -2.1673    1.6923 C.ar    1  LIG1        0.0947
     15 C          -7.6720   -1.2831    1.6589 C.2     1  LIG1        0.2598
     16 C          -5.2010   -0.0726   -0.5529 C.3     1  LIG1       -0.0341
     17 C          -6.6059   -1.8169   -1.6640 C.3     1  LIG1       -0.0341
     18 C          -5.4440   -0.7256    0.8115 C.3     1  LIG1        0.0147
     19 C          -6.8648   -2.4897   -0.3123 C.3     1  LIG1        0.0147
     20 C          -5.2296   -1.1482   -1.6411 C.3     1  LIG1       -0.0344
     21 C           0.4240    1.6111   -3.0770 C.3     1  LIG1       -0.0398
     22 C          -4.9530   -0.5046   -3.0013 C.3     1  LIG1       -0.0249
     23 N          -8.8888   -3.4602    1.2030 N.ar    1  LIG1       -0.3100
     24 N          -6.6964   -1.4917    0.7527 N.am    1  LIG1       -0.2967
     25 O          -7.5815   -0.3624    2.4492 O.2     1  LIG1       -0.2702
     26 O         -12.6332   -6.6186    1.1869 O.3     1  LIG1       -0.3608
     27 H         -12.8378   -2.4446    2.8556 H       1  LIG1        0.0630
     28 H          -0.3948   -0.8625   -3.7897 H       1  LIG1        0.0625
     29 H          -1.8416    2.8672   -2.3114 H       1  LIG1        0.0625
     30 H          -2.6859   -1.7640   -3.7576 H       1  LIG1        0.0625
     31 H          -4.1339    1.9685   -2.2871 H       1  LIG1        0.0625
     32 H         -13.8414   -4.6078    2.3427 H       1  LIG1        0.0650
     33 H         -10.3327   -0.8997    2.6535 H       1  LIG1        0.0651
     34 H         -10.1624   -5.9753    0.6479 H       1  LIG1        0.0670
     35 H          -4.2283    0.4192   -0.5528 H       1  LIG1        0.0285
     36 H          -5.9812    0.6632   -0.7482 H       1  LIG1        0.0285
     37 H          -7.3728   -1.0647   -1.8487 H       1  LIG1        0.0285
     38 H          -6.6331   -2.5667   -2.4547 H       1  LIG1        0.0285
     39 H          -4.6170   -1.3949    1.0486 H       1  LIG1        0.0469
     40 H          -5.5233    0.0462    1.5770 H       1  LIG1        0.0469
     41 H          -6.1537   -3.3029   -0.1667 H       1  LIG1        0.0469
     42 H          -7.8815   -2.8819   -0.2881 H       1  LIG1        0.0469
     43 H          -4.4655   -1.8968   -1.4315 H       1  LIG1        0.0307
     44 H           0.9052    1.4152   -2.1187 H       1  LIG1        0.0280
     45 H           0.9921    1.1310   -3.8737 H       1  LIG1        0.0280
     46 H           0.3889    2.6862   -3.2529 H       1  LIG1        0.0280
     47 H          -5.6637    0.3040   -3.1720 H       1  LIG1        0.0319
     48 H          -5.0594   -1.2536   -3.7861 H       1  LIG1        0.0319
     49 H          -8.1519   -3.9305    0.7826 H       1  LIG1        0.1529
     50 H         -13.0150   -6.5474    0.3013 H       1  LIG1        0.2182
@<TRIPOS>BOND
     1     1     6   ar
     2     1     9   ar
     3     2     4   ar
     4     2    10   ar
     5     3     5   ar
     6     3    10   ar
     7     4    11   ar
     8     5    11   ar
     9     6    13   ar
    10     7     9   ar
    11     7    14   ar
    12     8    12   ar
    13     8    13   ar
    14     9    12   ar
    15    10    21    1
    16    11    22    1
    17    12    23   ar
    18    13    26    1
    19    14    15    1
    20    14    23   ar
    21    15    24   am
    22    15    25    2
    23    16    18    1
    24    16    20    1
    25    17    19    1
    26    17    20    1
    27    18    24    1
    28    19    24    1
    29    20    22    1
    30     1    27    1
    31     2    28    1
    32     3    29    1
    33     4    30    1
    34     5    31    1
    35     6    32    1
    36     7    33    1
    37     8    34    1
    38    16    35    1
    39    16    36    1
    40    17    37    1
    41    17    38    1
    42    18    39    1
    43    18    40    1
    44    19    41    1
    45    19    42    1
    46    20    43    1
    47    21    44    1
    48    21    45    1
    49    21    46    1
    50    22    47    1
    51    22    48    1
    52    23    49    1
    53    26    50    1
