@<TRIPOS>MOLECULE
ChEBML233077
 36 38 0 0 0
SMALL
USER_CHARGES

@<TRIPOS>ATOM
      1 C          -3.8692   -2.0098    1.7839 C.ar    1  LIG1       -0.0604
      2 C          -5.1450   -1.7696    2.2941 C.ar    1  LIG1       -0.0509
      3 C         -10.2779   -5.1571    0.3292 C.ar    1  LIG1       -0.0376
      4 C         -11.6149   -5.5423    0.4626 C.ar    1  LIG1       -0.0299
      5 C          -3.6734   -2.0912    0.4052 C.ar    1  LIG1       -0.0482
      6 C         -12.1006   -3.5937    1.8277 C.ar    1  LIG1       -0.0226
      7 C         -10.0108   -2.0766    2.1961 C.ar    1  LIG1       -0.0275
      8 C          -6.0292   -1.6926    0.0470 C.ar    1  LIG1       -0.0370
      9 C         -10.7575   -3.1851    1.7074 C.ar    1  LIG1        0.0003
     10 C          -6.2250   -1.6110    1.4257 C.ar    1  LIG1        0.0249
     11 C          -9.8789   -3.9746    0.9624 C.ar    1  LIG1        0.0379
     12 C         -12.5139   -4.7743    1.1998 C.ar    1  LIG1        0.0753
     13 C          -4.7535   -1.9327   -0.4632 C.ar    1  LIG1        0.0167
     14 C          -8.7173   -2.2124    1.7470 C.ar    1  LIG1        0.0797
     15 C          -7.6032   -1.3485    1.9785 C.2     1  LIG1        0.2066
     16 C         -14.6822   -4.3477    2.0788 C.3     1  LIG1        0.0422
     17 C          -3.3297   -0.7007   -2.4934 C.3     1  LIG1        0.4460
     18 N          -8.6476   -3.3600    1.0036 N.ar    1  LIG1       -0.3112
     19 O          -7.7188   -0.3081    2.6675 O.2     1  LIG1       -0.2871
     20 O         -13.8115   -5.1763    1.3115 O.3     1  LIG1       -0.3493
     21 F          -3.6237    0.3903   -1.7464 F       1  LIG1       -0.1600
     22 F          -3.2881   -0.3129   -3.7901 F       1  LIG1       -0.1600
     23 F          -2.0739   -1.0855   -2.1567 F       1  LIG1       -0.1600
     24 S          -4.5030   -2.0385   -2.2247 S.3     1  LIG1       -0.0147
     25 H          -3.0284   -2.1345    2.4599 H       1  LIG1        0.0623
     26 H          -5.2866   -1.7079    3.3703 H       1  LIG1        0.0630
     27 H          -9.5787   -5.7555   -0.2453 H       1  LIG1        0.0643
     28 H         -11.9509   -6.4574   -0.0198 H       1  LIG1        0.0651
     29 H          -2.6718   -2.2799    0.0268 H       1  LIG1        0.0634
     30 H         -12.8080   -2.9998    2.4002 H       1  LIG1        0.0657
     31 H         -10.3841   -1.2682    2.8107 H       1  LIG1        0.0651
     32 H          -6.8770   -1.5684   -0.6239 H       1  LIG1        0.0642
     33 H         -15.6850   -4.7815    2.0876 H       1  LIG1        0.0535
     34 H         -14.7108   -3.3458    1.6431 H       1  LIG1        0.0535
     35 H         -14.3048   -4.2872    3.1023 H       1  LIG1        0.0535
     36 H          -7.8148   -3.7085    0.5491 H       1  LIG1        0.1529
@<TRIPOS>BOND
     1     1     2   ar
     2     1     5   ar
     3     2    10   ar
     4     3     4   ar
     5     3    11   ar
     6     4    12   ar
     7     5    13   ar
     8     6     9   ar
     9     6    12   ar
    10     7     9   ar
    11     7    14   ar
    12     8    10   ar
    13     8    13   ar
    14     9    11   ar
    15    10    15    1
    16    11    18   ar
    17    12    20    1
    18    13    24    1
    19    14    15    1
    20    14    18   ar
    21    15    19    2
    22    16    20    1
    23    17    21    1
    24    17    22    1
    25    17    23    1
    26    17    24    1
    27     1    25    1
    28     2    26    1
    29     3    27    1
    30     4    28    1
    31     5    29    1
    32     6    30    1
    33     7    31    1
    34     8    32    1
    35    16    33    1
    36    16    34    1
    37    16    35    1
    38    18    36    1
