@<TRIPOS>MOLECULE
ChEBML342330
 43 46 0 0 0
SMALL
USER_CHARGES

@<TRIPOS>ATOM
      1 C          -1.8955    0.3190   -3.6279 C.ar    1  LIG1       -0.0589
      2 C          -2.7071    1.4416   -3.5078 C.ar    1  LIG1       -0.0438
      3 C         -10.5734   -5.0906    0.6259 C.ar    1  LIG1       -0.0392
      4 C         -11.2171   -3.0320    1.7145 C.ar    1  LIG1       -0.0392
      5 C         -11.9074   -5.4973    0.6058 C.ar    1  LIG1       -0.0417
      6 C         -12.5512   -3.4387    1.6943 C.ar    1  LIG1       -0.0417
      7 C          -1.9600   -0.6845   -2.6676 C.ar    1  LIG1       -0.0389
      8 C          -3.5593    1.5122   -2.4176 C.ar    1  LIG1        0.0272
      9 C          -3.5744    0.6458    2.9425 C.ar    1  LIG1        0.0891
     10 C         -10.2281   -3.8580    1.1803 C.ar    1  LIG1        0.0332
     11 C         -12.8964   -4.6713    1.1400 C.ar    1  LIG1        0.0407
     12 C          -5.3053   -0.4931    2.1918 C.ar    1  LIG1        0.1269
     13 C          -2.8454   -0.5186   -1.6148 C.ar    1  LIG1        0.0574
     14 C          -4.2030   -0.6655    1.3882 C.ar    1  LIG1        0.1455
     15 C          -6.6151   -1.0236    2.0965 C.ar    1  LIG1        0.2216
     16 C          -8.2418   -2.2878    1.6821 C.ar    1  LIG1        0.2620
     17 C          -5.6659    0.8499    4.2924 C.3     1  LIG1        0.0064
     18 C          -2.9412   -1.5821   -0.5595 C.3     1  LIG1        0.0524
     19 N          -3.6496    0.5576   -1.4645 N.ar    1  LIG1       -0.2596
     20 N          -3.1288    0.0458    1.8610 N.ar    1  LIG1       -0.2238
     21 N          -7.6801   -0.3950    2.5365 N.ar    1  LIG1       -0.1185
     22 N          -8.7502   -1.2268    2.2640 N.ar    1  LIG1       -0.1052
     23 N          -4.8871    0.3490    3.1834 N.ar    1  LIG1       -0.2883
     24 N          -8.8788   -3.4486    1.2020 N.pl3   1  LIG1       -0.2776
     25 N          -4.1350   -1.4234    0.2710 N.pl3   1  LIG1       -0.3219
     26 O          -6.8892   -2.2347    1.5393 O.2     1  LIG1       -0.2549
     27 CL        -14.5422   -5.1733    1.1150 Cl      1  LIG1       -0.0843
     28 H          -1.2142    0.2264   -4.4683 H       1  LIG1        0.0624
     29 H          -2.6738    2.2361   -4.2444 H       1  LIG1        0.0639
     30 H          -9.8102   -5.7421    0.2080 H       1  LIG1        0.0643
     31 H         -10.9588   -2.0702    2.1503 H       1  LIG1        0.0643
     32 H         -12.1612   -6.4613    0.1722 H       1  LIG1        0.0639
     33 H         -13.3107   -2.7851    2.1161 H       1  LIG1        0.0639
     34 H          -1.3322   -1.5652   -2.7496 H       1  LIG1        0.0642
     35 H          -4.2129    2.3669   -2.2781 H       1  LIG1        0.0839
     36 H          -2.9991    1.2992    3.5841 H       1  LIG1        0.1017
     37 H          -6.1378    1.7846    3.9783 H       1  LIG1        0.0436
     38 H          -6.4247    0.1119    4.5671 H       1  LIG1        0.0436
     39 H          -5.0071    1.0216    5.1482 H       1  LIG1        0.0436
     40 H          -2.9780   -2.5771   -1.0162 H       1  LIG1        0.0534
     41 H          -2.0683   -1.5598    0.1015 H       1  LIG1        0.0534
     42 H          -8.2420   -4.1240    0.7896 H       1  LIG1        0.1564
     43 H          -4.9667   -1.9405   -0.0497 H       1  LIG1        0.1485
@<TRIPOS>BOND
     1     1     2   ar
     2     1     7   ar
     3     2     8   ar
     4     3     5   ar
     5     3    10   ar
     6     4     6   ar
     7     4    10   ar
     8     5    11   ar
     9     6    11   ar
    10     7    13   ar
    11     8    19   ar
    12     9    20   ar
    13     9    23   ar
    14    10    24    1
    15    11    27    1
    16    12    14   ar
    17    12    15    1
    18    12    23   ar
    19    13    18    1
    20    13    19   ar
    21    14    20   ar
    22    14    25    1
    23    15    21   ar
    24    15    26   ar
    25    16    22   ar
    26    16    24    1
    27    16    26   ar
    28    17    23    1
    29    18    25    1
    30    21    22   ar
    31     1    28    1
    32     2    29    1
    33     3    30    1
    34     4    31    1
    35     5    32    1
    36     6    33    1
    37     7    34    1
    38     8    35    1
    39     9    36    1
    40    17    37    1
    41    17    38    1
    42    17    39    1
    43    18    40    1
    44    18    41    1
    45    24    42    1
    46    25    43    1
