@<TRIPOS>MOLECULE
ChEBML208207
 42 45 0 0 0
SMALL
USER_CHARGES

@<TRIPOS>ATOM
      1 C          -1.8338    0.8357   -3.5794 C.ar    1  LIG1       -0.0622
      2 C          -1.4140   -0.0292   -2.5689 C.ar    1  LIG1       -0.0616
      3 C          -3.1566    1.2768   -3.6151 C.ar    1  LIG1       -0.0616
      4 C         -12.8395   -4.0243    0.9698 C.ar    1  LIG1       -0.0600
      5 C         -12.0980   -4.9159    0.1911 C.ar    1  LIG1       -0.0602
      6 C          -2.3170   -0.4532   -1.5940 C.ar    1  LIG1       -0.0547
      7 C          -4.0597    0.8529   -2.6402 C.ar    1  LIG1       -0.0547
      8 C         -12.2077   -3.0278    1.7244 C.ar    1  LIG1       -0.0344
      9 C         -10.7020   -4.8451    0.1374 C.ar    1  LIG1       -0.0385
     10 C          -3.6399   -0.0121   -1.6296 C.ar    1  LIG1       -0.0223
     11 C         -10.8058   -2.9423    1.6822 C.ar    1  LIG1        0.0864
     12 C         -10.0943   -3.8448    0.8968 C.ar    1  LIG1        0.0575
     13 C          -8.7488   -2.4277    1.9341 C.ar    1  LIG1        0.1434
     14 C          -4.7423    0.2445    0.5249 C.2     1  LIG1       -0.0366
     15 C          -4.5803   -0.4531   -0.6153 C.2     1  LIG1       -0.0344
     16 C          -5.7024   -0.1649    1.5991 C.3     1  LIG1       -0.0144
     17 C          -5.3770   -1.7135   -0.8705 C.3     1  LIG1        0.0121
     18 C          -5.9717   -2.3294    0.3962 C.3     1  LIG1       -0.0294
     19 C          -7.4510   -1.7944    2.3412 C.3     1  LIG1        0.0235
     20 N          -9.9533   -2.0697    2.3189 N.ar    1  LIG1       -0.2303
     21 N          -8.7814   -3.4923    1.0770 N.ar    1  LIG1       -0.2969
     22 N          -6.6724   -1.2490    1.1790 N.4     1  LIG1        0.2545
     23 H          -1.1304    1.1668   -4.3378 H       1  LIG1        0.0622
     24 H          -0.3837   -0.3720   -2.5403 H       1  LIG1        0.0623
     25 H          -3.4833    1.9513   -4.4011 H       1  LIG1        0.0623
     26 H         -13.9234   -4.1043    0.9908 H       1  LIG1        0.0623
     27 H         -12.6150   -5.6806   -0.3835 H       1  LIG1        0.0623
     28 H          -1.9750   -1.1276   -0.8126 H       1  LIG1        0.0629
     29 H          -5.0875    1.2055   -2.6815 H       1  LIG1        0.0629
     30 H         -12.7933   -2.3394    2.3253 H       1  LIG1        0.0646
     31 H         -10.1250   -5.5355   -0.4673 H       1  LIG1        0.0643
     32 H          -4.1605    1.1450    0.7055 H       1  LIG1        0.0634
     33 H          -5.1476   -0.5353    2.4686 H       1  LIG1        0.0863
     34 H          -6.3140    0.6912    1.9026 H       1  LIG1        0.0863
     35 H          -6.1819   -1.4802   -1.5795 H       1  LIG1        0.0370
     36 H          -4.7395   -2.4676   -1.3486 H       1  LIG1        0.0370
     37 H          -6.7129   -3.0944    0.1423 H       1  LIG1        0.0818
     38 H          -5.2022   -2.7652    1.0441 H       1  LIG1        0.0818
     39 H          -7.6170   -0.9581    3.0287 H       1  LIG1        0.0899
     40 H          -6.7996   -2.5165    2.8453 H       1  LIG1        0.0899
     41 H          -7.9819   -3.9413    0.6499 H       1  LIG1        0.1542
     42 H          -7.3575   -0.8138    0.5456 H       1  LIG1        0.2012
@<TRIPOS>BOND
     1     1     2   ar
     2     1     3   ar
     3     2     6   ar
     4     3     7   ar
     5     4     5   ar
     6     4     8   ar
     7     5     9   ar
     8     6    10   ar
     9     7    10   ar
    10     8    11   ar
    11     9    12   ar
    12    10    15    1
    13    11    12   ar
    14    11    20   ar
    15    12    21   ar
    16    13    19    1
    17    13    20   ar
    18    13    21   ar
    19    14    15    2
    20    14    16    1
    21    15    17    1
    22    16    22    1
    23    17    18    1
    24    18    22    1
    25    19    22    1
    26     1    23    1
    27     2    24    1
    28     3    25    1
    29     4    26    1
    30     5    27    1
    31     6    28    1
    32     7    29    1
    33     8    30    1
    34     9    31    1
    35    14    32    1
    36    16    33    1
    37    16    34    1
    38    17    35    1
    39    17    36    1
    40    18    37    1
    41    18    38    1
    42    19    39    1
    43    19    40    1
    44    21    41    1
    45    22    42    1
