@<TRIPOS>MOLECULE
ChEBML825418
 43 46 0 0 0
SMALL
USER_CHARGES

@<TRIPOS>ATOM
      1 C          -2.8898    1.1308   -3.7210 C.ar    1  LIG1       -0.0621
      2 C          -1.7518    0.3760   -3.5034 C.ar    1  LIG1       -0.0596
      3 C          -3.9653    1.0291   -2.8580 C.ar    1  LIG1       -0.0596
      4 C          -6.1624   -2.1623    0.3496 C.ar    1  LIG1       -0.0483
      5 C          -5.3410   -0.3945    1.7837 C.ar    1  LIG1       -0.0483
      6 C          -1.6869   -0.4821   -2.4228 C.ar    1  LIG1       -0.0312
      7 C          -3.9078    0.1682   -1.7792 C.ar    1  LIG1       -0.0312
      8 C          -4.9370   -2.2191   -0.2748 C.ar    1  LIG1       -0.0305
      9 C          -4.1169   -0.4615    1.1576 C.ar    1  LIG1       -0.0305
     10 C          -6.3744   -1.2496    1.3878 C.ar    1  LIG1        0.0258
     11 C          -2.7650   -0.5863   -1.5555 C.ar    1  LIG1        0.0820
     12 C          -3.9104   -1.3705    0.1256 C.ar    1  LIG1        0.0821
     13 C          -9.7769   -3.7974    0.7865 C.ar    1  LIG1        0.0627
     14 C         -10.5983   -3.2992    1.7508 C.ar    1  LIG1        0.0614
     15 C          -8.7300   -2.1709    1.7329 C.ar    1  LIG1        0.1969
     16 C          -7.6862   -1.1848    2.0594 C.2     1  LIG1        0.2279
     17 C         -10.1406   -4.9539   -0.1125 C.3     1  LIG1       -0.0087
     18 C         -11.9785   -3.8279    2.0469 C.3     1  LIG1       -0.0101
     19 C         -11.3332   -5.6921    0.5072 C.3     1  LIG1       -0.0473
     20 C         -12.4322   -4.6860    0.8593 C.3     1  LIG1       -0.0475
     21 N          -8.6509   -3.0986    0.7979 N.ar    1  LIG1       -0.2301
     22 N          -9.9472   -2.2844    2.3503 N.ar    1  LIG1       -0.1654
     23 O          -7.9058   -0.3168    2.8830 O.2     1  LIG1       -0.2852
     24 O         -10.4313   -1.4831    3.4127 O.3     1  LIG1       -0.2903
     25 O          -2.7038   -1.4301   -0.4921 O.3     1  LIG1       -0.3104
     26 H          -2.9385    1.8010   -4.5664 H       1  LIG1        0.0622
     27 H          -0.9129    0.4578   -4.1785 H       1  LIG1        0.0623
     28 H          -4.8528    1.6202   -3.0299 H       1  LIG1        0.0623
     29 H          -6.9590   -2.8218    0.0383 H       1  LIG1        0.0631
     30 H          -5.5018    0.3146    2.5823 H       1  LIG1        0.0631
     31 H          -0.7977   -1.0710   -2.2531 H       1  LIG1        0.0650
     32 H          -4.7500    0.0856   -1.1082 H       1  LIG1        0.0650
     33 H          -4.7723   -2.9239   -1.0764 H       1  LIG1        0.0650
     34 H          -3.3170    0.1954    1.4656 H       1  LIG1        0.0650
     35 H         -10.4129   -4.5800   -1.0995 H       1  LIG1        0.0333
     36 H          -9.2925   -5.6332   -0.1980 H       1  LIG1        0.0333
     37 H         -11.9525   -4.4362    2.9510 H       1  LIG1        0.0331
     38 H         -12.6689   -2.9956    2.1835 H       1  LIG1        0.0331
     39 H         -11.7213   -6.4186   -0.2068 H       1  LIG1        0.0271
     40 H         -11.0105   -6.2085    1.4113 H       1  LIG1        0.0271
     41 H         -12.6259   -4.0439    0.0001 H       1  LIG1        0.0270
     42 H         -13.3435   -5.2218    1.1253 H       1  LIG1        0.0270
     43 H         -10.8920   -0.7341    3.0104 H       1  LIG1        0.2435
@<TRIPOS>BOND
     1     1     2   ar
     2     1     3   ar
     3     2     6   ar
     4     3     7   ar
     5     4     8   ar
     6     4    10   ar
     7     5     9   ar
     8     5    10   ar
     9     6    11   ar
    10     7    11   ar
    11     8    12   ar
    12     9    12   ar
    13    10    16    1
    14    11    25    1
    15    12    25    1
    16    13    14   ar
    17    13    17    1
    18    13    21   ar
    19    14    18    1
    20    14    22   ar
    21    15    16    1
    22    15    21   ar
    23    15    22   ar
    24    16    23    2
    25    17    19    1
    26    18    20    1
    27    19    20    1
    28    22    24    1
    29     1    26    1
    30     2    27    1
    31     3    28    1
    32     4    29    1
    33     5    30    1
    34     6    31    1
    35     7    32    1
    36     8    33    1
    37     9    34    1
    38    17    35    1
    39    17    36    1
    40    18    37    1
    41    18    38    1
    42    19    39    1
    43    19    40    1
    44    20    41    1
    45    20    42    1
    46    24    43    1
