@<TRIPOS>MOLECULE
ChEBML199147
 51 53 0 0 0
SMALL
USER_CHARGES

@<TRIPOS>ATOM
      1 C          -2.2253    0.9423   -3.4715 C.ar    1  LIG1       -0.0431
      2 C          -1.9725   -0.4018   -3.2208 C.ar    1  LIG1       -0.0449
      3 C         -11.8733   -3.0817    0.3298 C.ar    1  LIG1       -0.0569
      4 C         -11.7447   -5.2396    1.4086 C.ar    1  LIG1       -0.0569
      5 C         -10.5071   -2.8951    0.5404 C.ar    1  LIG1       -0.0404
      6 C         -10.3785   -5.0530    1.6192 C.ar    1  LIG1       -0.0404
      7 C          -3.3164    1.5245   -2.8469 C.ar    1  LIG1        0.0291
      8 C         -12.4921   -4.2541    0.7640 C.ar    1  LIG1       -0.0453
      9 C          -2.8068   -1.1125   -2.3651 C.ar    1  LIG1        0.0957
     10 C          -9.7597   -3.8807    1.1851 C.ar    1  LIG1        0.0340
     11 C          -3.8718   -0.4383   -1.7899 C.ar    1  LIG1        0.1323
     12 C          -7.8711   -2.4265    1.6420 C.2     1  LIG1        0.3050
     13 C          -4.8323   -0.6857    0.4434 C.3     1  LIG1        0.0288
     14 C          -5.7847   -1.9241   -1.5253 C.3     1  LIG1        0.0288
     15 C          -6.2993   -0.6745    0.8674 C.3     1  LIG1        0.0315
     16 C          -6.4743   -2.7715   -0.4552 C.3     1  LIG1        0.0315
     17 C         -14.7397   -4.5820    1.8570 C.3     1  LIG1       -0.0587
     18 C         -14.2493   -5.6640   -0.3665 C.3     1  LIG1       -0.0587
     19 C         -13.9528   -4.4535    0.5388 C.3     1  LIG1       -0.0219
     20 C          -2.5323   -2.5536   -2.0988 C.3     1  LIG1        0.4193
     21 N          -4.1492    0.8665   -2.0094 N.ar    1  LIG1       -0.2408
     22 N          -4.6964   -1.1350   -0.9448 N.pl3   1  LIG1       -0.3122
     23 N          -6.9179   -1.9884    0.7035 N.am    1  LIG1       -0.2824
     24 N          -8.3888   -3.6937    1.3963 N.am    1  LIG1       -0.2691
     25 O          -8.2157   -1.7441    2.6124 O.2     1  LIG1       -0.2537
     26 F          -1.4371   -3.0339   -2.7595 F       1  LIG1       -0.1660
     27 F          -2.3032   -2.8326   -0.7814 F       1  LIG1       -0.1660
     28 F          -3.5669   -3.3631   -2.4696 F       1  LIG1       -0.1660
     29 H          -1.5879    1.5160   -4.1346 H       1  LIG1        0.0639
     30 H          -1.1238   -0.8857   -3.6965 H       1  LIG1        0.0631
     31 H         -12.4483   -2.3075   -0.1713 H       1  LIG1        0.0626
     32 H         -12.2188   -6.1558    1.7509 H       1  LIG1        0.0626
     33 H         -10.0352   -1.9777    0.1975 H       1  LIG1        0.0642
     34 H          -9.8057   -5.8272    2.1237 H       1  LIG1        0.0642
     35 H          -3.5577    2.5699   -3.0097 H       1  LIG1        0.0840
     36 H          -4.4151    0.3204    0.5746 H       1  LIG1        0.0485
     37 H          -4.2596   -1.3646    1.0866 H       1  LIG1        0.0485
     38 H          -5.3970   -2.5831   -2.3113 H       1  LIG1        0.0485
     39 H          -6.5154   -1.2484   -1.9882 H       1  LIG1        0.0485
     40 H          -6.3834   -0.3446    1.9082 H       1  LIG1        0.0486
     41 H          -6.8741    0.0291    0.2529 H       1  LIG1        0.0486
     42 H          -7.3341   -3.2827   -0.9008 H       1  LIG1        0.0486
     43 H          -5.7861   -3.5363   -0.0754 H       1  LIG1        0.0486
     44 H         -14.3924   -5.4334    2.4524 H       1  LIG1        0.0236
     45 H         -15.8106   -4.7204    1.6724 H       1  LIG1        0.0236
     46 H         -14.6181   -3.6782    2.4644 H       1  LIG1        0.0236
     47 H         -13.8586   -6.5833    0.0840 H       1  LIG1        0.0236
     48 H         -13.7851   -5.5503   -1.3522 H       1  LIG1        0.0236
     49 H         -15.3256   -5.7987   -0.5201 H       1  LIG1        0.0236
     50 H         -14.3757   -3.5737    0.0173 H       1  LIG1        0.0346
     51 H          -7.8104   -4.5256    1.4165 H       1  LIG1        0.1573
@<TRIPOS>BOND
     1     1     2   ar
     2     1     7   ar
     3     2     9   ar
     4     3     5   ar
     5     3     8   ar
     6     4     6   ar
     7     4     8   ar
     8     5    10   ar
     9     6    10   ar
    10     7    21   ar
    11     8    19    1
    12     9    11   ar
    13     9    20    1
    14    10    24    1
    15    11    21   ar
    16    11    22    1
    17    12    23   am
    18    12    24   am
    19    12    25    2
    20    13    15    1
    21    13    22    1
    22    14    16    1
    23    14    22    1
    24    15    23    1
    25    16    23    1
    26    17    19    1
    27    18    19    1
    28    20    26    1
    29    20    27    1
    30    20    28    1
    31     1    29    1
    32     2    30    1
    33     3    31    1
    34     4    32    1
    35     5    33    1
    36     6    34    1
    37     7    35    1
    38    13    36    1
    39    13    37    1
    40    14    38    1
    41    14    39    1
    42    15    40    1
    43    15    41    1
    44    16    42    1
    45    16    43    1
    46    17    44    1
    47    17    45    1
    48    17    46    1
    49    18    47    1
    50    18    48    1
    51    18    49    1
    52    19    50    1
    53    24    51    1
