@<TRIPOS>MOLECULE
ChEBML910443
 41 44 0 0 0
SMALL
USER_CHARGES

@<TRIPOS>ATOM
      1 C         -12.5522   -4.1488    1.9464 C.ar    1  LIG1       -0.0615
      2 C         -12.1277   -5.1147    1.0359 C.ar    1  LIG1       -0.0603
      3 C         -11.6988   -3.1124    2.3420 C.ar    1  LIG1       -0.0523
      4 C         -10.8405   -5.0769    0.4925 C.ar    1  LIG1       -0.0400
      5 C          -2.5677   -0.6349   -1.5655 C.ar    1  LIG1       -0.0392
      6 C          -3.6571    1.5183   -1.6836 C.ar    1  LIG1       -0.0392
      7 C          -1.9101   -0.3681   -2.7664 C.ar    1  LIG1       -0.0417
      8 C          -2.9995    1.7852   -2.8844 C.ar    1  LIG1       -0.0417
      9 C         -10.3962   -3.0523    1.8081 C.ar    1  LIG1        0.0069
     10 C          -9.2909   -2.1803    1.9681 C.ar    1  LIG1        0.0305
     11 C          -9.9965   -4.0357    0.8955 C.ar    1  LIG1        0.0409
     12 C          -3.4413    0.3082   -1.0242 C.ar    1  LIG1        0.0326
     13 C          -2.1260    0.8419   -3.4257 C.ar    1  LIG1        0.0407
     14 C          -8.2676   -2.6303    1.1773 C.ar    1  LIG1        0.1078
     15 C          -9.0759   -1.0030    2.7513 C.ar    1  LIG1        0.0554
     16 C          -6.9934   -1.9742    1.1007 C.ar    1  LIG1        0.2806
     17 C          -5.3576    0.4996    0.5992 C.2     1  LIG1        0.2357
     18 C          -7.9174   -4.5398   -0.4058 C.3     1  LIG1        0.0055
     19 C          -5.6976   -0.0296    1.9791 C.3     1  LIG1        0.1149
     20 N          -7.9437   -0.3693    2.7209 N.ar    1  LIG1       -0.1856
     21 N          -8.6963   -3.7538    0.5282 N.ar    1  LIG1       -0.2985
     22 N          -6.9090   -0.8304    1.9174 N.ar    1  LIG1       -0.1792
     23 N          -4.1081    0.0376    0.1945 N.am    1  LIG1       -0.2840
     24 O          -6.0708   -2.3731    0.3928 O.2     1  LIG1       -0.2682
     25 O          -6.1229    1.2229   -0.0304 O.2     1  LIG1       -0.2753
     26 CL         -1.3144    1.1711   -4.9075 Cl      1  LIG1       -0.0843
     27 H         -13.5579   -4.1996    2.3550 H       1  LIG1        0.0623
     28 H         -12.8076   -5.9106    0.7429 H       1  LIG1        0.0623
     29 H         -12.0445   -2.3671    3.0525 H       1  LIG1        0.0630
     30 H         -10.5165   -5.8322   -0.2158 H       1  LIG1        0.0643
     31 H          -2.3923   -1.5812   -1.0602 H       1  LIG1        0.0643
     32 H          -4.3356    2.2603   -1.2706 H       1  LIG1        0.0643
     33 H          -1.2322   -1.1119   -3.1766 H       1  LIG1        0.0639
     34 H          -3.1772    2.7321   -3.3876 H       1  LIG1        0.0639
     35 H          -9.8919   -0.6317    3.3909 H       1  LIG1        0.0864
     36 H          -8.0848   -4.1363   -1.4078 H       1  LIG1        0.0436
     37 H          -6.8584   -4.4768   -0.1402 H       1  LIG1        0.0436
     38 H          -8.2378   -5.5841   -0.3545 H       1  LIG1        0.0436
     39 H          -5.8467    0.8065    2.6694 H       1  LIG1        0.0592
     40 H          -4.8655   -0.6419    2.3404 H       1  LIG1        0.0592
     41 H          -3.6043   -0.5664    0.8405 H       1  LIG1        0.1557
@<TRIPOS>BOND
     1     1     2   ar
     2     1     3   ar
     3     2     4   ar
     4     3     9   ar
     5     4    11   ar
     6     5     7   ar
     7     5    12   ar
     8     6     8   ar
     9     6    12   ar
    10     7    13   ar
    11     8    13   ar
    12     9    10   ar
    13     9    11   ar
    14    10    14   ar
    15    10    15   ar
    16    11    21   ar
    17    12    23    1
    18    13    26    1
    19    14    16   ar
    20    14    21   ar
    21    15    20   ar
    22    16    22   ar
    23    16    24    2
    24    17    19    1
    25    17    23   am
    26    17    25    2
    27    18    21    1
    28    19    22    1
    29    20    22   ar
    30     1    27    1
    31     2    28    1
    32     3    29    1
    33     4    30    1
    34     5    31    1
    35     6    32    1
    36     7    33    1
    37     8    34    1
    38    15    35    1
    39    18    36    1
    40    18    37    1
    41    18    38    1
    42    19    39    1
    43    19    40    1
    44    23    41    1
