@<TRIPOS>MOLECULE
ChEBML226721
 47 50 0 0 0
SMALL
USER_CHARGES

@<TRIPOS>ATOM
      1 C          -2.1043   -0.0173   -2.5887 C.ar    1  LIG1       -0.0347
      2 C          -2.7429   -1.0348   -1.8402 C.ar    1  LIG1       -0.0143
      3 C         -12.1642   -3.8108    2.0018 C.ar    1  LIG1       -0.0162
      4 C         -10.4962   -5.3180    0.3701 C.ar    1  LIG1       -0.0024
      5 C          -2.9577    1.0612   -2.5728 C.ar    1  LIG1        0.0477
      6 C         -10.8598   -3.3708    1.7172 C.ar    1  LIG1        0.0431
      7 C         -10.0069   -4.1237    0.8937 C.ar    1  LIG1        0.0803
      8 C         -12.6274   -5.0080    1.4651 C.ar    1  LIG1        0.1057
      9 C         -11.7922   -5.7623    0.6485 C.ar    1  LIG1        0.1070
     10 C         -10.3357   -2.1840    2.2214 C.ar    1  LIG1        0.1282
     11 C          -3.9409   -0.5053   -1.4201 C.ar    1  LIG1        0.1395
     12 C          -8.3672   -2.5444    1.1641 C.ar    1  LIG1        0.2187
     13 C          -4.8708   -2.3884   -0.1677 C.3     1  LIG1        0.0292
     14 C          -6.1375   -0.2349   -0.3808 C.3     1  LIG1        0.0292
     15 C          -6.2723   -2.9791    0.0100 C.3     1  LIG1        0.0302
     16 C          -6.7842   -0.7018    0.9262 C.3     1  LIG1        0.0302
     17 C         -14.9272   -5.0037    0.8597 C.3     1  LIG1        0.0424
     18 C         -11.9981   -8.1206    0.8756 C.3     1  LIG1        0.0424
     19 N          -8.7576   -3.7124    0.6146 N.ar    1  LIG1       -0.2146
     20 N          -9.0903   -1.7428    1.9626 N.ar    1  LIG1       -0.1995
     21 N          -4.9413   -1.0210   -0.6826 N.pl3   1  LIG1       -0.3085
     22 N          -7.0537   -2.1192    0.8677 N.pl3   1  LIG1       -0.2969
     23 N         -11.1377   -1.3709    3.0601 N.pl3   1  LIG1       -0.3426
     24 O          -4.0795    0.7721   -1.8624 O.2     1  LIG1       -0.3034
     25 O         -13.8918   -5.4276    1.7450 O.3     1  LIG1       -0.3465
     26 O         -12.2248   -6.9377    0.1120 O.3     1  LIG1       -0.3465
     27 H          -1.1425   -0.0644   -3.0785 H       1  LIG1        0.0645
     28 H          -2.3720   -2.0291   -1.6349 H       1  LIG1        0.0665
     29 H         -12.8311   -3.2341    2.6385 H       1  LIG1        0.0660
     30 H          -9.8572   -5.9225   -0.2719 H       1  LIG1        0.0674
     31 H          -2.9157    2.0542   -2.9961 H       1  LIG1        0.0902
     32 H          -4.3429   -2.3793    0.7939 H       1  LIG1        0.0485
     33 H          -4.2991   -3.0283   -0.8511 H       1  LIG1        0.0485
     34 H          -6.8492   -0.3364   -1.2096 H       1  LIG1        0.0485
     35 H          -5.8846    0.8289   -0.2918 H       1  LIG1        0.0485
     36 H          -6.7557   -3.0758   -0.9709 H       1  LIG1        0.0486
     37 H          -6.1888   -3.9839    0.4411 H       1  LIG1        0.0486
     38 H          -6.1007   -0.5232    1.7654 H       1  LIG1        0.0486
     39 H          -7.6863   -0.1064    1.1144 H       1  LIG1        0.0486
     40 H         -15.8846   -5.4081    1.1974 H       1  LIG1        0.0535
     41 H         -14.7084   -5.3535   -0.1524 H       1  LIG1        0.0535
     42 H         -14.9736   -3.9121    0.8638 H       1  LIG1        0.0535
     43 H         -12.3907   -8.9852    0.3347 H       1  LIG1        0.0535
     44 H         -12.4925   -8.0293    1.8460 H       1  LIG1        0.0535
     45 H         -10.9233   -8.2455    1.0268 H       1  LIG1        0.0535
     46 H         -12.0806   -1.6427    3.2351 H       1  LIG1        0.1442
     47 H         -10.7717   -0.5002    3.3786 H       1  LIG1        0.1442
@<TRIPOS>BOND
     1     1     2   ar
     2     1     5   ar
     3     2    11   ar
     4     3     6   ar
     5     3     8   ar
     6     4     7   ar
     7     4     9   ar
     8     5    24   ar
     9     6     7   ar
    10     6    10   ar
    11     7    19   ar
    12     8     9   ar
    13     8    25    1
    14     9    26    1
    15    10    20   ar
    16    10    23    1
    17    11    21    1
    18    11    24   ar
    19    12    19   ar
    20    12    20   ar
    21    12    22    1
    22    13    15    1
    23    13    21    1
    24    14    16    1
    25    14    21    1
    26    15    22    1
    27    16    22    1
    28    17    25    1
    29    18    26    1
    30     1    27    1
    31     2    28    1
    32     3    29    1
    33     4    30    1
    34     5    31    1
    35    13    32    1
    36    13    33    1
    37    14    34    1
    38    14    35    1
    39    15    36    1
    40    15    37    1
    41    16    38    1
    42    16    39    1
    43    17    40    1
    44    17    41    1
    45    17    42    1
    46    18    43    1
    47    18    44    1
    48    18    45    1
    49    23    46    1
    50    23    47    1
