@<TRIPOS>MOLECULE
ChEBML227798
 47 50 0 0 0
SMALL
USER_CHARGES

@<TRIPOS>ATOM
      1 C          -1.7607   -0.2226   -3.1290 C.ar    1  LIG1       -0.0618
      2 C          -1.8068    1.1582   -2.9720 C.ar    1  LIG1       -0.0604
      3 C          -2.8261   -1.0032   -2.6895 C.ar    1  LIG1       -0.0571
      4 C         -11.8875   -5.5548    1.6065 C.ar    1  LIG1       -0.0571
      5 C         -10.5582   -5.3644    1.2182 C.ar    1  LIG1       -0.0399
      6 C          -2.9171    1.7611   -2.3751 C.ar    1  LIG1       -0.0402
      7 C         -12.0876   -3.2275    2.2705 C.ar    1  LIG1       -0.0498
      8 C          -9.8861   -1.8803    1.8928 C.ar    1  LIG1       -0.0262
      9 C         -10.7494   -3.0115    1.8859 C.ar    1  LIG1       -0.0019
     10 C          -3.9376   -0.4069   -2.0760 C.ar    1  LIG1       -0.0240
     11 C         -12.6423   -4.5043    2.1246 C.ar    1  LIG1       -0.0475
     12 C         -10.0170   -4.0828    1.3698 C.ar    1  LIG1        0.0378
     13 C          -3.9955    0.9884   -1.9140 C.ar    1  LIG1        0.0384
     14 C          -8.6690   -2.2793    1.3905 C.ar    1  LIG1        0.0945
     15 C          -6.1419    0.8164   -0.6716 C.2     1  LIG1        0.2392
     16 C          -7.4407   -1.4665    1.1960 C.2     1  LIG1        0.2578
     17 C          -5.1089   -1.2525   -1.6724 C.3     1  LIG1        0.0014
     18 C          -5.7768   -0.6474   -0.4521 C.3     1  LIG1        0.1042
     19 C         -15.0377   -4.4981    1.3841 C.3     1  LIG1       -0.0613
     20 C          -5.3135    3.0341   -1.3699 C.3     1  LIG1        0.0080
     21 C         -14.0594   -4.7410    2.5297 C.3     1  LIG1       -0.0307
     22 N          -8.7578   -3.6092    1.0776 N.ar    1  LIG1       -0.3101
     23 N          -5.1546    1.5830   -1.3130 N.am    1  LIG1       -0.2728
     24 N          -6.9700   -1.3783   -0.1067 N.am    1  LIG1       -0.2982
     25 O          -7.1848    1.2864   -0.2109 O.2     1  LIG1       -0.2749
     26 O          -6.9057   -0.9450    2.1708 O.2     1  LIG1       -0.2704
     27 H          -0.9007   -0.6896   -3.5996 H       1  LIG1        0.0623
     28 H          -0.9793    1.7712   -3.3179 H       1  LIG1        0.0623
     29 H          -2.7893   -2.0801   -2.8324 H       1  LIG1        0.0626
     30 H         -12.3299   -6.5426    1.4981 H       1  LIG1        0.0626
     31 H          -9.9714   -6.1827    0.8150 H       1  LIG1        0.0643
     32 H          -2.9061    2.8429   -2.2763 H       1  LIG1        0.0642
     33 H         -12.6798   -2.4109    2.6749 H       1  LIG1        0.0632
     34 H         -10.1335   -0.8826    2.2307 H       1  LIG1        0.0651
     35 H          -5.8076   -1.3085   -2.5172 H       1  LIG1        0.0341
     36 H          -4.7874   -2.2767   -1.4454 H       1  LIG1        0.0341
     37 H          -5.1119   -0.6935    0.4192 H       1  LIG1        0.0608
     38 H         -14.9393   -3.4801    0.9921 H       1  LIG1        0.0234
     39 H         -16.0700   -4.6330    1.7220 H       1  LIG1        0.0234
     40 H         -14.8572   -5.1948    0.5585 H       1  LIG1        0.0234
     41 H          -5.8612    3.3169   -2.2726 H       1  LIG1        0.0437
     42 H          -4.3347    3.5211   -1.3850 H       1  LIG1        0.0437
     43 H          -5.8677    3.3881   -0.4965 H       1  LIG1        0.0437
     44 H         -14.1848   -5.7710    2.8990 H       1  LIG1        0.0313
     45 H         -14.3285   -4.0919    3.3779 H       1  LIG1        0.0313
     46 H          -8.0094   -4.1662    0.6884 H       1  LIG1        0.1529
     47 H          -7.4338   -1.8911   -0.8519 H       1  LIG1        0.1506
@<TRIPOS>BOND
     1     1     2   ar
     2     1     3   ar
     3     2     6   ar
     4     3    10   ar
     5     4     5   ar
     6     4    11   ar
     7     5    12   ar
     8     6    13   ar
     9     7     9   ar
    10     7    11   ar
    11     8     9   ar
    12     8    14   ar
    13     9    12   ar
    14    10    13   ar
    15    10    17    1
    16    11    21    1
    17    12    22   ar
    18    13    23    1
    19    14    16    1
    20    14    22   ar
    21    15    18    1
    22    15    23   am
    23    15    25    2
    24    16    24   am
    25    16    26    2
    26    17    18    1
    27    18    24    1
    28    19    21    1
    29    20    23    1
    30     1    27    1
    31     2    28    1
    32     3    29    1
    33     4    30    1
    34     5    31    1
    35     6    32    1
    36     7    33    1
    37     8    34    1
    38    17    35    1
    39    17    36    1
    40    18    37    1
    41    19    38    1
    42    19    39    1
    43    19    40    1
    44    20    41    1
    45    20    42    1
    46    20    43    1
    47    21    44    1
    48    21    45    1
    49    22    46    1
    50    24    47    1
