@<TRIPOS>MOLECULE
ChEBML300223
 47 49 0 0 0
SMALL
USER_CHARGES

@<TRIPOS>ATOM
      1 C         -10.3427   -5.1744    0.4638 C.ar    1  LIG1       -0.0387
      2 C         -11.6798   -5.5304    0.6621 C.ar    1  LIG1       -0.0416
      3 C         -12.0853   -3.5143    1.9535 C.ar    1  LIG1       -0.0343
      4 C          -9.9603   -2.0182    2.1778 C.ar    1  LIG1       -0.0262
      5 C         -10.7413   -3.1346    1.7670 C.ar    1  LIG1       -0.0007
      6 C          -9.9027   -3.9717    1.0279 C.ar    1  LIG1        0.0379
      7 C         -12.5394   -4.7147    1.3952 C.ar    1  LIG1        0.0413
      8 C          -8.6864   -2.1961    1.6896 C.ar    1  LIG1        0.0945
      9 C          -7.5058   -1.3083    1.8485 C.2     1  LIG1        0.2576
     10 C          -5.0016   -0.0191    0.1748 C.2     1  LIG1        0.2316
     11 C          -2.5160   -0.4600   -2.3139 C.3     1  LIG1       -0.0320
     12 C          -2.8194    1.9961   -1.7594 C.3     1  LIG1       -0.0320
     13 C          -2.1147   -0.0813   -3.7380 C.3     1  LIG1       -0.0252
     14 C          -2.4042    2.3638   -3.1828 C.3     1  LIG1       -0.0252
     15 C          -3.4201    0.5898   -1.6605 C.3     1  LIG1        0.0252
     16 C          -1.4862    1.3084   -3.7958 C.3     1  LIG1        0.0542
     17 C          -2.5342    0.1883    0.6041 C.3     1  LIG1        0.0031
     18 C          -5.0993   -1.0019    1.3282 C.3     1  LIG1        0.0887
     19 N          -8.6614   -3.3769    0.9972 N.ar    1  LIG1       -0.3101
     20 N          -6.3286   -1.7373    1.2436 N.am    1  LIG1       -0.3013
     21 N          -3.6971    0.2451   -0.2830 N.am    1  LIG1       -0.3005
     22 O          -7.6153   -0.2762    2.5054 O.2     1  LIG1       -0.2704
     23 O          -6.0161    0.4931   -0.3059 O.2     1  LIG1       -0.2756
     24 O          -1.2262    1.6327   -5.1573 O.3     1  LIG1       -0.3931
     25 CL        -14.1815   -5.1868    1.6166 Cl      1  LIG1       -0.0843
     26 H          -9.6743   -5.8107   -0.1066 H       1  LIG1        0.0643
     27 H         -12.0392   -6.4625    0.2312 H       1  LIG1        0.0639
     28 H         -12.7545   -2.8773    2.5260 H       1  LIG1        0.0645
     29 H         -10.2984   -1.1766    2.7676 H       1  LIG1        0.0651
     30 H          -3.0091   -1.4393   -2.3230 H       1  LIG1        0.0286
     31 H          -1.6062   -0.5693   -1.7101 H       1  LIG1        0.0286
     32 H          -1.9333    2.0466   -1.1137 H       1  LIG1        0.0286
     33 H          -3.5274    2.7439   -1.3820 H       1  LIG1        0.0286
     34 H          -1.4097   -0.8215   -4.1363 H       1  LIG1        0.0294
     35 H          -2.9887   -0.1227   -4.4011 H       1  LIG1        0.0294
     36 H          -3.2937    2.4915   -3.8134 H       1  LIG1        0.0294
     37 H          -1.9012    3.3385   -3.1846 H       1  LIG1        0.0294
     38 H          -4.3941    0.5830   -2.1628 H       1  LIG1        0.0506
     39 H          -0.5262    1.2967   -3.2662 H       1  LIG1        0.0600
     40 H          -2.1132   -0.8205    0.6077 H       1  LIG1        0.0433
     41 H          -2.8244    0.4521    1.6248 H       1  LIG1        0.0433
     42 H          -1.7663    0.8890    0.2660 H       1  LIG1        0.0433
     43 H          -4.2791   -1.7229    1.2833 H       1  LIG1        0.0567
     44 H          -5.0987   -0.4700    2.2831 H       1  LIG1        0.0567
     45 H          -7.8510   -3.7599    0.5299 H       1  LIG1        0.1529
     46 H          -6.3071   -2.6392    0.7687 H       1  LIG1        0.1503
     47 H          -0.8288    2.5177   -5.1611 H       1  LIG1        0.2104
@<TRIPOS>BOND
     1     1     2   ar
     2     1     6   ar
     3     2     7   ar
     4     3     5   ar
     5     3     7   ar
     6     4     5   ar
     7     4     8   ar
     8     5     6   ar
     9     6    19   ar
    10     7    25    1
    11     8     9    1
    12     8    19   ar
    13     9    20   am
    14     9    22    2
    15    10    18    1
    16    10    21   am
    17    10    23    2
    18    11    13    1
    19    11    15    1
    20    12    14    1
    21    12    15    1
    22    13    16    1
    23    14    16    1
    24    15    21    1
    25    16    24    1
    26    17    21    1
    27    18    20    1
    28     1    26    1
    29     2    27    1
    30     3    28    1
    31     4    29    1
    32    11    30    1
    33    11    31    1
    34    12    32    1
    35    12    33    1
    36    13    34    1
    37    13    35    1
    38    14    36    1
    39    14    37    1
    40    15    38    1
    41    16    39    1
    42    17    40    1
    43    17    41    1
    44    17    42    1
    45    18    43    1
    46    18    44    1
    47    19    45    1
    48    20    46    1
    49    24    47    1
