@<TRIPOS>MOLECULE
ChEBML369951
 54 57 0 0 0
SMALL
USER_CHARGES

@<TRIPOS>ATOM
      1 C          -2.7830   -2.6084   -4.9767 C.ar    1  LIG1       -0.0622
      2 C          -1.8593   -2.5077   -3.9532 C.ar    1  LIG1       -0.0620
      3 C          -3.9698   -1.9030   -4.9084 C.ar    1  LIG1       -0.0620
      4 C          -2.1222   -1.7014   -2.8616 C.ar    1  LIG1       -0.0590
      5 C          -4.2347   -1.1000   -3.8149 C.ar    1  LIG1       -0.0590
      6 C         -10.3677   -5.1799    0.5097 C.ar    1  LIG1       -0.0383
      7 C         -11.6858   -5.5278    0.6945 C.ar    1  LIG1       -0.0377
      8 C         -12.0848   -3.5073    1.9414 C.ar    1  LIG1       -0.0304
      9 C          -9.9784   -2.0251    2.1746 C.ar    1  LIG1       -0.0261
     10 C         -10.7428   -3.1441    1.7646 C.ar    1  LIG1       -0.0003
     11 C          -3.3087   -0.9953   -2.7939 C.ar    1  LIG1       -0.0477
     12 C          -9.8802   -3.9886    1.0400 C.ar    1  LIG1        0.0379
     13 C         -12.5459   -4.6956    1.4120 C.ar    1  LIG1        0.0437
     14 C          -8.7120   -2.1968    1.7126 C.ar    1  LIG1        0.0947
     15 C          -7.5956   -1.2619    1.9179 C.2     1  LIG1        0.2598
     16 C          -4.4902   -0.0767    0.7288 C.3     1  LIG1       -0.0341
     17 C          -5.6810   -1.3741   -1.0459 C.3     1  LIG1       -0.0341
     18 C          -5.1752   -0.9091    1.8171 C.3     1  LIG1        0.0147
     19 C          -6.3787   -2.2261    0.0253 C.3     1  LIG1        0.0147
     20 C          -4.3105   -0.9338   -0.5263 C.3     1  LIG1       -0.0344
     21 C         -14.7781   -4.2204   -0.8359 C.3     1  LIG1        0.0225
     22 C          -3.5954   -0.1162   -1.6038 C.3     1  LIG1       -0.0249
     23 N          -8.6404   -3.3894    1.0199 N.ar    1  LIG1       -0.3101
     24 N          -6.4267   -1.4568    1.2761 N.am    1  LIG1       -0.2967
     25 N         -13.8839   -5.0649    1.5909 N.pl3   1  LIG1       -0.2633
     26 O          -7.7272   -0.3126    2.6671 O.2     1  LIG1       -0.2702
     27 O         -16.0479   -5.8497    0.8795 O.2     1  LIG1       -0.4814
     28 O         -13.9637   -6.6941   -0.1824 O.2     1  LIG1       -0.4814
     29 S         -14.7659   -5.6286    0.3077 S.O2    1  LIG1       -0.1957
     30 H          -2.5773   -3.2378   -5.8299 H       1  LIG1        0.0622
     31 H          -0.9320   -3.0588   -4.0066 H       1  LIG1        0.0623
     32 H          -4.6915   -1.9814   -5.7083 H       1  LIG1        0.0623
     33 H          -1.4006   -1.6228   -2.0621 H       1  LIG1        0.0625
     34 H          -5.1636   -0.5518   -3.7597 H       1  LIG1        0.0625
     35 H          -9.7105   -5.8318   -0.0467 H       1  LIG1        0.0643
     36 H         -12.0582   -6.4532    0.2808 H       1  LIG1        0.0643
     37 H         -12.7535   -2.8629    2.4926 H       1  LIG1        0.0650
     38 H         -10.3372   -1.1855    2.7514 H       1  LIG1        0.0651
     39 H          -5.1068    0.7905    0.4919 H       1  LIG1        0.0285
     40 H          -3.5152    0.2560    1.0848 H       1  LIG1        0.0285
     41 H          -6.2863   -0.4948   -1.2660 H       1  LIG1        0.0285
     42 H          -5.5535   -1.9650   -1.9529 H       1  LIG1        0.0285
     43 H          -5.3949   -0.2765    2.6771 H       1  LIG1        0.0469
     44 H          -4.5197   -1.7258    2.1195 H       1  LIG1        0.0469
     45 H          -5.8193   -3.1479    0.1845 H       1  LIG1        0.0469
     46 H          -7.3926   -2.4628   -0.2973 H       1  LIG1        0.0469
     47 H          -3.7146   -1.8135   -0.2829 H       1  LIG1        0.0307
     48 H         -15.1692   -3.3407   -0.3248 H       1  LIG1        0.0442
     49 H         -13.7622   -4.0207   -1.1770 H       1  LIG1        0.0442
     50 H         -15.4099   -4.4537   -1.6927 H       1  LIG1        0.0442
     51 H          -4.2306    0.7149   -1.9106 H       1  LIG1        0.0319
     52 H          -2.6583    0.2710   -1.2040 H       1  LIG1        0.0319
     53 H          -7.8474   -3.7464    0.5903 H       1  LIG1        0.1529
     54 H         -14.2946   -4.9908    2.4665 H       1  LIG1        0.1702
@<TRIPOS>BOND
     1     1     2   ar
     2     1     3   ar
     3     2     4   ar
     4     3     5   ar
     5     4    11   ar
     6     5    11   ar
     7     6     7   ar
     8     6    12   ar
     9     7    13   ar
    10     8    10   ar
    11     8    13   ar
    12     9    10   ar
    13     9    14   ar
    14    10    12   ar
    15    11    22    1
    16    12    23   ar
    17    13    25    1
    18    14    15    1
    19    14    23   ar
    20    15    24   am
    21    15    26    2
    22    16    18    1
    23    16    20    1
    24    17    19    1
    25    17    20    1
    26    18    24    1
    27    19    24    1
    28    20    22    1
    29    21    29    1
    30    25    29    1
    31    27    29    2
    32    28    29    2
    33     1    30    1
    34     2    31    1
    35     3    32    1
    36     4    33    1
    37     5    34    1
    38     6    35    1
    39     7    36    1
    40     8    37    1
    41     9    38    1
    42    16    39    1
    43    16    40    1
    44    17    41    1
    45    17    42    1
    46    18    43    1
    47    18    44    1
    48    19    45    1
    49    19    46    1
    50    20    47    1
    51    21    48    1
    52    21    49    1
    53    21    50    1
    54    22    51    1
    55    22    52    1
    56    23    53    1
    57    25    54    1
