@<TRIPOS>MOLECULE
ChEBML209086
 45 48 0 0 0
SMALL
USER_CHARGES

@<TRIPOS>ATOM
      1 C         -12.1953   -5.0305    1.0810 C.ar    1  LIG1       -0.0600
      2 C         -11.2625   -5.6384    0.2376 C.ar    1  LIG1       -0.0602
      3 C          -2.6606    0.5587   -3.5589 C.ar    1  LIG1       -0.0570
      4 C         -11.8686   -3.8777    1.8061 C.ar    1  LIG1       -0.0344
      5 C          -9.9725   -5.1188    0.0877 C.ar    1  LIG1       -0.0385
      6 C          -1.3889    0.1460   -3.1772 C.ar    1  LIG1       -0.0407
      7 C          -3.7188    0.4494   -2.6637 C.ar    1  LIG1       -0.0216
      8 C         -10.5769   -3.3421    1.6677 C.ar    1  LIG1        0.0864
      9 C          -9.6692   -3.9703    0.8196 C.ar    1  LIG1        0.0575
     10 C          -1.2292   -0.3649   -1.8993 C.ar    1  LIG1        0.0395
     11 C          -3.4550   -0.0752   -1.4087 C.ar    1  LIG1        0.1205
     12 C          -8.7854   -2.1861    1.7840 C.ar    1  LIG1        0.1434
     13 C          -4.1779   -0.7401    0.7843 C.3     1  LIG1        0.0523
     14 C          -5.7684   -0.6543   -1.1284 C.3     1  LIG1        0.0523
     15 C          -5.3394   -0.5770    1.7553 C.3     1  LIG1       -0.0176
     16 C          -6.9274   -0.4966   -0.1524 C.3     1  LIG1       -0.0176
     17 C           0.1222   -0.8178   -1.4564 C.3     1  LIG1       -0.0222
     18 C          -7.7374   -1.1631    2.1101 C.3     1  LIG1        0.0233
     19 N         -10.0102   -2.2357    2.2578 N.ar    1  LIG1       -0.2303
     20 N          -2.2330   -0.4866   -1.0020 N.ar    1  LIG1       -0.2383
     21 N          -8.5322   -3.2095    0.9136 N.ar    1  LIG1       -0.2969
     22 N          -4.5179   -0.1773   -0.5291 N.pl3   1  LIG1       -0.3054
     23 N          -6.5827   -1.1756    1.1481 N.4     1  LIG1        0.2537
     24 H         -13.1903   -5.4577    1.1760 H       1  LIG1        0.0623
     25 H         -11.5433   -6.5335   -0.3122 H       1  LIG1        0.0623
     26 H          -2.8264    0.9658   -4.5520 H       1  LIG1        0.0624
     27 H         -12.6012   -3.4125    2.4579 H       1  LIG1        0.0646
     28 H          -9.2476   -5.5887   -0.5672 H       1  LIG1        0.0643
     29 H          -0.5550    0.2262   -3.8664 H       1  LIG1        0.0642
     30 H          -4.7143    0.7701   -2.9533 H       1  LIG1        0.0659
     31 H          -3.2999   -0.2296    1.1992 H       1  LIG1        0.0524
     32 H          -3.9230   -1.8027    0.6782 H       1  LIG1        0.0524
     33 H          -5.6638   -1.7083   -1.4178 H       1  LIG1        0.0524
     34 H          -5.9959   -0.0835   -2.0372 H       1  LIG1        0.0524
     35 H          -5.1383   -1.1061    2.6924 H       1  LIG1        0.0831
     36 H          -5.5490    0.4781    1.9662 H       1  LIG1        0.0831
     37 H          -7.1317    0.5573    0.0692 H       1  LIG1        0.0831
     38 H          -7.8323   -0.9711   -0.5461 H       1  LIG1        0.0831
     39 H           0.6681    0.0114   -0.9908 H       1  LIG1        0.0296
     40 H           0.0486   -1.6378   -0.7310 H       1  LIG1        0.0296
     41 H           0.7124   -1.1929   -2.3022 H       1  LIG1        0.0296
     42 H          -8.1530   -0.1500    2.0893 H       1  LIG1        0.0899
     43 H          -7.3175   -1.3312    3.1077 H       1  LIG1        0.0899
     44 H          -7.6631   -3.3777    0.4243 H       1  LIG1        0.1542
     45 H          -6.3837   -2.1641    0.9404 H       1  LIG1        0.2009
@<TRIPOS>BOND
     1     1     2   ar
     2     1     4   ar
     3     2     5   ar
     4     3     6   ar
     5     3     7   ar
     6     4     8   ar
     7     5     9   ar
     8     6    10   ar
     9     7    11   ar
    10     8     9   ar
    11     8    19   ar
    12     9    21   ar
    13    10    17    1
    14    10    20   ar
    15    11    20   ar
    16    11    22    1
    17    12    18    1
    18    12    19   ar
    19    12    21   ar
    20    13    15    1
    21    13    22    1
    22    14    16    1
    23    14    22    1
    24    15    23    1
    25    16    23    1
    26    18    23    1
    27     1    24    1
    28     2    25    1
    29     3    26    1
    30     4    27    1
    31     5    28    1
    32     6    29    1
    33     7    30    1
    34    13    31    1
    35    13    32    1
    36    14    33    1
    37    14    34    1
    38    15    35    1
    39    15    36    1
    40    16    37    1
    41    16    38    1
    42    17    39    1
    43    17    40    1
    44    17    41    1
    45    18    42    1
    46    18    43    1
    47    21    44    1
    48    23    45    1
