@<TRIPOS>MOLECULE
ChEBML406362
 44 46 0 0 0
SMALL
USER_CHARGES

@<TRIPOS>ATOM
      1 C          -2.6388    1.5855   -2.7570 C.ar    1  LIG1       -0.0589
      2 C          -8.1267   -3.4059    1.4123 C.ar    1  LIG1       -0.0494
      3 C          -9.1350   -4.3044    1.1317 C.ar    1  LIG1       -0.0583
      4 C          -3.2372    1.0251   -1.6459 C.ar    1  LIG1       -0.0408
      5 C          -2.1639    0.7749   -3.7718 C.ar    1  LIG1       -0.0434
      6 C          -9.7536   -1.6244    1.4943 C.ar    1  LIG1       -0.0465
      7 C          -2.8794   -1.1676   -2.5649 C.ar    1  LIG1       -0.0222
      8 C          -8.4304   -2.0558    1.5961 C.ar    1  LIG1        0.0375
      9 C         -10.4450   -3.8700    1.0322 C.ar    1  LIG1       -0.0481
     10 C         -10.7521   -2.5326    1.2079 C.ar    1  LIG1       -0.0474
     11 C          -3.3620   -0.3552   -1.5473 C.ar    1  LIG1        0.0301
     12 C          -2.2863   -0.6003   -3.6772 C.ar    1  LIG1        0.0424
     13 C          -7.3548   -1.0873    1.8976 C.2     1  LIG1        0.2456
     14 C          -4.3614    0.1852    0.4505 C.3     1  LIG1        0.0274
     15 C          -5.1965   -1.5743   -0.8914 C.3     1  LIG1        0.0274
     16 C          -5.0133   -0.3695    1.7211 C.3     1  LIG1        0.0302
     17 C          -5.9020   -2.2492    0.2950 C.3     1  LIG1        0.0302
     18 C         -11.5414   -4.8573    0.7248 C.3     1  LIG1       -0.0395
     19 C         -12.1808   -2.0677    1.0920 C.3     1  LIG1       -0.0395
     20 N          -3.9666   -0.9248   -0.4243 N.pl3   1  LIG1       -0.3276
     21 N          -6.1419   -1.2280    1.3272 N.am    1  LIG1       -0.2947
     22 O          -7.5644   -0.1640    2.6599 O.2     1  LIG1       -0.2716
     23 CL         -1.6893   -1.6140   -4.9539 Cl      1  LIG1       -0.0842
     24 H          -2.5417    2.6584   -2.8338 H       1  LIG1        0.0624
     25 H          -7.1047   -3.7462    1.4902 H       1  LIG1        0.0631
     26 H          -8.9015   -5.3493    0.9897 H       1  LIG1        0.0626
     27 H          -3.6084    1.6591   -0.8544 H       1  LIG1        0.0642
     28 H          -1.6969    1.2159   -4.6400 H       1  LIG1        0.0638
     29 H          -9.9951   -0.5812    1.6354 H       1  LIG1        0.0634
     30 H          -2.9709   -2.2411   -2.4891 H       1  LIG1        0.0658
     31 H          -5.0722    0.8247   -0.0727 H       1  LIG1        0.0485
     32 H          -3.4797    0.7670    0.7191 H       1  LIG1        0.0485
     33 H          -5.8565   -0.8274   -1.3328 H       1  LIG1        0.0485
     34 H          -4.9481   -2.3265   -1.6402 H       1  LIG1        0.0485
     35 H          -5.3756    0.4535    2.3371 H       1  LIG1        0.0486
     36 H          -4.2847   -0.9552    2.2818 H       1  LIG1        0.0486
     37 H          -5.2703   -3.0396    0.7004 H       1  LIG1        0.0486
     38 H          -6.8525   -2.6702   -0.0328 H       1  LIG1        0.0486
     39 H         -11.6707   -4.9321   -0.3549 H       1  LIG1        0.0280
     40 H         -11.2739   -5.8343    1.1273 H       1  LIG1        0.0280
     41 H         -12.4726   -4.5194    1.1797 H       1  LIG1        0.0280
     42 H         -12.6600   -2.1186    2.0697 H       1  LIG1        0.0280
     43 H         -12.2001   -1.0394    0.7311 H       1  LIG1        0.0280
     44 H         -12.7158   -2.7088    0.3913 H       1  LIG1        0.0280
@<TRIPOS>BOND
     1     1     4   ar
     2     1     5   ar
     3     2     3   ar
     4     2     8   ar
     5     3     9   ar
     6     4    11   ar
     7     5    12   ar
     8     6     8   ar
     9     6    10   ar
    10     7    11   ar
    11     7    12   ar
    12     8    13    1
    13     9    10   ar
    14     9    18    1
    15    10    19    1
    16    11    20    1
    17    12    23    1
    18    13    21   am
    19    13    22    2
    20    14    16    1
    21    14    20    1
    22    15    17    1
    23    15    20    1
    24    16    21    1
    25    17    21    1
    26     1    24    1
    27     2    25    1
    28     3    26    1
    29     4    27    1
    30     5    28    1
    31     6    29    1
    32     7    30    1
    33    14    31    1
    34    14    32    1
    35    15    33    1
    36    15    34    1
    37    16    35    1
    38    16    36    1
    39    17    37    1
    40    17    38    1
    41    18    39    1
    42    18    40    1
    43    18    41    1
    44    19    42    1
    45    19    43    1
    46    19    44    1
