@<TRIPOS>MOLECULE
ChEBML208411
 45 48 0 0 0
SMALL
USER_CHARGES

@<TRIPOS>ATOM
      1 C         -12.4382   -4.5556    1.1224 C.ar    1  LIG1       -0.0600
      2 C         -11.5221   -5.4643    0.5880 C.ar    1  LIG1       -0.0602
      3 C          -1.0249   -3.1028   -1.5403 C.ar    1  LIG1       -0.0599
      4 C          -0.5968   -2.2391   -2.5484 C.ar    1  LIG1       -0.0553
      5 C         -12.0146   -3.3276    1.6462 C.ar    1  LIG1       -0.0344
      6 C         -10.1525   -5.1809    0.5568 C.ar    1  LIG1       -0.0385
      7 C          -2.1885   -2.8183   -0.8256 C.ar    1  LIG1       -0.0339
      8 C          -1.3323   -1.0908   -2.8419 C.ar    1  LIG1        0.0172
      9 C         -10.6424   -3.0265    1.6232 C.ar    1  LIG1        0.0864
     10 C          -9.7536   -3.9523    1.0839 C.ar    1  LIG1        0.0575
     11 C          -2.9241   -1.6700   -1.1190 C.ar    1  LIG1        0.1072
     12 C          -2.4959   -0.8062   -2.1271 C.ar    1  LIG1        0.2840
     13 C          -8.7079   -2.1412    1.8059 C.ar    1  LIG1        0.1434
     14 C          -3.8731   -1.2594    1.0500 C.3     1  LIG1        0.0511
     15 C          -5.2460   -2.1944   -0.8037 C.3     1  LIG1        0.0511
     16 C          -5.1360   -0.7303    1.7162 C.3     1  LIG1       -0.0177
     17 C          -6.5069   -1.6674   -0.1304 C.3     1  LIG1       -0.0177
     18 C          -7.5501   -1.2310    2.0923 C.3     1  LIG1        0.0233
     19 N          -9.9746   -1.9080    2.0663 N.ar    1  LIG1       -0.2303
     20 N          -8.5237   -3.3597    1.2139 N.ar    1  LIG1       -0.2969
     21 N          -4.0753   -1.4107   -0.3970 N.pl3   1  LIG1       -0.3148
     22 N          -3.2272    0.3720   -2.4473 N.pl3   1  LIG1        0.1043
     23 N          -6.2970   -1.6241    1.3613 N.4     1  LIG1        0.2537
     24 O          -2.8033    1.1173   -3.3612 O.2     1  LIG1        0.0314
     25 O          -4.2730    0.6278   -1.8057 O.2     1  LIG1       -0.5802
     26 H         -13.4965   -4.8044    1.1320 H       1  LIG1        0.0623
     27 H         -11.8791   -6.4109    0.1895 H       1  LIG1        0.0623
     28 H          -0.4521   -3.9968   -1.3117 H       1  LIG1        0.0623
     29 H           0.3094   -2.4606   -3.1046 H       1  LIG1        0.0625
     30 H         -12.7350   -2.6283    2.0583 H       1  LIG1        0.0646
     31 H          -9.4402   -5.8846    0.1414 H       1  LIG1        0.0643
     32 H          -2.5124   -3.4992   -0.0426 H       1  LIG1        0.0645
     33 H          -0.9860   -0.4270   -3.6300 H       1  LIG1        0.0695
     34 H          -3.0529   -0.5578    1.2465 H       1  LIG1        0.0524
     35 H          -3.5935   -2.2262    1.4888 H       1  LIG1        0.0524
     36 H          -5.0958   -3.2502   -0.5425 H       1  LIG1        0.0524
     37 H          -5.3807   -2.1394   -1.8911 H       1  LIG1        0.0524
     38 H          -5.0313   -0.7371    2.8059 H       1  LIG1        0.0831
     39 H          -5.3820    0.2825    1.3765 H       1  LIG1        0.0831
     40 H          -6.7488   -0.6503   -0.4597 H       1  LIG1        0.0831
     41 H          -7.3566   -2.3292   -0.3280 H       1  LIG1        0.0831
     42 H          -7.7750   -0.2000    1.7988 H       1  LIG1        0.0899
     43 H          -7.3038   -1.2280    3.1596 H       1  LIG1        0.0899
     44 H          -7.6399   -3.7557    0.9221 H       1  LIG1        0.1542
     45 H          -6.0629   -2.5775    1.6709 H       1  LIG1        0.2009
@<TRIPOS>BOND
     1     1     2   ar
     2     1     5   ar
     3     2     6   ar
     4     3     4   ar
     5     3     7   ar
     6     4     8   ar
     7     5     9   ar
     8     6    10   ar
     9     7    11   ar
    10     8    12   ar
    11     9    10   ar
    12     9    19   ar
    13    10    20   ar
    14    11    12   ar
    15    11    21    1
    16    12    22    1
    17    13    18    1
    18    13    19   ar
    19    13    20   ar
    20    14    16    1
    21    14    21    1
    22    15    17    1
    23    15    21    1
    24    16    23    1
    25    17    23    1
    26    18    23    1
    27    22    24    2
    28    22    25    2
    29     1    26    1
    30     2    27    1
    31     3    28    1
    32     4    29    1
    33     5    30    1
    34     6    31    1
    35     7    32    1
    36     8    33    1
    37    14    34    1
    38    14    35    1
    39    15    36    1
    40    15    37    1
    41    16    38    1
    42    16    39    1
    43    17    40    1
    44    17    41    1
    45    18    42    1
    46    18    43    1
    47    20    44    1
    48    23    45    1
