@<TRIPOS>MOLECULE
ChEBML300295
 42 44 0 0 0
SMALL
USER_CHARGES

@<TRIPOS>ATOM
      1 C          -1.6789   -0.4937   -2.9572 C.ar    1  LIG1       -0.0589
      2 C          -2.6550   -0.3088   -3.9300 C.ar    1  LIG1       -0.0438
      3 C         -10.0058   -5.1730    0.3433 C.ar    1  LIG1       -0.0387
      4 C         -11.3409   -5.5854    0.3027 C.ar    1  LIG1       -0.0416
      5 C          -1.8348    0.0889   -1.7043 C.ar    1  LIG1       -0.0389
      6 C         -12.0424   -3.6333    1.5655 C.ar    1  LIG1       -0.0343
      7 C         -10.0506   -2.0685    2.1885 C.ar    1  LIG1       -0.0262
      8 C          -3.7594    0.4611   -3.6025 C.ar    1  LIG1        0.0272
      9 C         -10.7035   -3.1976    1.6195 C.ar    1  LIG1       -0.0007
     10 C          -9.7181   -3.9759    1.0083 C.ar    1  LIG1        0.0379
     11 C         -12.3450   -4.8289    0.9038 C.ar    1  LIG1        0.0413
     12 C          -8.7064   -2.1813    1.9172 C.ar    1  LIG1        0.0945
     13 C          -2.9758    0.8412   -1.4765 C.ar    1  LIG1        0.0577
     14 C          -7.6080   -1.2566    2.2988 C.2     1  LIG1        0.2576
     15 C          -4.9163    0.1839    1.1098 C.2     1  LIG1        0.2317
     16 C          -2.4804   -0.0778    1.6389 C.3     1  LIG1        0.0032
     17 C          -3.1770    1.4849   -0.1352 C.3     1  LIG1        0.0562
     18 C          -5.1637   -0.8426    2.2010 C.3     1  LIG1        0.0887
     19 N          -3.9457    1.0429   -2.3965 N.ar    1  LIG1       -0.2596
     20 N          -8.5157   -3.3348    1.2047 N.ar    1  LIG1       -0.3101
     21 N          -6.3290   -1.6196    1.8889 N.am    1  LIG1       -0.3013
     22 N          -3.5772    0.5180    0.8795 N.am    1  LIG1       -0.2976
     23 O          -7.8699   -0.2535    2.9576 O.2     1  LIG1       -0.2704
     24 O          -5.8569    0.6751    0.4801 O.2     1  LIG1       -0.2756
     25 CL        -13.9795   -5.3693    0.8312 Cl      1  LIG1       -0.0843
     26 H          -0.7984   -1.0905   -3.1752 H       1  LIG1        0.0624
     27 H          -2.5545   -0.7534   -4.9135 H       1  LIG1        0.0639
     28 H          -9.2248   -5.7633   -0.1246 H       1  LIG1        0.0643
     29 H         -11.5831   -6.5140   -0.2097 H       1  LIG1        0.0639
     30 H          -1.0806   -0.0477   -0.9368 H       1  LIG1        0.0642
     31 H         -12.8245   -3.0426    2.0352 H       1  LIG1        0.0645
     32 H         -10.5182   -1.2616    2.7372 H       1  LIG1        0.0651
     33 H          -4.5490    0.6354   -4.3260 H       1  LIG1        0.0839
     34 H          -2.1292   -0.9859    1.1420 H       1  LIG1        0.0433
     35 H          -2.8152   -0.3355    2.6473 H       1  LIG1        0.0433
     36 H          -1.6474    0.6262    1.7153 H       1  LIG1        0.0433
     37 H          -2.2538    1.9672    0.2039 H       1  LIG1        0.0536
     38 H          -3.9499    2.2592   -0.1829 H       1  LIG1        0.0536
     39 H          -4.3175   -1.5306    2.2741 H       1  LIG1        0.0567
     40 H          -5.3457   -0.3457    3.1574 H       1  LIG1        0.0567
     41 H          -7.6230   -3.6704    0.8700 H       1  LIG1        0.1529
     42 H          -6.1900   -2.5025    1.3983 H       1  LIG1        0.1503
@<TRIPOS>BOND
     1     1     2   ar
     2     1     5   ar
     3     2     8   ar
     4     3     4   ar
     5     3    10   ar
     6     4    11   ar
     7     5    13   ar
     8     6     9   ar
     9     6    11   ar
    10     7     9   ar
    11     7    12   ar
    12     8    19   ar
    13     9    10   ar
    14    10    20   ar
    15    11    25    1
    16    12    14    1
    17    12    20   ar
    18    13    17    1
    19    13    19   ar
    20    14    21   am
    21    14    23    2
    22    15    18    1
    23    15    22   am
    24    15    24    2
    25    16    22    1
    26    17    22    1
    27    18    21    1
    28     1    26    1
    29     2    27    1
    30     3    28    1
    31     4    29    1
    32     5    30    1
    33     6    31    1
    34     7    32    1
    35     8    33    1
    36    16    34    1
    37    16    35    1
    38    16    36    1
    39    17    37    1
    40    17    38    1
    41    18    39    1
    42    18    40    1
    43    20    41    1
    44    21    42    1
