@<TRIPOS>MOLECULE
ChEBML1074810
 46 50 0 0 0
SMALL
USER_CHARGES

@<TRIPOS>ATOM
      1 C          -1.9714    1.7857   -3.1838 C.ar    1  LIG1       -0.0621
      2 C          -1.1559    0.6545   -3.2145 C.ar    1  LIG1       -0.0605
      3 C          -3.3422    1.6514   -2.9639 C.ar    1  LIG1       -0.0605
      4 C         -12.0815   -3.4153    1.4631 C.ar    1  LIG1       -0.0528
      5 C         -12.4505   -4.7290    1.1516 C.ar    1  LIG1       -0.0586
      6 C          -3.6666   -0.7391    0.4355 C.ar    1  LIG1       -0.0742
      7 C          -4.2720    0.1070    1.3704 C.ar    1  LIG1       -0.0398
      8 C          -1.7111   -0.6109   -3.0252 C.ar    1  LIG1       -0.0425
      9 C          -3.8975    0.3859   -2.7746 C.ar    1  LIG1       -0.0425
     10 C          -5.6597   -2.1289    0.3002 C.ar    1  LIG1       -0.0647
     11 C          -9.9974   -1.8796    1.7823 C.ar    1  LIG1       -0.0293
     12 C         -10.1220   -5.3866    0.9276 C.ar    1  LIG1       -0.0372
     13 C         -10.7142   -3.0779    1.5085 C.ar    1  LIG1       -0.0023
     14 C          -6.2815   -1.2882    1.2384 C.ar    1  LIG1        0.0253
     15 C         -11.4842   -5.6979    0.8884 C.ar    1  LIG1       -0.0492
     16 C          -4.3468   -1.8385   -0.0918 C.ar    1  LIG1       -0.1253
     17 C          -5.5813   -0.2002    1.7474 C.ar    1  LIG1        0.0569
     18 C          -9.7679   -4.0693    1.2403 C.ar    1  LIG1        0.0380
     19 C          -3.0820   -0.7453   -2.8053 C.ar    1  LIG1        0.0222
     20 C          -7.5388   -1.2246    1.8766 C.ar    1  LIG1        0.1115
     21 C          -8.6548   -2.1614    1.6772 C.ar    1  LIG1        0.0593
     22 C         -11.9081   -7.0912    0.5592 C.3     1  LIG1       -0.0397
     23 N          -7.6415   -0.1934    2.7180 N.ar    1  LIG1       -0.1816
     24 N          -3.7321   -2.6329   -0.9903 N.pl3   1  LIG1       -0.5954
     25 N          -8.5264   -3.4846    1.3497 N.ar    1  LIG1       -0.3126
     26 N          -6.4440    0.4077    2.6192 N.ar    1  LIG1       -0.2373
     27 O          -5.1454   -2.2193   -3.1107 O.2     1  LIG1       -0.5091
     28 O          -2.9233   -3.2302   -3.3686 O.2     1  LIG1       -0.5091
     29 S          -3.8000   -2.3818   -2.5641 S.O2    1  LIG1       -0.2964
     30 H          -1.5397    2.7713   -3.3319 H       1  LIG1        0.0622
     31 H          -0.0886    0.7585   -3.3868 H       1  LIG1        0.0623
     32 H          -3.9769    2.5322   -2.9408 H       1  LIG1        0.0623
     33 H         -12.8452   -2.6700    1.6660 H       1  LIG1        0.0630
     34 H         -13.5068   -4.9857    1.1176 H       1  LIG1        0.0625
     35 H          -2.6458   -0.5191    0.1266 H       1  LIG1        0.0611
     36 H          -3.7460    0.9620    1.7805 H       1  LIG1        0.0643
     37 H          -1.0668   -1.4858   -3.0520 H       1  LIG1        0.0641
     38 H          -4.9668    0.2928   -2.6054 H       1  LIG1        0.0641
     39 H          -6.1926   -2.9853   -0.1060 H       1  LIG1        0.0618
     40 H         -10.4254   -0.9168    2.0294 H       1  LIG1        0.0650
     41 H          -9.3640   -6.1363    0.7237 H       1  LIG1        0.0645
     42 H         -12.0430   -7.2018   -0.5232 H       1  LIG1        0.0280
     43 H         -11.1622   -7.8226    0.8947 H       1  LIG1        0.0280
     44 H         -12.8519   -7.3469    1.0570 H       1  LIG1        0.0280
     45 H          -7.6491   -3.9663    1.2083 H       1  LIG1        0.1528
     46 H          -6.2778    1.2363    3.1766 H       1  LIG1        0.1755
@<TRIPOS>BOND
     1     1     2   ar
     2     1     3   ar
     3     2     8   ar
     4     3     9   ar
     5     4     5   ar
     6     4    13   ar
     7     5    15   ar
     8     6     7   ar
     9     6    16   ar
    10     7    17   ar
    11     8    19   ar
    12     9    19   ar
    13    10    14   ar
    14    10    16   ar
    15    11    13   ar
    16    11    21   ar
    17    12    15   ar
    18    12    18   ar
    19    13    18   ar
    20    14    17   ar
    21    14    20   ar
    22    15    22    1
    23    16    24    1
    24    17    26   ar
    25    18    25   ar
    26    19    29    1
    27    20    21    1
    28    20    23   ar
    29    21    25   ar
    30    23    26   ar
    31    24    29    1
    32    27    29    2
    33    28    29    2
    34     1    30    1
    35     2    31    1
    36     3    32    1
    37     4    33    1
    38     5    34    1
    39     6    35    1
    40     7    36    1
    41     8    37    1
    42     9    38    1
    43    10    39    1
    44    11    40    1
    45    12    41    1
    46    22    42    1
    47    22    43    1
    48    22    44    1
    49    25    45    1
    50    26    46    1
