@<TRIPOS>MOLECULE
ChEBML198853
 54 56 0 0 0
SMALL
USER_CHARGES

@<TRIPOS>ATOM
      1 C          -2.2250    0.9423   -3.4710 C.ar    1  LIG1       -0.0434
      2 C          -1.9720   -0.4017   -3.2200 C.ar    1  LIG1       -0.0540
      3 C         -11.6361   -5.3543    0.8038 C.ar    1  LIG1       -0.0569
      4 C         -11.9818   -2.9667    0.9345 C.ar    1  LIG1       -0.0569
      5 C         -10.2698   -5.1680    1.0143 C.ar    1  LIG1       -0.0404
      6 C         -10.6155   -2.7804    1.1450 C.ar    1  LIG1       -0.0404
      7 C          -3.3164    1.5244   -2.8468 C.ar    1  LIG1        0.0291
      8 C         -12.4921   -4.2536    0.7639 C.ar    1  LIG1       -0.0453
      9 C          -2.8064   -1.1123   -2.3644 C.ar    1  LIG1       -0.0079
     10 C          -9.7596   -3.8811    1.1850 C.ar    1  LIG1        0.0340
     11 C          -3.8717   -0.4382   -1.7895 C.ar    1  LIG1        0.1232
     12 C          -7.8714   -2.4264    1.6420 C.2     1  LIG1        0.3050
     13 C          -4.8326   -0.6853    0.4437 C.3     1  LIG1        0.0288
     14 C          -5.7843   -1.9243   -1.5251 C.3     1  LIG1        0.0288
     15 C          -6.2998   -0.6743    0.8673 C.3     1  LIG1        0.0315
     16 C          -6.4740   -2.7717   -0.4548 C.3     1  LIG1        0.0315
     17 C          -1.8812   -2.7783   -0.7349 C.3     1  LIG1       -0.0612
     18 C         -14.4454   -3.7839   -0.7584 C.3     1  LIG1       -0.0587
     19 C         -14.8033   -3.9722    1.7300 C.3     1  LIG1       -0.0587
     20 C          -2.5316   -2.5533   -2.0977 C.3     1  LIG1       -0.0273
     21 C         -13.9529   -4.4529    0.5389 C.3     1  LIG1       -0.0219
     22 N          -4.1493    0.8665   -2.0094 N.ar    1  LIG1       -0.2411
     23 N          -4.6963   -1.1349   -0.9444 N.pl3   1  LIG1       -0.3125
     24 N          -6.9180   -1.9883    0.7035 N.am    1  LIG1       -0.2824
     25 N          -8.3887   -3.6938    1.3963 N.am    1  LIG1       -0.2691
     26 O          -8.2163   -1.7438    2.6121 O.2     1  LIG1       -0.2537
     27 H          -1.5877    1.5160   -4.1341 H       1  LIG1        0.0639
     28 H          -1.1232   -0.8855   -3.6954 H       1  LIG1        0.0627
     29 H         -12.0248   -6.3604    0.6696 H       1  LIG1        0.0626
     30 H         -12.6415   -2.1034    0.9042 H       1  LIG1        0.0626
     31 H          -9.6121   -6.0330    1.0440 H       1  LIG1        0.0642
     32 H         -10.2283   -1.7730    1.2757 H       1  LIG1        0.0642
     33 H          -3.5579    2.5697   -3.0099 H       1  LIG1        0.0840
     34 H          -4.4157    0.3210    0.5746 H       1  LIG1        0.0485
     35 H          -4.2600   -1.3639    1.0871 H       1  LIG1        0.0485
     36 H          -5.3963   -2.5835   -2.3108 H       1  LIG1        0.0485
     37 H          -6.5151   -1.2489   -1.9882 H       1  LIG1        0.0485
     38 H          -6.3842   -0.3442    1.9080 H       1  LIG1        0.0486
     39 H          -6.8746    0.0291    0.2525 H       1  LIG1        0.0486
     40 H          -7.3336   -3.2831   -0.9006 H       1  LIG1        0.0486
     41 H          -5.7857   -3.5362   -0.0747 H       1  LIG1        0.0486
     42 H          -0.9496   -2.2092   -0.6457 H       1  LIG1        0.0234
     43 H          -1.6471   -3.8371   -0.5871 H       1  LIG1        0.0234
     44 H          -2.5472   -2.4618    0.0749 H       1  LIG1        0.0234
     45 H         -14.2723   -2.7023   -0.7451 H       1  LIG1        0.0236
     46 H         -15.5180   -3.9469   -0.9109 H       1  LIG1        0.0236
     47 H         -13.9171   -4.1958   -1.6255 H       1  LIG1        0.0236
     48 H         -14.6420   -2.9032    1.9082 H       1  LIG1        0.0236
     49 H         -14.5440   -4.5082    2.6495 H       1  LIG1        0.0236
     50 H         -15.8731   -4.1228    1.5483 H       1  LIG1        0.0236
     51 H          -3.4634   -3.1391   -2.1524 H       1  LIG1        0.0314
     52 H          -1.8789   -2.9717   -2.8810 H       1  LIG1        0.0314
     53 H         -14.1714   -5.5320    0.4260 H       1  LIG1        0.0346
     54 H          -7.8102   -4.5256    1.4169 H       1  LIG1        0.1573
@<TRIPOS>BOND
     1     1     2   ar
     2     1     7   ar
     3     2     9   ar
     4     3     5   ar
     5     3     8   ar
     6     4     6   ar
     7     4     8   ar
     8     5    10   ar
     9     6    10   ar
    10     7    22   ar
    11     8    21    1
    12     9    11   ar
    13     9    20    1
    14    10    25    1
    15    11    22   ar
    16    11    23    1
    17    12    24   am
    18    12    25   am
    19    12    26    2
    20    13    15    1
    21    13    23    1
    22    14    16    1
    23    14    23    1
    24    15    24    1
    25    16    24    1
    26    17    20    1
    27    18    21    1
    28    19    21    1
    29     1    27    1
    30     2    28    1
    31     3    29    1
    32     4    30    1
    33     5    31    1
    34     6    32    1
    35     7    33    1
    36    13    34    1
    37    13    35    1
    38    14    36    1
    39    14    37    1
    40    15    38    1
    41    15    39    1
    42    16    40    1
    43    16    41    1
    44    17    42    1
    45    17    43    1
    46    17    44    1
    47    18    45    1
    48    18    46    1
    49    18    47    1
    50    19    48    1
    51    19    49    1
    52    19    50    1
    53    20    51    1
    54    20    52    1
    55    21    53    1
    56    25    54    1
