@<TRIPOS>MOLECULE
ChEBML111968
 42 45 0 0 0
SMALL
USER_CHARGES

@<TRIPOS>ATOM
      1 C         -12.3395   -4.3504    2.0787 C.ar    1  LIG1       -0.0600
      2 C         -11.5975   -5.3962    1.5249 C.ar    1  LIG1       -0.0602
      3 C          -2.5290   -0.5943   -1.5688 C.ar    1  LIG1       -0.0523
      4 C          -3.4736    1.4919   -2.3383 C.ar    1  LIG1       -0.0523
      5 C         -11.7897   -3.0697    2.2163 C.ar    1  LIG1       -0.0344
      6 C         -10.2826   -5.2020    1.0892 C.ar    1  LIG1       -0.0385
      7 C          -2.0499   -0.8513   -2.8533 C.ar    1  LIG1       -0.0430
      8 C          -2.9945    1.2351   -3.6229 C.ar    1  LIG1       -0.0430
      9 C          -3.2408    0.5772   -1.3112 C.ar    1  LIG1       -0.0041
     10 C         -10.4697   -2.8567    1.7841 C.ar    1  LIG1        0.0866
     11 C          -9.7556   -3.9185    1.2362 C.ar    1  LIG1        0.0576
     12 C          -2.2827    0.0634   -3.8804 C.ar    1  LIG1        0.0406
     13 C          -8.5514   -2.0632    1.2846 C.ar    1  LIG1        0.1257
     14 C          -6.6283   -1.7012    0.0025 C.2     1  LIG1       -0.0338
     15 C          -7.3788   -1.3109    1.0501 C.2     1  LIG1       -0.0011
     16 C          -5.3564   -1.0133   -0.3876 C.3     1  LIG1       -0.0144
     17 C          -6.9624   -0.1333    1.9036 C.3     1  LIG1        0.0150
     18 C          -5.4833    0.2293    1.7675 C.3     1  LIG1       -0.0294
     19 C          -3.7549    0.8547    0.0706 C.3     1  LIG1       -0.0079
     20 N          -9.7056   -1.7125    1.8058 N.ar    1  LIG1       -0.2312
     21 N          -8.5322   -3.3823    0.9257 N.ar    1  LIG1       -0.2976
     22 N          -5.1371    0.3160    0.3034 N.4     1  LIG1        0.2524
     23 CL         -1.6914   -0.2536   -5.4649 Cl      1  LIG1       -0.0843
     24 H         -13.3594   -4.5325    2.4075 H       1  LIG1        0.0623
     25 H         -12.0505   -6.3800    1.4292 H       1  LIG1        0.0623
     26 H          -2.3437   -1.3121   -0.7740 H       1  LIG1        0.0628
     27 H          -4.0271    2.4073   -2.1459 H       1  LIG1        0.0628
     28 H         -12.3749   -2.2641    2.6483 H       1  LIG1        0.0646
     29 H          -9.7053   -6.0125    0.6598 H       1  LIG1        0.0643
     30 H          -1.4965   -1.7682   -3.0391 H       1  LIG1        0.0638
     31 H          -3.1835    1.9570   -4.4132 H       1  LIG1        0.0638
     32 H          -6.9192   -2.5531   -0.6086 H       1  LIG1        0.0635
     33 H          -4.5008   -1.6557   -0.1500 H       1  LIG1        0.0863
     34 H          -5.3578   -0.8020   -1.4621 H       1  LIG1        0.0863
     35 H          -7.5815    0.7309    1.6310 H       1  LIG1        0.0371
     36 H          -7.1668   -0.3518    2.9589 H       1  LIG1        0.0371
     37 H          -5.2824    1.2066    2.2187 H       1  LIG1        0.0818
     38 H          -4.8294   -0.5249    2.2208 H       1  LIG1        0.0818
     39 H          -3.1092    0.4032    0.8314 H       1  LIG1        0.0869
     40 H          -3.7996    1.9313    0.2672 H       1  LIG1        0.0869
     41 H          -7.7587   -3.8814    0.5055 H       1  LIG1        0.1544
     42 H          -5.7894    0.9900   -0.1211 H       1  LIG1        0.2011
@<TRIPOS>BOND
     1     1     2   ar
     2     1     5   ar
     3     2     6   ar
     4     3     7   ar
     5     3     9   ar
     6     4     8   ar
     7     4     9   ar
     8     5    10   ar
     9     6    11   ar
    10     7    12   ar
    11     8    12   ar
    12     9    19    1
    13    10    11   ar
    14    10    20   ar
    15    11    21   ar
    16    12    23    1
    17    13    15    1
    18    13    20   ar
    19    13    21   ar
    20    14    15    2
    21    14    16    1
    22    15    17    1
    23    16    22    1
    24    17    18    1
    25    18    22    1
    26    19    22    1
    27     1    24    1
    28     2    25    1
    29     3    26    1
    30     4    27    1
    31     5    28    1
    32     6    29    1
    33     7    30    1
    34     8    31    1
    35    14    32    1
    36    16    33    1
    37    16    34    1
    38    17    35    1
    39    17    36    1
    40    18    37    1
    41    18    38    1
    42    19    39    1
    43    19    40    1
    44    21    41    1
    45    22    42    1
