@<TRIPOS>MOLECULE
ChEBML969044
 43 47 0 0 0
SMALL
USER_CHARGES

@<TRIPOS>ATOM
      1 C          -2.1804    0.4396   -3.8877 C.ar    1  LIG1       -0.0359
      2 C         -10.2132   -4.9536    0.0095 C.ar    1  LIG1       -0.0390
      3 C         -11.5105   -5.4280    0.2227 C.ar    1  LIG1       -0.0461
      4 C          -1.6459    0.2422   -2.5921 C.ar    1  LIG1       -0.0238
      5 C         -11.9173   -3.7257    1.9052 C.ar    1  LIG1       -0.0366
      6 C          -3.5257    0.6685   -3.7151 C.ar    1  LIG1        0.0462
      7 C          -9.2224   -0.3919    3.5137 C.ar    1  LIG1        0.1180
      8 C         -10.6129   -3.2292    1.7079 C.ar    1  LIG1        0.0247
      9 C          -9.8580   -2.1636    2.2734 C.ar    1  LIG1        0.0988
     10 C          -9.7917   -3.8536    0.7656 C.ar    1  LIG1        0.0401
     11 C          -8.6055   -2.1608    1.6701 C.ar    1  LIG1        0.0981
     12 C         -12.3511   -4.8251    1.1557 C.ar    1  LIG1        0.0183
     13 C          -2.7026    0.3648   -1.7201 C.ar    1  LIG1        0.1439
     14 C          -7.6577   -1.2202    2.0336 C.ar    1  LIG1        0.1457
     15 C          -2.7735    0.2653   -0.2910 C.2     1  LIG1        0.2694
     16 C          -6.3338   -1.0096   -0.0006 C.3     1  LIG1        0.0288
     17 C          -5.2537   -0.8395    2.2637 C.3     1  LIG1        0.0288
     18 C          -4.8860   -1.1212   -0.4788 C.3     1  LIG1        0.0304
     19 C          -4.4147    0.2239    1.5593 C.3     1  LIG1        0.0304
     20 N         -10.2087   -1.2653    3.2279 N.ar    1  LIG1       -0.2341
     21 N          -7.9829   -0.3152    2.9815 N.ar    1  LIG1       -0.2194
     22 N          -8.5854   -3.1874    0.7635 N.ar    1  LIG1       -0.3097
     23 N          -6.3863   -1.2018    1.4351 N.pl3   1  LIG1       -0.3110
     24 N          -3.9910   -0.1990    0.2276 N.am    1  LIG1       -0.2929
     25 O          -1.8090    0.5668    0.4098 O.2     1  LIG1       -0.2693
     26 O          -3.8521    0.6248   -2.3967 O.2     1  LIG1       -0.3126
     27 BR        -14.1007   -5.4970    1.4156 Br      1  LIG1       -0.0508
     28 H          -1.6515    0.4171   -4.8296 H       1  LIG1        0.0645
     29 H          -9.5592   -5.4246   -0.7169 H       1  LIG1        0.0643
     30 H         -11.8519   -6.2819   -0.3585 H       1  LIG1        0.0635
     31 H          -0.6176    0.0361   -2.3310 H       1  LIG1        0.0653
     32 H         -12.5710   -3.2530    2.6336 H       1  LIG1        0.0642
     33 H          -4.3431    0.8676   -4.3926 H       1  LIG1        0.0901
     34 H          -9.4537    0.3479    4.2724 H       1  LIG1        0.1063
     35 H          -6.7319   -0.0203   -0.2602 H       1  LIG1        0.0485
     36 H          -6.9438   -1.7618   -0.5147 H       1  LIG1        0.0485
     37 H          -4.6528   -1.7413    2.4320 H       1  LIG1        0.0485
     38 H          -5.5602   -0.4634    3.2477 H       1  LIG1        0.0485
     39 H          -4.5031   -2.1332   -0.2982 H       1  LIG1        0.0486
     40 H          -4.8415   -0.9370   -1.5569 H       1  LIG1        0.0486
     41 H          -4.9957    1.1452    1.4291 H       1  LIG1        0.0486
     42 H          -3.5386    0.4743    2.1674 H       1  LIG1        0.0486
     43 H          -7.7985   -3.4254    0.1754 H       1  LIG1        0.1530
@<TRIPOS>BOND
     1     1     4   ar
     2     1     6   ar
     3     2     3   ar
     4     2    10   ar
     5     3    12   ar
     6     4    13   ar
     7     5     8   ar
     8     5    12   ar
     9     6    26   ar
    10     7    20   ar
    11     7    21   ar
    12     8     9   ar
    13     8    10   ar
    14     9    11   ar
    15     9    20   ar
    16    10    22   ar
    17    11    14   ar
    18    11    22   ar
    19    12    27    1
    20    13    15    1
    21    13    26   ar
    22    14    21   ar
    23    14    23    1
    24    15    24   am
    25    15    25    2
    26    16    18    1
    27    16    23    1
    28    17    19    1
    29    17    23    1
    30    18    24    1
    31    19    24    1
    32     1    28    1
    33     2    29    1
    34     3    30    1
    35     4    31    1
    36     5    32    1
    37     6    33    1
    38     7    34    1
    39    16    35    1
    40    16    36    1
    41    17    37    1
    42    17    38    1
    43    18    39    1
    44    18    40    1
    45    19    41    1
    46    19    42    1
    47    22    43    1
