@<TRIPOS>MOLECULE
ChEBML501017
 58 61 0 0 0
SMALL
USER_CHARGES

@<TRIPOS>ATOM
      1 C         -10.3798   -5.1558    0.4684 C.ar    1  LIG1       -0.0383
      2 C         -11.6951   -5.5089    0.6621 C.ar    1  LIG1       -0.0392
      3 C         -12.0832   -3.5103    1.9469 C.ar    1  LIG1       -0.0319
      4 C          -9.9767   -2.0283    2.1812 C.ar    1  LIG1       -0.0261
      5 C         -10.7440   -3.1417    1.7612 C.ar    1  LIG1       -0.0003
      6 C          -9.8882   -3.9725    1.0129 C.ar    1  LIG1        0.0379
      7 C         -12.5484   -4.6903    1.4030 C.ar    1  LIG1        0.0269
      8 C          -8.7153   -2.1900    1.7021 C.ar    1  LIG1        0.0947
      9 C          -7.5982   -1.2567    1.9105 C.2     1  LIG1        0.2599
     10 C         -15.5849   -6.8096    1.8233 C.3     1  LIG1        0.0050
     11 C         -14.8153   -6.0773   -0.4339 C.3     1  LIG1        0.0050
     12 C          -5.1837   -0.8239    1.7369 C.3     1  LIG1        0.0381
     13 C          -6.3540   -2.2911    0.0585 C.3     1  LIG1        0.0381
     14 C         -16.1481   -8.0736    1.1702 C.3     1  LIG1       -0.0323
     15 C         -15.4071   -7.3684   -1.0035 C.3     1  LIG1       -0.0323
     16 C          -4.4817   -0.1856    0.5333 C.3     1  LIG1        0.0625
     17 C          -5.5540   -1.5244   -1.0060 C.3     1  LIG1        0.0625
     18 C         -14.3811   -6.3168    1.0150 C.3     1  LIG1        0.0296
     19 C         -18.3919   -9.3912    0.0334 C.3     1  LIG1       -0.0228
     20 C         -17.6281   -8.6537   -2.2282 C.3     1  LIG1       -0.0228
     21 C         -17.1802   -8.9683   -0.7996 C.3     1  LIG1       -0.0292
     22 N          -8.6496   -3.3709    0.9888 N.ar    1  LIG1       -0.3101
     23 N          -6.4315   -1.4470    1.2633 N.am    1  LIG1       -0.2921
     24 N         -13.8837   -5.0650    1.5908 N.pl3   1  LIG1       -0.3411
     25 N         -16.5692   -7.7728   -0.2033 N.4     1  LIG1        0.2478
     26 O          -7.7273   -0.3128    2.6669 O.2     1  LIG1       -0.2701
     27 O          -4.2763   -1.1707   -0.4784 O.3     1  LIG1       -0.3781
     28 H          -9.7279   -5.7970   -0.1061 H       1  LIG1        0.0643
     29 H         -12.0707   -6.4281    0.2373 H       1  LIG1        0.0643
     30 H         -12.7468   -2.8763    2.5163 H       1  LIG1        0.0649
     31 H         -10.3304   -1.1991    2.7758 H       1  LIG1        0.0651
     32 H         -16.3526   -6.0360    1.8412 H       1  LIG1        0.0340
     33 H         -15.2711   -7.0355    2.8425 H       1  LIG1        0.0340
     34 H         -15.5670   -5.2885   -0.4629 H       1  LIG1        0.0340
     35 H         -13.9514   -5.7796   -1.0282 H       1  LIG1        0.0340
     36 H          -5.4130   -0.0580    2.4778 H       1  LIG1        0.0493
     37 H          -4.5383   -1.5828    2.1793 H       1  LIG1        0.0493
     38 H          -5.8505   -3.2279    0.2974 H       1  LIG1        0.0493
     39 H          -7.3583   -2.4966   -0.3119 H       1  LIG1        0.0493
     40 H         -17.0051   -8.4272    1.7433 H       1  LIG1        0.0815
     41 H         -15.3797   -8.8465    1.1531 H       1  LIG1        0.0815
     42 H         -14.6543   -8.1563   -0.9742 H       1  LIG1        0.0815
     43 H         -15.7169   -7.2014   -2.0350 H       1  LIG1        0.0815
     44 H          -5.1012    0.6187    0.1364 H       1  LIG1        0.0583
     45 H          -3.5194    0.2189    0.8468 H       1  LIG1        0.0583
     46 H          -6.0933   -0.6202   -1.2880 H       1  LIG1        0.0583
     47 H          -5.4217   -2.1565   -1.8842 H       1  LIG1        0.0583
     48 H         -13.5929   -7.0692    1.0396 H       1  LIG1        0.0507
     49 H         -18.8452  -10.2782   -0.4089 H       1  LIG1        0.0287
     50 H         -18.0728   -9.6154    1.0513 H       1  LIG1        0.0287
     51 H         -19.1210   -8.5811    0.0513 H       1  LIG1        0.0287
     52 H         -18.3572   -7.8435   -2.2103 H       1  LIG1        0.0287
     53 H         -16.7649   -8.3525   -2.8217 H       1  LIG1        0.0287
     54 H         -18.0815   -9.5408   -2.6706 H       1  LIG1        0.0287
     55 H         -16.4512   -9.7784   -0.8175 H       1  LIG1        0.0846
     56 H          -7.8609   -3.7192    0.5445 H       1  LIG1        0.1529
     57 H         -14.4799   -4.4957    2.1021 H       1  LIG1        0.1468
     58 H         -17.2441   -7.0229   -0.1894 H       1  LIG1        0.2006
@<TRIPOS>BOND
     1     1     2   ar
     2     1     6   ar
     3     2     7   ar
     4     3     5   ar
     5     3     7   ar
     6     4     5   ar
     7     4     8   ar
     8     5     6   ar
     9     6    22   ar
    10     7    24    1
    11     8     9    1
    12     8    22   ar
    13     9    23   am
    14     9    26    2
    15    10    14    1
    16    10    18    1
    17    11    15    1
    18    11    18    1
    19    12    16    1
    20    12    23    1
    21    13    17    1
    22    13    23    1
    23    14    25    1
    24    15    25    1
    25    16    27    1
    26    17    27    1
    27    18    24    1
    28    19    21    1
    29    20    21    1
    30    21    25    1
    31     1    28    1
    32     2    29    1
    33     3    30    1
    34     4    31    1
    35    10    32    1
    36    10    33    1
    37    11    34    1
    38    11    35    1
    39    12    36    1
    40    12    37    1
    41    13    38    1
    42    13    39    1
    43    14    40    1
    44    14    41    1
    45    15    42    1
    46    15    43    1
    47    16    44    1
    48    16    45    1
    49    17    46    1
    50    17    47    1
    51    18    48    1
    52    19    49    1
    53    19    50    1
    54    19    51    1
    55    20    52    1
    56    20    53    1
    57    20    54    1
    58    21    55    1
    59    22    56    1
    60    24    57    1
    61    25    58    1
