@<TRIPOS>MOLECULE
ChEBML1066937
 33 35 0 0 0
SMALL
USER_CHARGES

@<TRIPOS>ATOM
      1 C          -4.0862   -0.4198   -1.3392 C.ar    1  LIG1       -0.0435
      2 C          -4.4007   -0.8854   -0.0673 C.ar    1  LIG1       -0.0555
      3 C         -11.4734   -5.5738    0.6115 C.ar    1  LIG1       -0.0574
      4 C         -10.1256   -5.2095    0.5434 C.ar    1  LIG1       -0.0399
      5 C         -12.0262   -3.5283    1.7977 C.ar    1  LIG1       -0.0501
      6 C          -9.9473   -2.0049    2.2000 C.ar    1  LIG1       -0.0280
      7 C          -5.1199   -0.2730   -2.2500 C.ar    1  LIG1        0.0268
      8 C          -6.6812   -1.0046   -0.7316 C.ar    1  LIG1        0.0304
      9 C         -10.6730   -3.1398    1.7413 C.ar    1  LIG1       -0.0020
     10 C         -12.4107   -4.7478    1.2285 C.ar    1  LIG1       -0.0504
     11 C          -5.7206   -1.1859    0.2503 C.ar    1  LIG1       -0.0218
     12 C          -9.7557   -3.9877    1.1167 C.ar    1  LIG1        0.0378
     13 C          -8.6281   -2.1826    1.8519 C.ar    1  LIG1        0.0750
     14 C          -7.5215   -1.3129    2.0974 C.2     1  LIG1        0.1808
     15 C         -13.8425   -5.1663    1.2842 C.3     1  LIG1       -0.0397
     16 C          -6.0942   -1.6924    1.6219 C.3     1  LIG1        0.0389
     17 N          -6.4139   -0.5545   -1.9780 N.ar    1  LIG1       -0.2644
     18 N          -8.5225   -3.3812    1.1986 N.ar    1  LIG1       -0.3115
     19 O          -7.6640   -0.2167    2.7055 O.2     1  LIG1       -0.2923
     20 H          -3.0643   -0.1791   -1.6089 H       1  LIG1        0.0639
     21 H          -3.6116   -1.0109    0.6692 H       1  LIG1        0.0627
     22 H         -11.7846   -6.5193    0.1727 H       1  LIG1        0.0626
     23 H          -9.3965   -5.8532    0.0628 H       1  LIG1        0.0643
     24 H         -12.7605   -2.8870    2.2779 H       1  LIG1        0.0632
     25 H         -10.3516   -1.1517    2.7284 H       1  LIG1        0.0651
     26 H          -4.9266    0.0864   -3.2554 H       1  LIG1        0.0839
     27 H          -7.7277   -1.2222   -0.5419 H       1  LIG1        0.0842
     28 H         -14.0343   -5.7460    2.1948 H       1  LIG1        0.0280
     29 H         -14.5111   -4.2964    1.2769 H       1  LIG1        0.0280
     30 H         -14.1104   -5.7814    0.4158 H       1  LIG1        0.0280
     31 H          -6.0152   -2.7860    1.6276 H       1  LIG1        0.0401
     32 H          -5.3780   -1.2971    2.3520 H       1  LIG1        0.0401
     33 H          -7.6650   -3.7681    0.8289 H       1  LIG1        0.1529
@<TRIPOS>BOND
     1     1     2   ar
     2     1     7   ar
     3     2    11   ar
     4     3     4   ar
     5     3    10   ar
     6     4    12   ar
     7     5     9   ar
     8     5    10   ar
     9     6     9   ar
    10     6    13   ar
    11     7    17   ar
    12     8    11   ar
    13     8    17   ar
    14     9    12   ar
    15    10    15    1
    16    11    16    1
    17    12    18   ar
    18    13    14    1
    19    13    18   ar
    20    14    16    1
    21    14    19    2
    22     1    20    1
    23     2    21    1
    24     3    22    1
    25     4    23    1
    26     5    24    1
    27     6    25    1
    28     7    26    1
    29     8    27    1
    30    15    28    1
    31    15    29    1
    32    15    30    1
    33    16    31    1
    34    16    32    1
    35    18    33    1
