@<TRIPOS>MOLECULE
ChEBML347587
 36 39 0 0 0
SMALL
USER_CHARGES

@<TRIPOS>ATOM
      1 C          -3.3426   -1.8641   -2.4473 C.ar    1  LIG1       -0.0574
      2 C          -4.3566   -2.5367   -1.7593 C.ar    1  LIG1       -0.0399
      3 C         -10.3427   -5.1744    0.4638 C.ar    1  LIG1       -0.0376
      4 C         -11.6798   -5.5304    0.6621 C.ar    1  LIG1       -0.0302
      5 C          -3.7324    0.1588   -1.1617 C.ar    1  LIG1       -0.0501
      6 C         -12.0853   -3.5143    1.9536 C.ar    1  LIG1       -0.0229
      7 C          -5.6494   -0.1134    0.5864 C.ar    1  LIG1       -0.0276
      8 C          -9.9602   -2.0183    2.1779 C.ar    1  LIG1       -0.0275
      9 C          -4.7589   -0.4985   -0.4546 C.ar    1  LIG1       -0.0020
     10 C         -10.7413   -3.1346    1.7669 C.ar    1  LIG1        0.0003
     11 C          -3.0336   -0.5372   -2.1548 C.ar    1  LIG1       -0.0504
     12 C          -5.0467   -1.8283   -0.7691 C.ar    1  LIG1        0.0378
     13 C          -9.9027   -3.9717    1.0279 C.ar    1  LIG1        0.0379
     14 C         -12.5394   -4.7147    1.3951 C.ar    1  LIG1        0.0720
     15 C          -6.4460   -1.1967    0.8780 C.ar    1  LIG1        0.0811
     16 C          -8.6863   -2.1961    1.6896 C.ar    1  LIG1        0.0811
     17 C          -7.4883   -1.2945    1.8503 C.2     1  LIG1        0.2206
     18 C          -1.9450    0.1522   -2.9082 C.3     1  LIG1       -0.0397
     19 N          -6.0748   -2.2263    0.0555 N.ar    1  LIG1       -0.3112
     20 N          -8.6615   -3.3769    0.9972 N.ar    1  LIG1       -0.3112
     21 O          -7.4575   -0.6219    2.9071 O.2     1  LIG1       -0.2856
     22 O         -13.8381   -5.0890    1.5713 O.3     1  LIG1       -0.3609
     23 H          -2.7923   -2.3944   -3.2215 H       1  LIG1        0.0626
     24 H          -4.5965   -3.5697   -1.9877 H       1  LIG1        0.0643
     25 H          -9.6742   -5.8099   -0.1074 H       1  LIG1        0.0643
     26 H         -12.0472   -6.4604    0.2342 H       1  LIG1        0.0651
     27 H          -3.4882    1.1935   -0.9365 H       1  LIG1        0.0632
     28 H         -12.7621   -2.8834    2.5233 H       1  LIG1        0.0657
     29 H          -5.6986    0.8544    1.0675 H       1  LIG1        0.0651
     30 H         -10.2985   -1.1768    2.7680 H       1  LIG1        0.0651
     31 H          -2.3511    0.6417   -3.8012 H       1  LIG1        0.0280
     32 H          -1.4518    0.9111   -2.2879 H       1  LIG1        0.0280
     33 H          -1.1683   -0.5571   -3.2215 H       1  LIG1        0.0280
     34 H          -6.4929   -3.1466    0.0512 H       1  LIG1        0.1529
     35 H          -7.8511   -3.7598    0.5296 H       1  LIG1        0.1529
     36 H         -14.3090   -4.4252    2.0986 H       1  LIG1        0.2182
@<TRIPOS>BOND
     1     1     2   ar
     2     1    11   ar
     3     2    12   ar
     4     3     4   ar
     5     3    13   ar
     6     4    14   ar
     7     5     9   ar
     8     5    11   ar
     9     6    10   ar
    10     6    14   ar
    11     7     9   ar
    12     7    15   ar
    13     8    10   ar
    14     8    16   ar
    15     9    12   ar
    16    10    13   ar
    17    11    18    1
    18    12    19   ar
    19    13    20   ar
    20    14    22    1
    21    15    17    1
    22    15    19   ar
    23    16    17    1
    24    16    20   ar
    25    17    21    2
    26     1    23    1
    27     2    24    1
    28     3    25    1
    29     4    26    1
    30     5    27    1
    31     6    28    1
    32     7    29    1
    33     8    30    1
    34    18    31    1
    35    18    32    1
    36    18    33    1
    37    19    34    1
    38    20    35    1
    39    22    36    1
