@<TRIPOS>MOLECULE
ChEBML934531
 35 37 0 0 0
SMALL
USER_CHARGES

@<TRIPOS>ATOM
      1 C         -11.1973   -5.4865    0.8980 C.ar    1  LIG1       -0.0599
      2 C         -12.1870   -4.7369    1.5458 C.ar    1  LIG1       -0.0595
      3 C          -3.8262    1.0030   -1.2772 C.ar    1  LIG1       -0.0485
      4 C          -2.9762   -1.0759   -2.1674 C.ar    1  LIG1       -0.0485
      5 C          -9.8912   -4.9967    0.7542 C.ar    1  LIG1       -0.0336
      6 C         -11.9144   -3.4709    2.0752 C.ar    1  LIG1       -0.0289
      7 C          -3.2301    1.6975   -2.3297 C.ar    1  LIG1       -0.0311
      8 C          -2.3799   -0.3814   -3.2200 C.ar    1  LIG1       -0.0311
      9 C          -3.6993   -0.3837   -1.1961 C.ar    1  LIG1        0.0220
     10 C          -9.6013   -3.7292    1.2792 C.ar    1  LIG1        0.0974
     11 C         -10.6103   -3.0195    1.9133 C.ar    1  LIG1        0.1103
     12 C          -2.5069    1.0054   -3.3010 C.ar    1  LIG1        0.0746
     13 C          -8.7861   -1.8941    1.9244 C.ar    1  LIG1        0.2132
     14 C          -5.5799   -0.5563    0.5078 C.2     1  LIG1       -0.0072
     15 C          -6.1948   -1.2016    1.5068 C.2     1  LIG1       -0.0167
     16 C          -4.3332   -1.1223   -0.0774 C.2     1  LIG1        0.1859
     17 C          -2.0939    3.0994   -4.3500 C.3     1  LIG1        0.0422
     18 N          -8.4400   -2.9952    1.2945 N.ar    1  LIG1       -0.2153
     19 O          -3.8393   -2.1741    0.3137 O.2     1  LIG1       -0.2892
     20 O         -10.0846   -1.8309    2.3319 O.2     1  LIG1       -0.2837
     21 O          -1.9249    1.6829   -4.3281 O.3     1  LIG1       -0.3493
     22 S          -7.6666   -0.5913    2.2266 S.3     1  LIG1       -0.0518
     23 H         -11.4453   -6.4664    0.4977 H       1  LIG1        0.0623
     24 H         -13.1893   -5.1474    1.6411 H       1  LIG1        0.0623
     25 H          -4.3876    1.5531   -0.5262 H       1  LIG1        0.0631
     26 H          -2.8716   -2.1565   -2.1134 H       1  LIG1        0.0631
     27 H          -9.1321   -5.5871    0.2518 H       1  LIG1        0.0646
     28 H         -12.6716   -2.8843    2.5798 H       1  LIG1        0.0651
     29 H          -3.3324    2.7778   -2.3873 H       1  LIG1        0.0650
     30 H          -1.8176   -0.9259   -3.9736 H       1  LIG1        0.0650
     31 H          -5.9783    0.3668    0.1011 H       1  LIG1        0.0669
     32 H          -5.8016   -2.1278    1.9113 H       1  LIG1        0.0703
     33 H          -1.5802    3.5150   -5.2203 H       1  LIG1        0.0535
     34 H          -1.6856    3.5303   -3.4324 H       1  LIG1        0.0535
     35 H          -3.1601    3.3291   -4.4151 H       1  LIG1        0.0535
@<TRIPOS>BOND
     1     1     2   ar
     2     1     5   ar
     3     2     6   ar
     4     3     7   ar
     5     3     9   ar
     6     4     8   ar
     7     4     9   ar
     8     5    10   ar
     9     6    11   ar
    10     7    12   ar
    11     8    12   ar
    12     9    16    1
    13    10    11   ar
    14    10    18   ar
    15    11    20   ar
    16    12    21    1
    17    13    18   ar
    18    13    20   ar
    19    13    22    1
    20    14    15    2
    21    14    16    1
    22    15    22    1
    23    16    19    2
    24    17    21    1
    25     1    23    1
    26     2    24    1
    27     3    25    1
    28     4    26    1
    29     5    27    1
    30     6    28    1
    31     7    29    1
    32     8    30    1
    33    14    31    1
    34    15    32    1
    35    17    33    1
    36    17    34    1
    37    17    35    1
