@<TRIPOS>MOLECULE
ChEBML2345
 33 36 0 0 0
SMALL
USER_CHARGES

@<TRIPOS>ATOM
      1 C          -3.1525   -1.2686   -2.4086 C.ar    1  LIG1       -0.0615
      2 C          -3.0142    0.0420   -1.9559 C.ar    1  LIG1       -0.0603
      3 C          -4.1148   -2.1202   -1.8537 C.ar    1  LIG1       -0.0530
      4 C          -3.8302    0.5428   -0.9375 C.ar    1  LIG1       -0.0402
      5 C         -10.3427   -5.1744    0.4638 C.ar    1  LIG1       -0.0376
      6 C         -11.6798   -5.5304    0.6621 C.ar    1  LIG1       -0.0302
      7 C         -12.0853   -3.5144    1.9536 C.ar    1  LIG1       -0.0229
      8 C          -6.0020   -2.2048   -0.0549 C.ar    1  LIG1       -0.0276
      9 C          -9.9603   -2.0183    2.1778 C.ar    1  LIG1       -0.0275
     10 C          -4.9488   -1.6375   -0.8257 C.ar    1  LIG1       -0.0022
     11 C         -10.7413   -3.1346    1.7670 C.ar    1  LIG1        0.0003
     12 C          -4.7877   -0.3198   -0.3922 C.ar    1  LIG1        0.0378
     13 C          -9.9027   -3.9717    1.0279 C.ar    1  LIG1        0.0379
     14 C         -12.5395   -4.7147    1.3952 C.ar    1  LIG1        0.0720
     15 C          -6.4512   -1.2386    0.8155 C.ar    1  LIG1        0.0811
     16 C          -8.6864   -2.1960    1.6896 C.ar    1  LIG1        0.0811
     17 C          -7.5513   -1.3419    1.8418 C.2     1  LIG1        0.2206
     18 N          -5.7129   -0.1051    0.6044 N.ar    1  LIG1       -0.3112
     19 N          -8.6615   -3.3769    0.9972 N.ar    1  LIG1       -0.3112
     20 O          -7.4108   -0.6213    2.8573 O.2     1  LIG1       -0.2856
     21 O         -13.8381   -5.0891    1.5713 O.3     1  LIG1       -0.3609
     22 H          -2.5068   -1.6351   -3.2023 H       1  LIG1        0.0623
     23 H          -2.2601    0.6859   -2.4009 H       1  LIG1        0.0623
     24 H          -4.2123   -3.1397   -2.2163 H       1  LIG1        0.0629
     25 H          -3.7219    1.5631   -0.5851 H       1  LIG1        0.0642
     26 H          -9.6743   -5.8099   -0.1073 H       1  LIG1        0.0643
     27 H         -12.0472   -6.4603    0.2342 H       1  LIG1        0.0651
     28 H         -12.7621   -2.8834    2.5234 H       1  LIG1        0.0657
     29 H          -6.3868   -3.2130   -0.1324 H       1  LIG1        0.0651
     30 H         -10.2985   -1.1769    2.7680 H       1  LIG1        0.0651
     31 H          -5.8270    0.7649    1.1063 H       1  LIG1        0.1529
     32 H          -7.8511   -3.7598    0.5296 H       1  LIG1        0.1529
     33 H         -14.3090   -4.4252    2.0986 H       1  LIG1        0.2182
@<TRIPOS>BOND
     1     1     2   ar
     2     1     3   ar
     3     2     4   ar
     4     3    10   ar
     5     4    12   ar
     6     5     6   ar
     7     5    13   ar
     8     6    14   ar
     9     7    11   ar
    10     7    14   ar
    11     8    10   ar
    12     8    15   ar
    13     9    11   ar
    14     9    16   ar
    15    10    12   ar
    16    11    13   ar
    17    12    18   ar
    18    13    19   ar
    19    14    21    1
    20    15    17    1
    21    15    18   ar
    22    16    17    1
    23    16    19   ar
    24    17    20    2
    25     1    22    1
    26     2    23    1
    27     3    24    1
    28     4    25    1
    29     5    26    1
    30     6    27    1
    31     7    28    1
    32     8    29    1
    33     9    30    1
    34    18    31    1
    35    19    32    1
    36    21    33    1
