@<TRIPOS>MOLECULE
ChEBML1149196
 43 45 0 0 0
SMALL
USER_CHARGES

@<TRIPOS>ATOM
      1 C          -2.5801   -2.5293   -2.0340 C.1     1  LIG1        0.1028
      2 C         -12.7552   -4.2372    1.9229 C.ar    1  LIG1       -0.0621
      3 C         -11.8160   -5.2666    1.9859 C.ar    1  LIG1       -0.0604
      4 C         -12.3551   -2.9488    1.5689 C.ar    1  LIG1       -0.0604
      5 C          -1.8322   -0.4405   -3.0395 C.ar    1  LIG1       -0.0387
      6 C         -10.4767   -5.0075    1.6948 C.ar    1  LIG1       -0.0407
      7 C         -11.0157   -2.6896    1.2779 C.ar    1  LIG1       -0.0407
      8 C          -1.9977    0.9216   -3.2646 C.ar    1  LIG1       -0.0298
      9 C          -2.7569   -1.1282   -2.2613 C.ar    1  LIG1        0.0923
     10 C         -10.0765   -3.7190    1.3408 C.ar    1  LIG1        0.0339
     11 C          -3.0957    1.5446   -2.6939 C.ar    1  LIG1        0.1462
     12 C          -3.8209   -0.4133   -1.7353 C.ar    1  LIG1        0.1387
     13 C          -8.1583   -2.2324    1.3637 C.2     1  LIG1        0.3050
     14 C          -4.9457   -0.6538    0.4207 C.3     1  LIG1        0.0289
     15 C          -5.8327   -1.7846   -1.6412 C.3     1  LIG1        0.0289
     16 C          -6.4351   -0.5625    0.7453 C.3     1  LIG1        0.0315
     17 C          -6.6437   -2.6130   -0.6437 C.3     1  LIG1        0.0315
     18 C          -3.3051    3.0055   -2.9147 C.3     1  LIG1        0.4330
     19 N          -2.4368   -3.6660   -1.8494 N.1     1  LIG1       -0.1922
     20 N          -4.0149    0.9100   -1.9323 N.ar    1  LIG1       -0.2271
     21 N          -4.7418   -1.0778   -0.9672 N.pl3   1  LIG1       -0.3116
     22 N          -7.1183   -1.8316    0.5038 N.am    1  LIG1       -0.2824
     23 N          -8.7326   -3.4592    1.0486 N.am    1  LIG1       -0.2691
     24 O          -8.5274   -1.5531    2.3272 O.2     1  LIG1       -0.2537
     25 F          -2.3426    3.5844   -3.6915 F       1  LIG1       -0.1645
     26 F          -4.4869    3.3004   -3.5323 F       1  LIG1       -0.1645
     27 F          -3.3127    3.7160   -1.7498 F       1  LIG1       -0.1645
     28 H         -13.7983   -4.4388    2.1488 H       1  LIG1        0.0622
     29 H         -12.1273   -6.2701    2.2606 H       1  LIG1        0.0623
     30 H         -13.0868   -2.1476    1.5189 H       1  LIG1        0.0623
     31 H          -0.9776   -0.9507   -3.4767 H       1  LIG1        0.0638
     32 H          -9.7536   -5.8177    1.7471 H       1  LIG1        0.0642
     33 H         -10.7154   -1.6815    1.0029 H       1  LIG1        0.0642
     34 H          -1.2831    1.4688   -3.8700 H       1  LIG1        0.0646
     35 H          -4.4792    0.3214    0.6074 H       1  LIG1        0.0485
     36 H          -4.4602   -1.3816    1.0819 H       1  LIG1        0.0485
     37 H          -5.4319   -2.4475   -2.4173 H       1  LIG1        0.0485
     38 H          -6.4882   -1.0545   -2.1332 H       1  LIG1        0.0485
     39 H          -6.5707   -0.2527    1.7868 H       1  LIG1        0.0486
     40 H          -6.9233    0.1894    0.1133 H       1  LIG1        0.0486
     41 H          -7.4997   -3.0597   -1.1601 H       1  LIG1        0.0486
     42 H          -6.0301   -3.4274   -0.2398 H       1  LIG1        0.0486
     43 H          -8.1940   -4.2210    0.6531 H       1  LIG1        0.1573
@<TRIPOS>BOND
     1     1     9    1
     2     1    19    3
     3     2     3   ar
     4     2     4   ar
     5     3     6   ar
     6     4     7   ar
     7     5     8   ar
     8     5     9   ar
     9     6    10   ar
    10     7    10   ar
    11     8    11   ar
    12     9    12   ar
    13    10    23    1
    14    11    18    1
    15    11    20   ar
    16    12    20   ar
    17    12    21    1
    18    13    22   am
    19    13    23   am
    20    13    24    2
    21    14    16    1
    22    14    21    1
    23    15    17    1
    24    15    21    1
    25    16    22    1
    26    17    22    1
    27    18    25    1
    28    18    26    1
    29    18    27    1
    30     2    28    1
    31     3    29    1
    32     4    30    1
    33     5    31    1
    34     6    32    1
    35     7    33    1
    36     8    34    1
    37    14    35    1
    38    14    36    1
    39    15    37    1
    40    15    38    1
    41    16    39    1
    42    16    40    1
    43    17    41    1
    44    17    42    1
    45    23    43    1
