@<TRIPOS>MOLECULE
ChEBML273391
 49 51 0 0 0
SMALL
USER_CHARGES

@<TRIPOS>ATOM
      1 C          -2.4857    0.7638   -3.3383 C.ar    1  LIG1       -0.0621
      2 C          -3.0570    1.4393   -2.2599 C.ar    1  LIG1       -0.0604
      3 C          -2.5728   -0.6262   -3.4160 C.ar    1  LIG1       -0.0604
      4 C          -3.7154    0.7248   -1.2591 C.ar    1  LIG1       -0.0409
      5 C          -3.2312   -1.3407   -2.4151 C.ar    1  LIG1       -0.0409
      6 C         -10.4283   -4.9633    1.4840 C.ar    1  LIG1       -0.0388
      7 C         -10.9348   -2.6890    0.8450 C.ar    1  LIG1       -0.0388
      8 C         -11.7908   -5.2273    1.6243 C.ar    1  LIG1       -0.0378
      9 C         -12.2973   -2.9530    0.9854 C.ar    1  LIG1       -0.0378
     10 C          -3.8025   -0.6652   -1.3366 C.ar    1  LIG1        0.0289
     11 C         -10.0003   -3.6942    1.0944 C.ar    1  LIG1        0.0328
     12 C         -12.7251   -4.2221    1.3751 C.ar    1  LIG1        0.0431
     13 C          -8.0235   -2.2287    0.5759 C.2     1  LIG1        0.2651
     14 C          -3.8877   -1.2142    1.0025 C.3     1  LIG1        0.0509
     15 C          -5.9212   -1.3545   -0.4352 C.3     1  LIG1        0.0626
     16 C          -4.5047   -2.2173    1.9653 C.3     1  LIG1       -0.0191
     17 C          -6.5360   -2.3541    0.5421 C.3     1  LIG1        0.0694
     18 C         -15.0916   -4.3757   -0.9821 C.3     1  LIG1        0.0225
     19 N          -4.4555   -1.3742   -0.3442 N.pl3   1  LIG1       -0.3194
     20 N          -8.6181   -3.4267    0.9515 N.am    1  LIG1       -0.2806
     21 N         -14.1197   -4.4924    1.5187 N.pl3   1  LIG1       -0.2633
     22 N          -5.9904   -2.0951    1.9107 N.4     1  LIG1        0.2497
     23 O          -8.5709   -1.1670    0.2969 O.2     1  LIG1       -0.2707
     24 O         -13.9019   -6.5055   -0.0787 O.2     1  LIG1       -0.4814
     25 O         -16.1876   -5.9334    0.8123 O.2     1  LIG1       -0.4814
     26 S         -14.8732   -5.5212    0.3612 S.O2    1  LIG1       -0.1957
     27 H          -1.9728    1.3203   -4.1175 H       1  LIG1        0.0622
     28 H          -2.9890    2.5213   -2.1996 H       1  LIG1        0.0623
     29 H          -2.1277   -1.1521   -4.2558 H       1  LIG1        0.0623
     30 H          -4.1570    1.2606   -0.4229 H       1  LIG1        0.0642
     31 H          -3.2929   -2.4237   -2.4863 H       1  LIG1        0.0642
     32 H          -9.7090   -5.7541    1.6812 H       1  LIG1        0.0643
     33 H         -10.6125   -1.6964    0.5408 H       1  LIG1        0.0643
     34 H         -12.1139   -6.2196    1.9283 H       1  LIG1        0.0643
     35 H         -13.0173   -2.1628    0.7889 H       1  LIG1        0.0643
     36 H          -4.0653   -0.1915    1.3600 H       1  LIG1        0.0524
     37 H          -2.8024   -1.3724    0.9777 H       1  LIG1        0.0524
     38 H          -6.2389   -1.6135   -1.4540 H       1  LIG1        0.0533
     39 H          -6.2908   -0.3392   -0.2349 H       1  LIG1        0.0533
     40 H          -4.2546   -3.2505    1.7017 H       1  LIG1        0.0830
     41 H          -4.2023   -2.0231    2.9983 H       1  LIG1        0.0830
     42 H          -6.2729   -3.3865    0.2861 H       1  LIG1        0.0972
     43 H         -15.5713   -4.9019   -1.8089 H       1  LIG1        0.0442
     44 H         -15.7205   -3.5543   -0.6354 H       1  LIG1        0.0442
     45 H         -14.1101   -4.0059   -1.2823 H       1  LIG1        0.0442
     46 H          -7.9995   -4.2101    1.1506 H       1  LIG1        0.1558
     47 H         -14.6842   -3.6727    1.7975 H       1  LIG1        0.1702
     48 H          -6.4069   -2.7582    2.5792 H       1  LIG1        0.1992
     49 H          -6.2719   -1.1580    2.2321 H       1  LIG1        0.1992
@<TRIPOS>BOND
     1     1     2   ar
     2     1     3   ar
     3     2     4   ar
     4     3     5   ar
     5     4    10   ar
     6     5    10   ar
     7     6     8   ar
     8     6    11   ar
     9     7     9   ar
    10     7    11   ar
    11     8    12   ar
    12     9    12   ar
    13    10    19    1
    14    11    20    1
    15    12    21    1
    16    13    17    1
    17    13    20   am
    18    13    23    2
    19    14    16    1
    20    14    19    1
    21    15    17    1
    22    15    19    1
    23    16    22    1
    24    17    22    1
    25    18    26    1
    26    21    26    1
    27    24    26    2
    28    25    26    2
    29     1    27    1
    30     2    28    1
    31     3    29    1
    32     4    30    1
    33     5    31    1
    34     6    32    1
    35     7    33    1
    36     8    34    1
    37     9    35    1
    38    14    36    1
    39    14    37    1
    40    15    38    1
    41    15    39    1
    42    16    40    1
    43    16    41    1
    44    17    42    1
    45    18    43    1
    46    18    44    1
    47    18    45    1
    48    20    46    1
    49    21    47    1
    50    22    48    1
    51    22    49    1
