@<TRIPOS>MOLECULE
ChEBML1273681
 35 37 0 0 0
SMALL
USER_CHARGES

@<TRIPOS>ATOM
      1 C         -12.5407   -4.6338    1.2508 C.ar    1  LIG1       -0.0431
      2 C         -12.1488   -3.3836    1.6523 C.ar    1  LIG1       -0.0499
      3 C         -10.0324   -1.9203    1.9452 C.ar    1  LIG1       -0.0246
      4 C         -11.5878   -5.5478    0.8248 C.ar    1  LIG1        0.0291
      5 C         -10.7821   -3.0742    1.6161 C.ar    1  LIG1        0.0170
      6 C          -8.7241   -2.1988    1.7067 C.ar    1  LIG1        0.0959
      7 C          -9.8675   -4.0508    1.1721 C.ar    1  LIG1        0.1291
      8 C          -7.6030   -1.2706    1.9153 C.2     1  LIG1        0.2602
      9 C          -5.2489   -0.6590    1.5935 C.3     1  LIG1        0.0539
     10 C          -6.3035   -2.5143    0.2468 C.3     1  LIG1        0.0539
     11 C          -4.6669   -0.1195    0.2828 C.3     1  LIG1       -0.0183
     12 C          -5.6717   -1.8872   -1.0003 C.3     1  LIG1       -0.0183
     13 C          -3.7483   -0.7323   -1.8450 C.3     1  LIG1       -0.0453
     14 N         -10.3076   -5.2453    0.7959 N.ar    1  LIG1       -0.2406
     15 N          -8.6158   -3.4921    1.2310 N.ar    1  LIG1       -0.2948
     16 N          -6.4330   -1.4729    1.2778 N.am    1  LIG1       -0.2863
     17 N          -4.4071   -1.2374   -0.6330 N.4     1  LIG1        0.2462
     18 O          -7.7317   -0.3200    2.6635 O.2     1  LIG1       -0.2701
     19 H         -13.5857   -4.9062    1.2662 H       1  LIG1        0.0639
     20 H         -12.8733   -2.6564    1.9879 H       1  LIG1        0.0631
     21 H         -10.4283   -0.9875    2.3187 H       1  LIG1        0.0652
     22 H         -11.9044   -6.5312    0.5100 H       1  LIG1        0.0840
     23 H          -4.5050   -1.2751    2.0984 H       1  LIG1        0.0525
     24 H          -5.5371    0.1729    2.2361 H       1  LIG1        0.0525
     25 H          -5.6660   -3.3178    0.6158 H       1  LIG1        0.0525
     26 H          -7.2889   -2.9090   -0.0009 H       1  LIG1        0.0525
     27 H          -3.7344    0.4061    0.4884 H       1  LIG1        0.0831
     28 H          -5.3783    0.5678   -0.1752 H       1  LIG1        0.0831
     29 H          -6.3527   -1.1465   -1.4194 H       1  LIG1        0.0831
     30 H          -5.4796   -2.6642   -1.7402 H       1  LIG1        0.0831
     31 H          -4.3989   -0.0101   -2.3381 H       1  LIG1        0.0777
     32 H          -2.8094   -0.2496   -1.5738 H       1  LIG1        0.0777
     33 H          -3.5477   -1.5625   -2.5223 H       1  LIG1        0.0777
     34 H          -7.7890   -3.9337    0.9815 H       1  LIG1        0.1545
     35 H          -3.8053   -1.9081   -0.1792 H       1  LIG1        0.2001
@<TRIPOS>BOND
     1     1     2   ar
     2     1     4   ar
     3     2     5   ar
     4     3     5   ar
     5     3     6   ar
     6     4    14   ar
     7     5     7   ar
     8     6     8    1
     9     6    15   ar
    10     7    14   ar
    11     7    15   ar
    12     8    16   am
    13     8    18    2
    14     9    11    1
    15     9    16    1
    16    10    12    1
    17    10    16    1
    18    11    17    1
    19    12    17    1
    20    13    17    1
    21     1    19    1
    22     2    20    1
    23     3    21    1
    24     4    22    1
    25     9    23    1
    26     9    24    1
    27    10    25    1
    28    10    26    1
    29    11    27    1
    30    11    28    1
    31    12    29    1
    32    12    30    1
    33    13    31    1
    34    13    32    1
    35    13    33    1
    36    15    34    1
    37    17    35    1
