@<TRIPOS>MOLECULE
ChEBML1771
 35 38 0 0 0
SMALL
USER_CHARGES

@<TRIPOS>ATOM
      1 C         -12.4214   -4.7481    1.3400 C.ar    1  LIG1       -0.0615
      2 C         -11.5310   -5.5365    0.6137 C.ar    1  LIG1       -0.0603
      3 C         -12.0057   -3.5411    1.9139 C.ar    1  LIG1       -0.0530
      4 C          -3.2440   -1.6382   -2.3458 C.ar    1  LIG1       -0.0574
      5 C         -10.2005   -5.1456    0.4376 C.ar    1  LIG1       -0.0402
      6 C          -4.2509   -2.3413   -1.6781 C.ar    1  LIG1       -0.0399
      7 C          -3.7024    0.3636   -1.0498 C.ar    1  LIG1       -0.0501
      8 C          -9.9222   -1.9943    2.1802 C.ar    1  LIG1       -0.0276
      9 C          -5.6372    0.0296    0.6676 C.ar    1  LIG1       -0.0276
     10 C         -10.6690   -3.1265    1.7498 C.ar    1  LIG1       -0.0022
     11 C          -4.7224   -0.3247   -0.3632 C.ar    1  LIG1       -0.0020
     12 C          -2.9722   -0.3066   -2.0381 C.ar    1  LIG1       -0.0504
     13 C          -9.7991   -3.9367    1.0169 C.ar    1  LIG1        0.0378
     14 C          -4.9726   -1.6585   -0.6926 C.ar    1  LIG1        0.0378
     15 C          -8.6373   -2.1364    1.7093 C.ar    1  LIG1        0.0811
     16 C          -6.4109   -1.0753    0.9388 C.ar    1  LIG1        0.0811
     17 C          -7.4644   -1.2069    1.8948 C.2     1  LIG1        0.2206
     18 C          -1.8901    0.4157   -2.7698 C.3     1  LIG1       -0.0397
     19 N          -8.5729   -3.3109    1.0087 N.ar    1  LIG1       -0.3112
     20 N          -6.0024   -2.0886    0.1136 N.ar    1  LIG1       -0.3112
     21 O          -7.4659   -0.5422    2.9570 O.2     1  LIG1       -0.2856
     22 H         -13.4514   -5.0727    1.4626 H       1  LIG1        0.0623
     23 H         -11.8753   -6.4703    0.1771 H       1  LIG1        0.0623
     24 H         -12.7103   -2.9359    2.4774 H       1  LIG1        0.0629
     25 H          -2.6696   -2.1482   -3.1160 H       1  LIG1        0.0626
     26 H          -9.5075   -5.7597   -0.1275 H       1  LIG1        0.0642
     27 H          -4.4618   -3.3780   -1.9184 H       1  LIG1        0.0643
     28 H          -3.4871    1.4021   -0.8128 H       1  LIG1        0.0632
     29 H         -10.2902   -1.1661    2.7713 H       1  LIG1        0.0651
     30 H          -5.7173    0.9919    1.1558 H       1  LIG1        0.0651
     31 H          -2.2953    0.9025   -3.6647 H       1  LIG1        0.0280
     32 H          -1.4249    1.1813   -2.1363 H       1  LIG1        0.0280
     33 H          -1.0917   -0.2716   -3.0773 H       1  LIG1        0.0280
     34 H          -7.7461   -3.6702    0.5512 H       1  LIG1        0.1529
     35 H          -6.3974   -3.0188    0.0957 H       1  LIG1        0.1529
@<TRIPOS>BOND
     1     1     2   ar
     2     1     3   ar
     3     2     5   ar
     4     3    10   ar
     5     4     6   ar
     6     4    12   ar
     7     5    13   ar
     8     6    14   ar
     9     7    11   ar
    10     7    12   ar
    11     8    10   ar
    12     8    15   ar
    13     9    11   ar
    14     9    16   ar
    15    10    13   ar
    16    11    14   ar
    17    12    18    1
    18    13    19   ar
    19    14    20   ar
    20    15    17    1
    21    15    19   ar
    22    16    17    1
    23    16    20   ar
    24    17    21    2
    25     1    22    1
    26     2    23    1
    27     3    24    1
    28     4    25    1
    29     5    26    1
    30     6    27    1
    31     7    28    1
    32     8    29    1
    33     9    30    1
    34    18    31    1
    35    18    32    1
    36    18    33    1
    37    19    34    1
    38    20    35    1
