@<TRIPOS>MOLECULE
ChEBML799138
 43 46 0 0 0
SMALL
USER_CHARGES

@<TRIPOS>ATOM
      1 C          -2.0200    0.5953   -3.3472 C.ar    1  LIG1       -0.0621
      2 C          -1.8723   -0.5579   -2.5766 C.ar    1  LIG1       -0.0605
      3 C          -3.1807    1.3616   -3.2404 C.ar    1  LIG1       -0.0605
      4 C          -2.8852   -0.9448   -1.6992 C.ar    1  LIG1       -0.0413
      5 C          -4.1936    0.9747   -2.3630 C.ar    1  LIG1       -0.0413
      6 C         -12.1019   -2.6979    1.9079 C.ar    1  LIG1       -0.0020
      7 C         -11.3236   -4.9777    0.4380 C.ar    1  LIG1       -0.0128
      8 C         -10.7383   -2.9019    1.6023 C.ar    1  LIG1        0.0826
      9 C         -13.0542   -3.6243    1.4710 C.ar    1  LIG1        0.1075
     10 C         -12.6654   -4.7605    0.7650 C.ar    1  LIG1        0.1066
     11 C         -10.3754   -4.0357    0.8697 C.ar    1  LIG1        0.0436
     12 C          -4.0459   -0.1785   -1.5924 C.ar    1  LIG1        0.0360
     13 C          -8.5601   -2.5641    1.5056 C.ar    1  LIG1        0.1644
     14 C          -6.8954   -0.8515    2.3047 C.2     1  LIG1        0.2190
     15 C         -15.2710   -4.1482    1.0165 C.3     1  LIG1        0.0774
     16 C         -14.8205   -5.5952    1.0071 C.3     1  LIG1        0.0774
     17 C          -5.3853   -0.6531    2.2474 C.3     1  LIG1        0.0404
     18 C          -4.9166    0.1332    1.0341 C.3     1  LIG1        0.0298
     19 N          -9.6877   -2.0691    1.9595 N.ar    1  LIG1       -0.2251
     20 N          -7.3014   -2.0420    1.6450 N.am    1  LIG1       -0.2642
     21 O          -7.6356   -0.0620    2.8820 O.2     1  LIG1       -0.2772
     22 O          -6.5686   -0.1038   -0.9882 O.2     1  LIG1       -0.4941
     23 O          -5.2147   -2.1034   -0.2708 O.2     1  LIG1       -0.4941
     24 O         -14.3625   -3.3543    1.7836 O.3     1  LIG1       -0.3408
     25 O         -13.5589   -5.7143    0.3451 O.3     1  LIG1       -0.3409
     26 S          -8.6670   -4.0324    0.6352 S.2     1  LIG1       -0.0518
     27 S          -5.3309   -0.6712   -0.4827 S.O2    1  LIG1       -0.2314
     28 H          -1.2319    0.8969   -4.0311 H       1  LIG1        0.0622
     29 H          -0.9693   -1.1553   -2.6602 H       1  LIG1        0.0623
     30 H          -3.2955    2.2591   -3.8410 H       1  LIG1        0.0623
     31 H          -2.7603   -1.8455   -1.1042 H       1  LIG1        0.0641
     32 H          -5.0940    1.5784   -2.2888 H       1  LIG1        0.0641
     33 H         -12.4053   -1.8196    2.4714 H       1  LIG1        0.0674
     34 H         -11.0206   -5.8578   -0.1218 H       1  LIG1        0.0664
     35 H         -15.3268   -3.7351    0.0018 H       1  LIG1        0.0597
     36 H         -16.2602   -4.0604    1.4763 H       1  LIG1        0.0597
     37 H         -14.7219   -5.9953    2.0242 H       1  LIG1        0.0597
     38 H         -15.5411   -6.2147    0.4645 H       1  LIG1        0.0597
     39 H          -5.1010   -0.1078    3.1556 H       1  LIG1        0.0380
     40 H          -4.8951   -1.6335    2.2777 H       1  LIG1        0.0380
     41 H          -5.3479    1.1377    0.9968 H       1  LIG1        0.0470
     42 H          -3.8258    0.2226    1.0404 H       1  LIG1        0.0470
     43 H          -6.5135   -2.5693    1.2220 H       1  LIG1        0.1577
@<TRIPOS>BOND
     1     1     2   ar
     2     1     3   ar
     3     2     4   ar
     4     3     5   ar
     5     4    12   ar
     6     5    12   ar
     7     6     8   ar
     8     6     9   ar
     9     7    10   ar
    10     7    11   ar
    11     8    11   ar
    12     8    19   ar
    13     9    10   ar
    14     9    24    1
    15    10    25    1
    16    11    26   ar
    17    12    27    1
    18    13    19   ar
    19    13    20    1
    20    13    26   ar
    21    14    17    1
    22    14    20   am
    23    14    21    2
    24    15    16    1
    25    15    24    1
    26    16    25    1
    27    17    18    1
    28    18    27    1
    29    22    27    2
    30    23    27    2
    31     1    28    1
    32     2    29    1
    33     3    30    1
    34     4    31    1
    35     5    32    1
    36     6    33    1
    37     7    34    1
    38    15    35    1
    39    15    36    1
    40    16    37    1
    41    16    38    1
    42    17    39    1
    43    17    40    1
    44    18    41    1
    45    18    42    1
    46    20    43    1
