@<TRIPOS>MOLECULE
ChEBML212753
 36 38 0 0 0
SMALL
USER_CHARGES

@<TRIPOS>ATOM
      1 C         -12.0690   -3.4029    1.4302 C.ar    1  LIG1       -0.0519
      2 C         -12.4152   -4.7243    1.1254 C.ar    1  LIG1       -0.0472
      3 C         -10.0109   -1.8401    1.7855 C.ar    1  LIG1       -0.0262
      4 C         -10.0746   -5.3584    0.9714 C.ar    1  LIG1       -0.0259
      5 C         -10.7071   -3.0497    1.5077 C.ar    1  LIG1       -0.0021
      6 C          -9.7432   -4.0336    1.2770 C.ar    1  LIG1        0.0389
      7 C         -11.4317   -5.6854    0.8999 C.ar    1  LIG1        0.0194
      8 C          -8.6630   -2.1082    1.7197 C.ar    1  LIG1        0.0947
      9 C          -7.5658   -1.2084    1.9249 C.2     1  LIG1        0.2602
     10 C          -6.4040   -2.1582   -0.1005 C.3     1  LIG1        0.0539
     11 C          -5.0607   -1.1563    1.7014 C.3     1  LIG1        0.0539
     12 C          -5.6941   -1.3027   -1.1394 C.3     1  LIG1       -0.0183
     13 C          -4.3190   -0.2882    0.6941 C.3     1  LIG1       -0.0183
     14 C          -3.5041   -0.2223   -1.6659 C.3     1  LIG1       -0.0453
     15 N          -8.5116   -3.4337    1.4120 N.ar    1  LIG1       -0.3101
     16 N          -6.3960   -1.4939    1.2091 N.am    1  LIG1       -0.2863
     17 N          -4.2971   -0.9904   -0.6461 N.4     1  LIG1        0.2462
     18 O          -7.6774   -0.2522    2.6901 O.2     1  LIG1       -0.2701
     19 BR        -11.9381   -7.4625    0.4889 Br      1  LIG1       -0.0507
     20 H         -12.8453   -2.6631    1.6031 H       1  LIG1        0.0630
     21 H         -13.4695   -4.9854    1.0676 H       1  LIG1        0.0635
     22 H         -10.4534   -0.8785    2.0099 H       1  LIG1        0.0651
     23 H          -9.2982   -6.0969    0.7967 H       1  LIG1        0.0654
     24 H          -7.4206   -2.3707   -0.4399 H       1  LIG1        0.0525
     25 H          -5.8951   -3.1222    0.0209 H       1  LIG1        0.0525
     26 H          -4.5252   -2.0980    1.8711 H       1  LIG1        0.0525
     27 H          -5.1202   -0.6360    2.6623 H       1  LIG1        0.0525
     28 H          -5.5967   -1.8393   -2.0885 H       1  LIG1        0.0831
     29 H          -6.2062   -0.3474   -1.3011 H       1  LIG1        0.0831
     30 H          -4.8137    0.6787    0.5485 H       1  LIG1        0.0831
     31 H          -3.2805   -0.1319    1.0028 H       1  LIG1        0.0831
     32 H          -4.0021    0.7362   -1.8232 H       1  LIG1        0.0777
     33 H          -2.4971   -0.0810   -1.2688 H       1  LIG1        0.0777
     34 H          -3.4844   -0.8099   -2.5857 H       1  LIG1        0.0777
     35 H          -7.6253   -3.9064    1.2990 H       1  LIG1        0.1529
     36 H          -3.8112   -1.8882   -0.5133 H       1  LIG1        0.2001
@<TRIPOS>BOND
     1     1     2   ar
     2     1     5   ar
     3     2     7   ar
     4     3     5   ar
     5     3     8   ar
     6     4     6   ar
     7     4     7   ar
     8     5     6   ar
     9     6    15   ar
    10     7    19    1
    11     8     9    1
    12     8    15   ar
    13     9    16   am
    14     9    18    2
    15    10    12    1
    16    10    16    1
    17    11    13    1
    18    11    16    1
    19    12    17    1
    20    13    17    1
    21    14    17    1
    22     1    20    1
    23     2    21    1
    24     3    22    1
    25     4    23    1
    26    10    24    1
    27    10    25    1
    28    11    26    1
    29    11    27    1
    30    12    28    1
    31    12    29    1
    32    13    30    1
    33    13    31    1
    34    14    32    1
    35    14    33    1
    36    14    34    1
    37    15    35    1
    38    17    36    1
