@<TRIPOS>MOLECULE
ChEBML1137488
 46 49 0 0 0
SMALL
USER_CHARGES

@<TRIPOS>ATOM
      1 C          -3.6529    1.2134   -3.2082 C.ar    1  LIG1       -0.0602
      2 C          -2.3857    0.8225   -3.5990 C.ar    1  LIG1       -0.0595
      3 C         -12.9821   -2.5088    1.8867 C.ar    1  LIG1       -0.0513
      4 C         -12.5291   -4.6773    0.9368 C.ar    1  LIG1       -0.0513
      5 C          -4.2547    0.6235   -2.1126 C.ar    1  LIG1       -0.0382
      6 C          -1.7137   -0.1605   -2.8958 C.ar    1  LIG1       -0.0301
      7 C         -14.3327   -2.7921    1.8764 C.ar    1  LIG1       -0.0428
      8 C         -13.8811   -4.9538    0.9362 C.ar    1  LIG1       -0.0428
      9 C         -10.0163   -1.9652    1.8825 C.ar    1  LIG1       -0.0059
     10 C         -12.0710   -3.4530    1.4186 C.ar    1  LIG1        0.0019
     11 C          -3.5887   -0.3671   -1.4056 C.ar    1  LIG1        0.0592
     12 C          -2.3094   -0.7563   -1.7966 C.ar    1  LIG1        0.0925
     13 C         -14.7827   -4.0122    1.4019 C.ar    1  LIG1        0.0406
     14 C         -10.6171   -3.1532    1.4276 C.ar    1  LIG1        0.0905
     15 C          -8.6595   -2.1480    1.6953 C.ar    1  LIG1        0.1123
     16 C          -7.5889   -1.1896    2.0145 C.2     1  LIG1        0.2614
     17 C          -4.5882    0.1136    0.6100 C.3     1  LIG1        0.0275
     18 C          -5.4310   -1.5985   -0.7875 C.3     1  LIG1        0.0275
     19 C          -5.2438   -0.4778    1.8620 C.3     1  LIG1        0.0303
     20 C          -6.1423   -2.3029    0.3724 C.3     1  LIG1        0.0303
     21 N          -9.6560   -3.9508    1.0118 N.ar    1  LIG1       -0.1834
     22 N          -8.5081   -3.3919    1.1498 N.ar    1  LIG1       -0.2326
     23 N          -4.1982   -0.9701   -0.2993 N.pl3   1  LIG1       -0.3255
     24 N          -6.3763   -1.3179    1.4404 N.am    1  LIG1       -0.2935
     25 O          -7.7986   -0.2817    2.7962 O.2     1  LIG1       -0.2701
     26 O          -1.6494   -1.7229   -1.1038 O.3     1  LIG1       -0.3589
     27 CL        -16.4829   -4.3629    1.3915 Cl      1  LIG1       -0.0843
     28 H          -4.1739    1.9818   -3.7602 H       1  LIG1        0.0623
     29 H          -1.9192    1.2864   -4.4554 H       1  LIG1        0.0623
     30 H         -12.6320   -1.5567    2.2575 H       1  LIG1        0.0630
     31 H         -11.8269   -5.4105    0.5683 H       1  LIG1        0.0630
     32 H          -5.2446    0.9309   -1.8093 H       1  LIG1        0.0643
     33 H          -0.7238   -0.4635   -3.2038 H       1  LIG1        0.0651
     34 H         -15.0398   -2.0609    2.2395 H       1  LIG1        0.0638
     35 H         -14.2368   -5.9046    0.5676 H       1  LIG1        0.0638
     36 H         -10.5101   -1.0961    2.2912 H       1  LIG1        0.0668
     37 H          -3.7040    0.6823    0.8974 H       1  LIG1        0.0485
     38 H          -5.2956    0.7728    0.1067 H       1  LIG1        0.0485
     39 H          -6.0869   -0.8348   -1.2055 H       1  LIG1        0.0485
     40 H          -5.1855   -2.3279   -1.5595 H       1  LIG1        0.0485
     41 H          -4.5187   -1.0844    2.4044 H       1  LIG1        0.0486
     42 H          -5.6028    0.3271    2.5034 H       1  LIG1        0.0486
     43 H          -5.5166   -3.1118    0.7496 H       1  LIG1        0.0486
     44 H          -7.0952   -2.7050    0.0286 H       1  LIG1        0.0486
     45 H          -7.6597   -3.7937    0.9056 H       1  LIG1        0.1757
     46 H          -1.8793   -2.5676   -1.5146 H       1  LIG1        0.2183
@<TRIPOS>BOND
     1     1     2   ar
     2     1     5   ar
     3     2     6   ar
     4     3     7   ar
     5     3    10   ar
     6     4     8   ar
     7     4    10   ar
     8     5    11   ar
     9     6    12   ar
    10     7    13   ar
    11     8    13   ar
    12     9    14   ar
    13     9    15   ar
    14    10    14    1
    15    11    12   ar
    16    11    23    1
    17    12    26    1
    18    13    27    1
    19    14    21   ar
    20    15    16    1
    21    15    22   ar
    22    16    24   am
    23    16    25    2
    24    17    19    1
    25    17    23    1
    26    18    20    1
    27    18    23    1
    28    19    24    1
    29    20    24    1
    30    21    22   ar
    31     1    28    1
    32     2    29    1
    33     3    30    1
    34     4    31    1
    35     5    32    1
    36     6    33    1
    37     7    34    1
    38     8    35    1
    39     9    36    1
    40    17    37    1
    41    17    38    1
    42    18    39    1
    43    18    40    1
    44    19    41    1
    45    19    42    1
    46    20    43    1
    47    20    44    1
    48    22    45    1
    49    26    46    1
