@<TRIPOS>MOLECULE
ChEBML1023494
 31 33 0 0 0
SMALL
USER_CHARGES

@<TRIPOS>ATOM
      1 C         -11.6257   -5.4206    0.4445 C.ar    1  LIG1       -0.0600
      2 C         -12.5108   -4.6604    1.2124 C.ar    1  LIG1       -0.0602
      3 C          -2.2115   -2.0872   -0.0074 C.ar    1  LIG1       -0.0602
      4 C          -3.4646   -1.8888    0.5721 C.ar    1  LIG1       -0.0549
      5 C         -10.2829   -5.0461    0.3093 C.ar    1  LIG1       -0.0344
      6 C         -12.0886   -3.5013    1.8719 C.ar    1  LIG1       -0.0385
      7 C          -1.8498   -1.3719   -1.1490 C.ar    1  LIG1       -0.0435
      8 C          -3.9945   -0.2598   -1.1317 C.ar    1  LIG1       -0.0362
      9 C          -4.3562   -0.9751    0.0099 C.ar    1  LIG1       -0.0240
     10 C          -9.8416   -3.8844    0.9647 C.ar    1  LIG1        0.0867
     11 C         -10.7471   -3.1475    1.7230 C.ar    1  LIG1        0.0577
     12 C          -2.7413   -0.4582   -1.7112 C.ar    1  LIG1        0.0412
     13 C          -8.7295   -2.2402    1.7522 C.ar    1  LIG1        0.1704
     14 C          -5.6799   -0.7662    0.6226 C.2     1  LIG1       -0.0509
     15 C          -6.2782   -1.6324    1.4535 C.2     1  LIG1       -0.0103
     16 C          -7.6504   -1.3539    2.0376 C.2     1  LIG1        0.2184
     17 N          -8.5935   -3.3055    0.9948 N.ar    1  LIG1       -0.2273
     18 N         -10.0087   -2.1019    2.2147 N.ar    1  LIG1       -0.2946
     19 O          -7.8022   -0.3262    2.7425 O.2     1  LIG1       -0.2860
     20 CL         -2.2941    0.4237   -3.1197 Cl      1  LIG1       -0.0843
     21 H         -11.9836   -6.3167   -0.0564 H       1  LIG1        0.0623
     22 H         -13.5478   -4.9750    1.3004 H       1  LIG1        0.0623
     23 H          -1.5173   -2.7987    0.4302 H       1  LIG1        0.0623
     24 H          -3.7320   -2.4539    1.4618 H       1  LIG1        0.0629
     25 H          -9.6026   -5.6433   -0.2892 H       1  LIG1        0.0646
     26 H         -12.7730   -2.9096    2.4686 H       1  LIG1        0.0643
     27 H          -0.8699   -1.5369   -1.5897 H       1  LIG1        0.0638
     28 H          -4.6896    0.4532   -1.5710 H       1  LIG1        0.0644
     29 H          -6.1779    0.1594    0.3433 H       1  LIG1        0.0630
     30 H          -5.8169   -2.5743    1.7259 H       1  LIG1        0.0665
     31 H         -10.3514   -1.3618    2.8128 H       1  LIG1        0.1545
@<TRIPOS>BOND
     1     1     2   ar
     2     1     5   ar
     3     2     6   ar
     4     3     4   ar
     5     3     7   ar
     6     4     9   ar
     7     5    10   ar
     8     6    11   ar
     9     7    12   ar
    10     8     9   ar
    11     8    12   ar
    12     9    14    1
    13    10    11   ar
    14    10    17   ar
    15    11    18   ar
    16    12    20    1
    17    13    16    1
    18    13    17   ar
    19    13    18   ar
    20    14    15    2
    21    15    16    1
    22    16    19    2
    23     1    21    1
    24     2    22    1
    25     3    23    1
    26     4    24    1
    27     5    25    1
    28     6    26    1
    29     7    27    1
    30     8    28    1
    31    14    29    1
    32    15    30    1
    33    18    31    1
