@<TRIPOS>MOLECULE
ChEBML359189
 53 57 0 0 0
SMALL
USER_CHARGES

@<TRIPOS>ATOM
      1 C          -1.9619    1.1368   -2.9493 C.ar    1  LIG1       -0.0614
      2 C         -17.6233   -6.3412    3.1817 C.ar    1  LIG1       -0.0614
      3 C          -1.0138    0.1584   -3.2482 C.ar    1  LIG1       -0.0607
      4 C         -18.6061   -6.3806    2.1926 C.ar    1  LIG1       -0.0607
      5 C          -6.5506    0.4794    3.3200 C.ar    1  LIG1       -0.0597
      6 C          -7.6168   -0.3999    3.1313 C.ar    1  LIG1       -0.0513
      7 C          -3.0952    0.8061   -2.2065 C.ar    1  LIG1       -0.0482
      8 C         -16.2772   -6.2619    2.8245 C.ar    1  LIG1       -0.0482
      9 C         -10.2955   -5.0861    0.5064 C.ar    1  LIG1       -0.0367
     10 C          -5.5479    0.5770    2.3552 C.ar    1  LIG1       -0.0407
     11 C         -11.6361   -5.4307    0.7086 C.ar    1  LIG1       -0.0387
     12 C          -1.1990   -1.1509   -2.8043 C.ar    1  LIG1       -0.0427
     13 C         -18.2429   -6.3410    0.8465 C.ar    1  LIG1       -0.0427
     14 C          -6.6778   -1.0841    1.0130 C.ar    1  LIG1       -0.0299
     15 C         -12.0387   -3.4046    1.9974 C.ar    1  LIG1       -0.0129
     16 C          -7.6804   -1.1816    1.9779 C.ar    1  LIG1        0.0168
     17 C          -3.2804   -0.5032   -1.7626 C.ar    1  LIG1        0.0560
     18 C         -15.9140   -6.2223    1.4783 C.ar    1  LIG1        0.0560
     19 C         -10.6947   -3.0429    1.8043 C.ar    1  LIG1        0.0885
     20 C          -9.8642   -3.8850    1.0702 C.ar    1  LIG1        0.0577
     21 C          -5.6115   -0.2048    1.2017 C.ar    1  LIG1        0.0335
     22 C         -12.4939   -4.6064    1.4404 C.ar    1  LIG1        0.0351
     23 C          -2.3324   -1.4818   -2.0614 C.ar    1  LIG1        0.0531
     24 C         -16.8968   -6.2618    0.4893 C.ar    1  LIG1        0.0531
     25 C          -8.7837   -2.0904    1.7822 C.ar    1  LIG1        0.1298
     26 C          -4.4923   -0.8053   -0.9817 C.2     1  LIG1        0.2487
     27 C         -14.4807   -6.1389    1.1493 C.2     1  LIG1        0.2487
     28 N         -10.0062   -1.9333    2.2381 N.ar    1  LIG1       -0.2308
     29 N          -8.6482   -3.2510    1.0723 N.ar    1  LIG1       -0.2973
     30 N          -4.6074   -0.1080    0.2381 N.am    1  LIG1       -0.2813
     31 N         -13.8262   -4.9836    1.6205 N.am    1  LIG1       -0.2812
     32 O          -5.3081   -1.6359   -1.3759 O.2     1  LIG1       -0.2714
     33 O         -13.9331   -7.0133    0.4813 O.2     1  LIG1       -0.2714
     34 CL         -2.5236   -3.1141   -1.5310 Cl      1  LIG1       -0.0834
     35 CL        -16.4899   -6.2148   -1.1884 Cl      1  LIG1       -0.0834
     36 H          -1.8175    2.1563   -3.2953 H       1  LIG1        0.0623
     37 H         -17.9064   -6.3723    4.2298 H       1  LIG1        0.0623
     38 H          -0.1313    0.4162   -3.8265 H       1  LIG1        0.0623
     39 H         -19.6542   -6.4422    2.4709 H       1  LIG1        0.0623
     40 H          -6.5011    1.0880    4.2183 H       1  LIG1        0.0623
     41 H          -8.3910   -0.4644    3.8926 H       1  LIG1        0.0630
     42 H          -3.8264    1.5781   -1.9806 H       1  LIG1        0.0631
     43 H         -15.5213   -6.2320    3.6051 H       1  LIG1        0.0631
     44 H          -9.6281   -5.7244   -0.0612 H       1  LIG1        0.0644
     45 H          -4.7212    1.2649    2.5136 H       1  LIG1        0.0642
     46 H         -12.0061   -6.3613    0.2826 H       1  LIG1        0.0643
     47 H          -0.4506   -1.9015   -3.0457 H       1  LIG1        0.0638
     48 H         -19.0212   -6.3727    0.0882 H       1  LIG1        0.0638
     49 H          -6.7233   -1.6915    0.1110 H       1  LIG1        0.0650
     50 H         -12.7044   -2.7623    2.5665 H       1  LIG1        0.0666
     51 H          -7.8048   -3.5873    0.6262 H       1  LIG1        0.1544
     52 H          -3.8540    0.5581    0.4440 H       1  LIG1        0.1560
     53 H         -14.4036   -4.3351    2.1672 H       1  LIG1        0.1560
@<TRIPOS>BOND
     1     1     3   ar
     2     1     7   ar
     3     2     4   ar
     4     2     8   ar
     5     3    12   ar
     6     4    13   ar
     7     5     6   ar
     8     5    10   ar
     9     6    16   ar
    10     7    17   ar
    11     8    18   ar
    12     9    11   ar
    13     9    20   ar
    14    10    21   ar
    15    11    22   ar
    16    12    23   ar
    17    13    24   ar
    18    14    16   ar
    19    14    21   ar
    20    15    19   ar
    21    15    22   ar
    22    16    25    1
    23    17    23   ar
    24    17    26    1
    25    18    24   ar
    26    18    27    1
    27    19    20   ar
    28    19    28   ar
    29    20    29   ar
    30    21    30    1
    31    22    31    1
    32    23    34    1
    33    24    35    1
    34    25    28   ar
    35    25    29   ar
    36    26    30   am
    37    26    32    2
    38    27    31   am
    39    27    33    2
    40     1    36    1
    41     2    37    1
    42     3    38    1
    43     4    39    1
    44     5    40    1
    45     6    41    1
    46     7    42    1
    47     8    43    1
    48     9    44    1
    49    10    45    1
    50    11    46    1
    51    12    47    1
    52    13    48    1
    53    14    49    1
    54    15    50    1
    55    29    51    1
    56    30    52    1
    57    31    53    1
