@<TRIPOS>MOLECULE
ChEBML198372
 51 53 0 0 0
SMALL
USER_CHARGES

@<TRIPOS>ATOM
      1 C          -2.2359    0.9600   -3.4732 C.ar    1  LIG1       -0.0422
      2 C         -11.9786   -2.9641    0.9315 C.ar    1  LIG1       -0.0566
      3 C         -11.6332   -5.3519    0.8033 C.ar    1  LIG1       -0.0566
      4 C         -10.6125   -2.7777    1.1423 C.ar    1  LIG1       -0.0404
      5 C         -10.2670   -5.1655    1.0141 C.ar    1  LIG1       -0.0404
      6 C          -1.9716   -0.3831   -3.2296 C.ar    1  LIG1       -0.0384
      7 C          -3.3302    1.5304   -2.8429 C.ar    1  LIG1        0.0292
      8 C         -12.4890   -4.2511    0.7619 C.ar    1  LIG1       -0.0425
      9 C          -9.7567   -3.8784    1.1837 C.ar    1  LIG1        0.0340
     10 C          -2.7979   -1.1046   -2.3751 C.ar    1  LIG1        0.0809
     11 C          -3.8668   -0.4417   -1.7938 C.ar    1  LIG1        0.1388
     12 C          -7.8677   -2.4244    1.6394 C.2     1  LIG1        0.3050
     13 C          -4.8280   -0.6860    0.4395 C.3     1  LIG1        0.0289
     14 C          -5.7802   -1.9265   -1.5279 C.3     1  LIG1        0.0289
     15 C          -6.2950   -0.6738    0.8631 C.3     1  LIG1        0.0315
     16 C          -6.4705   -2.7724   -0.4569 C.3     1  LIG1        0.0315
     17 C         -14.4285   -3.7147   -0.7534 C.3     1  LIG1       -0.0561
     18 C         -14.7873   -3.8977    1.7313 C.3     1  LIG1       -0.0561
     19 C         -14.4055   -5.9369    0.3613 C.3     1  LIG1       -0.0561
     20 C         -13.9497   -4.4503    0.5365 C.3     1  LIG1       -0.0132
     21 N          -4.1553    0.8618   -2.0065 N.ar    1  LIG1       -0.2398
     22 N          -4.6918   -1.1372   -0.9480 N.pl3   1  LIG1       -0.3115
     23 N          -6.9140   -1.9877    0.7006 N.am    1  LIG1       -0.2824
     24 N          -8.3857   -3.6917    1.3951 N.am    1  LIG1       -0.2691
     25 O          -8.2122   -1.7407    2.6088 O.2     1  LIG1       -0.2537
     26 CL         -2.4557   -2.7674   -2.0841 Cl      1  LIG1       -0.0805
     27 H          -1.6057    1.5421   -4.1360 H       1  LIG1        0.0639
     28 H         -12.6385   -2.1009    0.9030 H       1  LIG1        0.0626
     29 H         -12.0224   -6.3582    0.6729 H       1  LIG1        0.0626
     30 H         -10.2256   -1.7702    1.2728 H       1  LIG1        0.0642
     31 H          -9.6092   -6.0304    1.0456 H       1  LIG1        0.0642
     32 H          -1.1185   -0.8521   -3.7131 H       1  LIG1        0.0640
     33 H          -3.5797    2.5747   -3.0003 H       1  LIG1        0.0840
     34 H          -4.4104    0.3201    0.5695 H       1  LIG1        0.0485
     35 H          -4.2556   -1.3644    1.0837 H       1  LIG1        0.0485
     36 H          -5.3925   -2.5867   -2.3131 H       1  LIG1        0.0485
     37 H          -6.5106   -1.2512   -1.9919 H       1  LIG1        0.0485
     38 H          -6.3793   -0.3427    1.9035 H       1  LIG1        0.0486
     39 H          -6.8694    0.0292    0.2477 H       1  LIG1        0.0486
     40 H          -7.3302   -3.2838   -0.9022 H       1  LIG1        0.0486
     41 H          -5.7826   -3.5370   -0.0760 H       1  LIG1        0.0486
     42 H         -15.5004   -3.8452   -0.9425 H       1  LIG1        0.0239
     43 H         -14.2434   -2.6366   -0.6927 H       1  LIG1        0.0239
     44 H         -13.8868   -4.0926   -1.6286 H       1  LIG1        0.0239
     45 H         -15.8611   -4.0421    1.5693 H       1  LIG1        0.0239
     46 H         -14.5390   -4.3823    2.6828 H       1  LIG1        0.0239
     47 H         -14.6144   -2.8215    1.8499 H       1  LIG1        0.0239
     48 H         -15.4860   -6.0313    0.1984 H       1  LIG1        0.0239
     49 H         -13.9090   -6.3982   -0.5005 H       1  LIG1        0.0239
     50 H         -14.1617   -6.5271    1.2524 H       1  LIG1        0.0239
     51 H          -7.8077   -4.5238    1.4164 H       1  LIG1        0.1573
@<TRIPOS>BOND
     1     1     6   ar
     2     1     7   ar
     3     2     4   ar
     4     2     8   ar
     5     3     5   ar
     6     3     8   ar
     7     4     9   ar
     8     5     9   ar
     9     6    10   ar
    10     7    21   ar
    11     8    20    1
    12     9    24    1
    13    10    11   ar
    14    10    26    1
    15    11    21   ar
    16    11    22    1
    17    12    23   am
    18    12    24   am
    19    12    25    2
    20    13    15    1
    21    13    22    1
    22    14    16    1
    23    14    22    1
    24    15    23    1
    25    16    23    1
    26    17    20    1
    27    18    20    1
    28    19    20    1
    29     1    27    1
    30     2    28    1
    31     3    29    1
    32     4    30    1
    33     5    31    1
    34     6    32    1
    35     7    33    1
    36    13    34    1
    37    13    35    1
    38    14    36    1
    39    14    37    1
    40    15    38    1
    41    15    39    1
    42    16    40    1
    43    16    41    1
    44    17    42    1
    45    17    43    1
    46    17    44    1
    47    18    45    1
    48    18    46    1
    49    18    47    1
    50    19    48    1
    51    19    49    1
    52    19    50    1
    53    24    51    1
