@<TRIPOS>MOLECULE
ChEBML2222
 44 47 0 0 0
SMALL
USER_CHARGES

@<TRIPOS>ATOM
      1 C          -3.1816   -1.0799   -2.3903 C.ar    1  LIG1       -0.0615
      2 C          -2.4554   -0.6346   -1.2874 C.ar    1  LIG1       -0.0603
      3 C          -4.5448   -1.3763   -2.2781 C.ar    1  LIG1       -0.0530
      4 C          -3.0659   -0.4715   -0.0406 C.ar    1  LIG1       -0.0402
      5 C         -10.2182   -5.2436    0.5955 C.ar    1  LIG1       -0.0376
      6 C         -11.5500   -5.6439    0.7366 C.ar    1  LIG1       -0.0292
      7 C         -12.1410   -3.5204    1.7555 C.ar    1  LIG1       -0.0219
      8 C          -6.5112   -1.4206   -0.5648 C.ar    1  LIG1       -0.0276
      9 C         -10.1063   -1.9008    1.9588 C.ar    1  LIG1       -0.0275
     10 C          -5.1818   -1.2197   -1.0311 C.ar    1  LIG1       -0.0022
     11 C         -10.8043   -3.0948    1.6237 C.ar    1  LIG1        0.0004
     12 C          -4.4292   -0.7719    0.0566 C.ar    1  LIG1        0.0378
     13 C          -9.8756   -3.9644    1.0480 C.ar    1  LIG1        0.0379
     14 C         -12.4983   -4.7973    1.3073 C.ar    1  LIG1        0.0860
     15 C          -6.5393   -1.0972    0.7722 C.ar    1  LIG1        0.0811
     16 C          -8.7919   -2.0658    1.5872 C.ar    1  LIG1        0.0811
     17 C          -7.7100   -1.1424    1.7216 C.2     1  LIG1        0.2206
     18 C         -14.6026   -4.9118    0.3242 C.2     1  LIG1        0.2659
     19 C         -17.4476   -7.4459    0.9858 C.3     1  LIG1       -0.0649
     20 C         -16.0036   -5.4235    0.5774 C.3     1  LIG1        0.0338
     21 C         -16.0321   -6.9381    0.7657 C.3     1  LIG1       -0.0468
     22 N          -5.2789   -0.7067    1.1379 N.ar    1  LIG1       -0.3112
     23 N          -8.6625   -3.3134    1.0386 N.ar    1  LIG1       -0.3112
     24 O          -7.6797   -0.3069    2.6552 O.2     1  LIG1       -0.2856
     25 O         -14.2338   -4.3251   -0.6841 O.2     1  LIG1       -0.2661
     26 O         -13.7893   -5.2164    1.4312 O.3     1  LIG1       -0.2782
     27 H          -2.6849   -1.1981   -3.3498 H       1  LIG1        0.0623
     28 H          -1.3977   -0.4105   -1.3972 H       1  LIG1        0.0623
     29 H          -5.0991   -1.7222   -3.1461 H       1  LIG1        0.0629
     30 H          -2.5003   -0.1254    0.8180 H       1  LIG1        0.0642
     31 H          -9.4807   -5.9032    0.1507 H       1  LIG1        0.0643
     32 H         -11.8427   -6.6335    0.3929 H       1  LIG1        0.0651
     33 H         -12.8866   -2.8657    2.1987 H       1  LIG1        0.0657
     34 H          -7.3541   -1.7652   -1.1489 H       1  LIG1        0.0651
     35 H         -10.5253   -1.0175    2.4225 H       1  LIG1        0.0651
     36 H         -18.0954   -7.1789    0.1448 H       1  LIG1        0.0230
     37 H         -17.4605   -8.5348    1.0978 H       1  LIG1        0.0230
     38 H         -17.8713   -7.0061    1.8941 H       1  LIG1        0.0230
     39 H         -16.3892   -4.9316    1.4775 H       1  LIG1        0.0373
     40 H         -16.6286   -5.1452   -0.2784 H       1  LIG1        0.0373
     41 H         -15.4087   -7.2203    1.6226 H       1  LIG1        0.0269
     42 H         -15.6028   -7.4326   -0.1140 H       1  LIG1        0.0269
     43 H          -5.0077   -0.4136    2.0665 H       1  LIG1        0.1529
     44 H          -7.8027   -3.7035    0.6777 H       1  LIG1        0.1529
@<TRIPOS>BOND
     1     1     2   ar
     2     1     3   ar
     3     2     4   ar
     4     3    10   ar
     5     4    12   ar
     6     5     6   ar
     7     5    13   ar
     8     6    14   ar
     9     7    11   ar
    10     7    14   ar
    11     8    10   ar
    12     8    15   ar
    13     9    11   ar
    14     9    16   ar
    15    10    12   ar
    16    11    13   ar
    17    12    22   ar
    18    13    23   ar
    19    14    26    1
    20    15    17    1
    21    15    22   ar
    22    16    17    1
    23    16    23   ar
    24    17    24    2
    25    18    20    1
    26    18    25    2
    27    18    26    1
    28    19    21    1
    29    20    21    1
    30     1    27    1
    31     2    28    1
    32     3    29    1
    33     4    30    1
    34     5    31    1
    35     6    32    1
    36     7    33    1
    37     8    34    1
    38     9    35    1
    39    19    36    1
    40    19    37    1
    41    19    38    1
    42    20    39    1
    43    20    40    1
    44    21    41    1
    45    21    42    1
    46    22    43    1
    47    23    44    1
