@<TRIPOS>MOLECULE
ChEBML411631
 35 37 0 0 0
SMALL
USER_CHARGES

@<TRIPOS>ATOM
      1 C          -2.8887   -0.5074   -0.9409 C.ar    1  LIG1       -0.0622
      2 C          -2.9692    0.0560    0.3326 C.ar    1  LIG1       -0.0619
      3 C          -3.9247   -1.3127   -1.4142 C.ar    1  LIG1       -0.0619
      4 C         -10.4531   -2.1712    2.2604 C.ar    1  LIG1       -0.0519
      5 C          -4.0857   -0.1862    1.1329 C.ar    1  LIG1       -0.0574
      6 C          -5.0412   -1.5547   -0.6139 C.ar    1  LIG1       -0.0574
      7 C          -9.0817   -1.9338    2.1354 C.ar    1  LIG1       -0.0404
      8 C         -12.4163   -3.7203    1.5861 C.ar    1  LIG1       -0.0344
      9 C          -8.8517   -3.8775    0.7145 C.ar    1  LIG1       -0.0265
     10 C         -11.0515   -3.2762    1.6082 C.ar    1  LIG1       -0.0102
     11 C          -5.1217   -0.9915    0.6598 C.ar    1  LIG1       -0.0309
     12 C          -8.2913   -2.7794    1.3699 C.ar    1  LIG1        0.0274
     13 C         -10.2345   -4.1139    0.8427 C.ar    1  LIG1        0.0215
     14 C         -12.5987   -4.8514    0.8266 C.ar    1  LIG1        0.0775
     15 C         -13.8035   -5.5730    0.5742 C.2     1  LIG1        0.2724
     16 C          -6.3236   -1.2526    1.5207 C.3     1  LIG1        0.0336
     17 N          -6.9066   -2.5298    1.2523 N.pl3   1  LIG1       -0.3402
     18 N         -14.9880   -5.1053    1.1569 N.am    1  LIG1       -0.1935
     19 O         -13.8225   -6.5966   -0.1587 O.2     1  LIG1       -0.2690
     20 O         -16.1703   -5.8121    0.8934 O.3     1  LIG1       -0.2964
     21 S         -11.1411   -5.3965    0.1312 S.2     1  LIG1       -0.0837
     22 H          -2.0198   -0.3177   -1.5645 H       1  LIG1        0.0622
     23 H          -2.1632    0.6839    0.7008 H       1  LIG1        0.0623
     24 H          -3.8628   -1.7505   -2.4061 H       1  LIG1        0.0623
     25 H         -11.0594   -1.4999    2.8639 H       1  LIG1        0.0630
     26 H          -4.1398    0.2568    2.1239 H       1  LIG1        0.0626
     27 H          -5.8435   -2.1836   -0.9908 H       1  LIG1        0.0626
     28 H          -8.6447   -1.0790    2.6459 H       1  LIG1        0.0642
     29 H         -13.2227   -3.2219    2.1112 H       1  LIG1        0.0643
     30 H          -8.2330   -4.5405    0.1152 H       1  LIG1        0.0654
     31 H          -6.0526   -1.2219    2.5817 H       1  LIG1        0.0517
     32 H          -7.0949   -0.4921    1.3599 H       1  LIG1        0.0517
     33 H          -6.3308   -3.2978    0.9654 H       1  LIG1        0.1468
     34 H         -14.9906   -4.2836    1.7490 H       1  LIG1        0.1839
     35 H         -15.8251   -6.5143    0.3162 H       1  LIG1        0.2427
@<TRIPOS>BOND
     1     1     2   ar
     2     1     3   ar
     3     2     5   ar
     4     3     6   ar
     5     4     7   ar
     6     4    10   ar
     7     5    11   ar
     8     6    11   ar
     9     7    12   ar
    10     8    10   ar
    11     8    14   ar
    12     9    12   ar
    13     9    13   ar
    14    10    13   ar
    15    11    16    1
    16    12    17    1
    17    13    21   ar
    18    14    15    1
    19    14    21   ar
    20    15    18   am
    21    15    19    2
    22    16    17    1
    23    18    20    1
    24     1    22    1
    25     2    23    1
    26     3    24    1
    27     4    25    1
    28     5    26    1
    29     6    27    1
    30     7    28    1
    31     8    29    1
    32     9    30    1
    33    16    31    1
    34    16    32    1
    35    17    33    1
    36    18    34    1
    37    20    35    1
