@<TRIPOS>MOLECULE
ChEBML590952
 50 53 0 0 0
SMALL
USER_CHARGES

@<TRIPOS>ATOM
      1 C         -14.0073   -6.6289    0.7170 C.ar    1  LIG1       -0.0622
      2 C         -14.2775   -5.3533    1.1787 C.ar    1  LIG1       -0.0616
      3 C         -12.7019   -7.0249    0.4874 C.ar    1  LIG1       -0.0616
      4 C          -1.7329   -0.2349   -3.1159 C.ar    1  LIG1       -0.0587
      5 C          -1.9659    1.1309   -3.1747 C.ar    1  LIG1       -0.0438
      6 C         -13.2449   -4.4682    1.4128 C.ar    1  LIG1       -0.0527
      7 C         -11.6618   -6.1461    0.7123 C.ar    1  LIG1       -0.0527
      8 C         -11.0814   -2.6251    1.9047 C.ar    1  LIG1       -0.0304
      9 C          -2.6535   -1.0334   -2.4551 C.ar    1  LIG1       -0.0352
     10 C         -10.0094   -1.7786    2.1224 C.ar    1  LIG1       -0.0176
     11 C          -3.0999    1.6468   -2.5768 C.ar    1  LIG1        0.0274
     12 C         -11.9278   -4.8616    1.1828 C.ar    1  LIG1        0.0020
     13 C         -10.8136   -3.9146    1.4321 C.ar    1  LIG1        0.0931
     14 C          -3.7651   -0.4459   -1.8808 C.ar    1  LIG1        0.0840
     15 C          -8.7273   -2.2630    1.8574 C.ar    1  LIG1        0.1430
     16 C          -5.3179   -1.9358    2.5290 C.3     1  LIG1        0.0066
     17 C          -6.7629   -2.1356    3.0503 C.3     1  LIG1        0.0185
     18 C          -6.8976   -1.3868    0.7766 C.3     1  LIG1        0.0550
     19 C          -5.5201   -2.0474    0.9949 C.3     1  LIG1       -0.0056
     20 C          -3.1736   -1.9608    0.5036 C.3     1  LIG1       -0.0447
     21 C          -4.7724   -1.3043   -1.1600 C.3     1  LIG1        0.0093
     22 N          -3.9571    0.8560   -1.9611 N.ar    1  LIG1       -0.2557
     23 N          -9.5612   -4.2878    1.2084 N.ar    1  LIG1       -0.1486
     24 N          -8.5682   -3.4989    1.4063 N.ar    1  LIG1       -0.1346
     25 N          -7.6198   -1.4484    2.0607 N.pl3   1  LIG1       -0.3086
     26 N          -4.4712   -1.3102    0.2778 N.4     1  LIG1        0.2516
     27 H         -14.8185   -7.3184    0.5355 H       1  LIG1        0.0622
     28 H         -15.2986   -5.0495    1.3566 H       1  LIG1        0.0623
     29 H         -12.4967   -8.0223    0.1277 H       1  LIG1        0.0623
     30 H          -0.8549   -0.6661   -3.5737 H       1  LIG1        0.0624
     31 H          -1.2697    1.7831   -3.6809 H       1  LIG1        0.0639
     32 H         -13.4569   -3.4727    1.7739 H       1  LIG1        0.0630
     33 H         -10.6433   -6.4549    0.5283 H       1  LIG1        0.0630
     34 H         -12.0940   -2.3008    2.0939 H       1  LIG1        0.0647
     35 H          -2.5037   -2.1010   -2.3895 H       1  LIG1        0.0644
     36 H         -10.1598   -0.7731    2.4868 H       1  LIG1        0.0661
     37 H          -3.2885    2.7095   -2.6181 H       1  LIG1        0.0839
     38 H          -4.6586   -2.7231    2.8943 H       1  LIG1        0.0340
     39 H          -4.9370   -0.9516    2.8020 H       1  LIG1        0.0340
     40 H          -7.0078   -3.1969    3.0922 H       1  LIG1        0.0471
     41 H          -6.8781   -1.6795    4.0335 H       1  LIG1        0.0471
     42 H          -6.7669   -0.3479    0.4742 H       1  LIG1        0.0527
     43 H          -7.4528   -1.9308    0.0126 H       1  LIG1        0.0527
     44 H          -5.5390   -3.0910    0.6808 H       1  LIG1        0.0869
     45 H          -3.2127   -2.9864    0.1364 H       1  LIG1        0.0777
     46 H          -2.3953   -1.4139   -0.0285 H       1  LIG1        0.0777
     47 H          -2.9501   -1.9652    1.5704 H       1  LIG1        0.0777
     48 H          -4.7240   -2.3227   -1.5455 H       1  LIG1        0.0885
     49 H          -5.7729   -0.9025   -1.3200 H       1  LIG1        0.0885
     50 H          -4.4350   -0.3608    0.6177 H       1  LIG1        0.2008
@<TRIPOS>BOND
     1     1     2   ar
     2     1     3   ar
     3     2     6   ar
     4     3     7   ar
     5     4     5   ar
     6     4     9   ar
     7     5    11   ar
     8     6    12   ar
     9     7    12   ar
    10     8    10   ar
    11     8    13   ar
    12     9    14   ar
    13    10    15   ar
    14    11    22   ar
    15    12    13    1
    16    13    23   ar
    17    14    21    1
    18    14    22   ar
    19    15    24   ar
    20    15    25    1
    21    16    17    1
    22    16    19    1
    23    17    25    1
    24    18    19    1
    25    18    25    1
    26    19    26    1
    27    20    26    1
    28    21    26    1
    29    23    24   ar
    30     1    27    1
    31     2    28    1
    32     3    29    1
    33     4    30    1
    34     5    31    1
    35     6    32    1
    36     7    33    1
    37     8    34    1
    38     9    35    1
    39    10    36    1
    40    11    37    1
    41    16    38    1
    42    16    39    1
    43    17    40    1
    44    17    41    1
    45    18    42    1
    46    18    43    1
    47    19    44    1
    48    20    45    1
    49    20    46    1
    50    20    47    1
    51    21    48    1
    52    21    49    1
    53    26    50    1
