@<TRIPOS>MOLECULE
ChEBML145862
 43 45 0 0 0
SMALL
USER_CHARGES

@<TRIPOS>ATOM
      1 C         -10.2322   -2.0974    2.6963 C.ar    1  LIG1       -0.0331
      2 C          -8.8817   -1.9490    2.3713 C.ar    1  LIG1       -0.0296
      3 C         -11.1901   -4.9300    0.5308 C.ar    1  LIG1       -0.0273
      4 C          -9.0563   -3.7798    0.8210 C.ar    1  LIG1       -0.0223
      5 C         -10.4138   -3.9343    1.1433 C.ar    1  LIG1        0.0048
      6 C         -11.0230   -3.0759    2.1032 C.ar    1  LIG1        0.0728
      7 C         -12.5109   -5.0182    0.8991 C.ar    1  LIG1        0.0782
      8 C          -8.2937   -2.7895    1.4339 C.ar    1  LIG1        0.0757
      9 C         -13.0262   -4.1451    1.8404 C.ar    1  LIG1        0.1500
     10 C         -14.7254   -5.5595    1.1740 C.ar    1  LIG1        0.3127
     11 C          -3.5452    0.3287   -0.7652 C.2     1  LIG1        0.2607
     12 C         -13.3825   -6.9393   -0.4929 C.3     1  LIG1        0.0097
     13 C         -15.2529   -3.7657    2.9277 C.3     1  LIG1        0.0110
     14 C          -3.0978    0.9513   -3.0038 C.3     1  LIG1        0.0453
     15 C          -4.6754    0.1925    0.2294 C.3     1  LIG1        0.0359
     16 C          -5.3228   -1.1873    0.1737 C.3     1  LIG1       -0.0197
     17 C          -6.4269   -1.3329    1.2106 C.3     1  LIG1        0.0538
     18 N         -12.3233   -3.1796    2.4511 N.ar    1  LIG1       -0.2304
     19 N         -13.5270   -5.8872    0.4802 N.ar    1  LIG1       -0.2547
     20 N         -14.3843   -4.4664    2.0182 N.ar    1  LIG1       -0.2408
     21 O         -15.8167   -6.1019    1.0680 O.2     1  LIG1       -0.2530
     22 O          -2.3698    0.0783   -0.5368 O.2     1  LIG1       -0.2666
     23 O          -6.9788   -2.6456    1.1159 O.3     1  LIG1       -0.3460
     24 O          -4.0532    0.7732   -1.9531 O.3     1  LIG1       -0.3193
     25 H         -10.6659   -1.4245    3.4342 H       1  LIG1        0.0646
     26 H          -8.2965   -1.1723    2.8563 H       1  LIG1        0.0651
     27 H         -10.7655   -5.6046   -0.2057 H       1  LIG1        0.0651
     28 H          -8.5878   -4.4338    0.0879 H       1  LIG1        0.0657
     29 H         -13.0915   -7.8701    0.0006 H       1  LIG1        0.0438
     30 H         -12.6147   -6.6742   -1.2249 H       1  LIG1        0.0438
     31 H         -14.3274   -7.1002   -1.0189 H       1  LIG1        0.0438
     32 H         -15.7326   -2.9263    2.4177 H       1  LIG1        0.0438
     33 H         -14.6805   -3.3812    3.7763 H       1  LIG1        0.0438
     34 H         -16.0281   -4.4385    3.3040 H       1  LIG1        0.0438
     35 H          -3.6062    1.3068   -3.9033 H       1  LIG1        0.0536
     36 H          -2.5968    0.0014   -3.2069 H       1  LIG1        0.0536
     37 H          -2.3578    1.6913   -2.6897 H       1  LIG1        0.0536
     38 H          -4.2710    0.3704    1.2322 H       1  LIG1        0.0373
     39 H          -5.4232    0.9611    0.0036 H       1  LIG1        0.0373
     40 H          -5.7336   -1.3761   -0.8265 H       1  LIG1        0.0296
     41 H          -4.5687   -1.9692    0.3306 H       1  LIG1        0.0296
     42 H          -6.0336   -1.1929    2.2224 H       1  LIG1        0.0572
     43 H          -7.2262   -0.6059    1.0348 H       1  LIG1        0.0572
@<TRIPOS>BOND
     1     1     2   ar
     2     1     6   ar
     3     2     8   ar
     4     3     5   ar
     5     3     7   ar
     6     4     5   ar
     7     4     8   ar
     8     5     6   ar
     9     6    18   ar
    10     7     9   ar
    11     7    19   ar
    12     8    23    1
    13     9    18   ar
    14     9    20   ar
    15    10    19   ar
    16    10    20   ar
    17    10    21    2
    18    11    15    1
    19    11    22    2
    20    11    24    1
    21    12    19    1
    22    13    20    1
    23    14    24    1
    24    15    16    1
    25    16    17    1
    26    17    23    1
    27     1    25    1
    28     2    26    1
    29     3    27    1
    30     4    28    1
    31    12    29    1
    32    12    30    1
    33    12    31    1
    34    13    32    1
    35    13    33    1
    36    13    34    1
    37    14    35    1
    38    14    36    1
    39    14    37    1
    40    15    38    1
    41    15    39    1
    42    16    40    1
    43    16    41    1
    44    17    42    1
    45    17    43    1
