@<TRIPOS>MOLECULE
ChEBML300236
 40 42 0 0 0
SMALL
USER_CHARGES

@<TRIPOS>ATOM
      1 C         -10.5084   -5.1275    0.4819 C.ar    1  LIG1       -0.0387
      2 C         -11.8087   -5.5194    0.8130 C.ar    1  LIG1       -0.0416
      3 C         -12.0778   -3.5978    2.2732 C.ar    1  LIG1       -0.0343
      4 C          -9.9565   -2.0816    2.3427 C.ar    1  LIG1       -0.0262
      5 C         -10.7695   -3.1830    1.9544 C.ar    1  LIG1       -0.0007
      6 C         -10.0165   -3.9559    1.0679 C.ar    1  LIG1        0.0379
      7 C         -12.5831   -4.7678    1.6947 C.ar    1  LIG1        0.0413
      8 C          -8.7480   -2.2049    1.6966 C.ar    1  LIG1        0.0945
      9 C          -7.5660   -1.3082    1.7729 C.2     1  LIG1        0.2576
     10 C          -4.5606   -1.0670   -0.3568 C.2     1  LIG1        0.2313
     11 C          -3.1893    0.8231   -3.0158 C.3     1  LIG1       -0.0486
     12 C          -1.9429    0.2923   -3.6611 C.3     1  LIG1       -0.0486
     13 C          -2.1175    0.1953   -2.1738 C.3     1  LIG1       -0.0255
     14 C          -2.3988   -0.8370    0.8905 C.3     1  LIG1        0.0027
     15 C          -5.2418   -0.9262    0.9930 C.3     1  LIG1        0.0887
     16 C          -2.3638   -1.1386   -1.5554 C.3     1  LIG1        0.0166
     17 N          -8.7940   -3.3383    0.9298 N.ar    1  LIG1       -0.3101
     18 N          -6.4650   -1.6765    1.0062 N.am    1  LIG1       -0.3013
     19 N          -3.1624   -1.0162   -0.3421 N.am    1  LIG1       -0.3033
     20 O          -7.6069   -0.3225    2.5046 O.2     1  LIG1       -0.2704
     21 O          -5.2241   -1.2176   -1.3862 O.2     1  LIG1       -0.2756
     22 CL        -14.1824   -5.2824    2.0771 Cl      1  LIG1       -0.0843
     23 H          -9.9064   -5.7139   -0.2042 H       1  LIG1        0.0643
     24 H         -12.2075   -6.4282    0.3671 H       1  LIG1        0.0639
     25 H         -12.6805   -3.0109    2.9615 H       1  LIG1        0.0645
     26 H         -10.2304   -1.2857    3.0224 H       1  LIG1        0.0651
     27 H          -3.3095    1.8981   -2.9598 H       1  LIG1        0.0270
     28 H          -4.1106    0.2763   -3.1746 H       1  LIG1        0.0270
     29 H          -2.0283   -0.6105   -4.2536 H       1  LIG1        0.0270
     30 H          -1.2260    1.0107   -4.0393 H       1  LIG1        0.0270
     31 H          -1.5171    0.8384   -1.5447 H       1  LIG1        0.0319
     32 H          -2.1669   -1.8090    1.3335 H       1  LIG1        0.0433
     33 H          -2.9760   -0.2507    1.6107 H       1  LIG1        0.0433
     34 H          -1.4623   -0.3127    0.6822 H       1  LIG1        0.0433
     35 H          -4.6017   -1.3238    1.7848 H       1  LIG1        0.0567
     36 H          -5.4949    0.1197    1.1849 H       1  LIG1        0.0567
     37 H          -1.4175   -1.6167   -1.2854 H       1  LIG1        0.0472
     38 H          -2.9049   -1.7924   -2.2458 H       1  LIG1        0.0472
     39 H          -8.0411   -3.6760    0.3459 H       1  LIG1        0.1529
     40 H          -6.4912   -2.5454    0.4737 H       1  LIG1        0.1503
@<TRIPOS>BOND
     1     1     2   ar
     2     1     6   ar
     3     2     7   ar
     4     3     5   ar
     5     3     7   ar
     6     4     5   ar
     7     4     8   ar
     8     5     6   ar
     9     6    17   ar
    10     7    22    1
    11     8     9    1
    12     8    17   ar
    13     9    18   am
    14     9    20    2
    15    10    15    1
    16    10    19   am
    17    10    21    2
    18    11    12    1
    19    11    13    1
    20    12    13    1
    21    13    16    1
    22    14    19    1
    23    15    18    1
    24    16    19    1
    25     1    23    1
    26     2    24    1
    27     3    25    1
    28     4    26    1
    29    11    27    1
    30    11    28    1
    31    12    29    1
    32    12    30    1
    33    13    31    1
    34    14    32    1
    35    14    33    1
    36    14    34    1
    37    15    35    1
    38    15    36    1
    39    16    37    1
    40    16    38    1
    41    17    39    1
    42    18    40    1
