@<TRIPOS>MOLECULE
ChEBML492103
 41 43 0 0 0
SMALL
USER_CHARGES

@<TRIPOS>ATOM
      1 C         -10.0637   -5.1288    0.7813 C.ar    1  LIG1       -0.0389
      2 C         -10.9187   -2.9952    1.5255 C.ar    1  LIG1       -0.0389
      3 C         -11.3134   -5.7071    1.0037 C.ar    1  LIG1       -0.0391
      4 C         -12.1685   -3.5735    1.7479 C.ar    1  LIG1       -0.0391
      5 C          -3.4868    0.9685   -2.8748 C.ar    1  LIG1        0.0364
      6 C          -2.4198    0.1520   -3.1861 C.ar    1  LIG1       -0.0029
      7 C          -9.8663   -3.7728    1.0423 C.ar    1  LIG1        0.0329
      8 C         -12.3658   -4.9294    1.4869 C.ar    1  LIG1        0.0446
      9 C          -3.6981   -0.4855   -1.2465 C.ar    1  LIG1        0.1596
     10 C          -6.1042   -2.6443   -0.0785 C.2     1  LIG1       -0.0587
     11 C          -6.8839   -1.6272    0.3130 C.2     1  LIG1        0.0141
     12 C          -8.3198   -1.8718    0.4593 C.2     1  LIG1        0.2429
     13 C          -4.6196   -2.5073   -0.2841 C.3     1  LIG1        0.0322
     14 C          -6.3432   -0.2680    0.6241 C.3     1  LIG1       -0.0070
     15 C          -4.8359   -0.3093    0.8860 C.3     1  LIG1        0.0179
     16 C         -14.7816   -5.4593    0.2294 C.3     1  LIG1        0.4817
     17 N          -4.2212    0.6042   -1.7631 N.ar    1  LIG1       -0.2340
     18 N          -4.1755   -1.1124   -0.1497 N.pl3   1  LIG1       -0.3060
     19 N          -8.5975   -3.1855    0.8167 N.am    1  LIG1       -0.2816
     20 O          -9.1213   -0.9560    0.2685 O.2     1  LIG1       -0.2719
     21 O         -13.7518   -7.0827    1.9816 O.2     1  LIG1       -0.4867
     22 O         -14.6311   -4.8564    2.7624 O.2     1  LIG1       -0.4867
     23 F         -14.1313   -6.0805   -0.7840 F       1  LIG1       -0.1527
     24 F         -16.0315   -5.9794    0.2856 F       1  LIG1       -0.1527
     25 F         -14.9069   -4.1550   -0.1171 F       1  LIG1       -0.1527
     26 S          -2.3214   -1.1257   -2.0463 S.2     1  LIG1       -0.0608
     27 S         -13.9299   -5.6534    1.7655 S.O2    1  LIG1       -0.1450
     28 H          -9.2508   -5.7444    0.4048 H       1  LIG1        0.0643
     29 H         -10.7763   -1.9374    1.7323 H       1  LIG1        0.0643
     30 H         -11.4562   -6.7644    0.7972 H       1  LIG1        0.0642
     31 H         -12.9814   -2.9585    2.1244 H       1  LIG1        0.0642
     32 H          -3.7750    1.8502   -3.4310 H       1  LIG1        0.0846
     33 H          -1.7169    0.2431   -4.0017 H       1  LIG1        0.0718
     34 H          -6.5298   -3.6241   -0.2799 H       1  LIG1        0.0597
     35 H          -4.0978   -3.1380    0.4459 H       1  LIG1        0.0514
     36 H          -4.3736   -2.8754   -1.2876 H       1  LIG1        0.0514
     37 H          -6.5536    0.3948   -0.2248 H       1  LIG1        0.0334
     38 H          -6.8439    0.1568    1.5018 H       1  LIG1        0.0334
     39 H          -4.4491    0.7177    0.8946 H       1  LIG1        0.0473
     40 H          -4.6299   -0.7438    1.8730 H       1  LIG1        0.0473
     41 H          -7.8057   -3.8145    0.9348 H       1  LIG1        0.1560
@<TRIPOS>BOND
     1     1     3   ar
     2     1     7   ar
     3     2     4   ar
     4     2     7   ar
     5     3     8   ar
     6     4     8   ar
     7     5     6   ar
     8     5    17   ar
     9     6    26   ar
    10     7    19    1
    11     8    27    1
    12     9    17   ar
    13     9    18    1
    14     9    26   ar
    15    10    11    2
    16    10    13    1
    17    11    12    1
    18    11    14    1
    19    12    19   am
    20    12    20    2
    21    13    18    1
    22    14    15    1
    23    15    18    1
    24    16    23    1
    25    16    24    1
    26    16    25    1
    27    16    27    1
    28    21    27    2
    29    22    27    2
    30     1    28    1
    31     2    29    1
    32     3    30    1
    33     4    31    1
    34     5    32    1
    35     6    33    1
    36    10    34    1
    37    13    35    1
    38    13    36    1
    39    14    37    1
    40    14    38    1
    41    15    39    1
    42    15    40    1
    43    19    41    1
