@<TRIPOS>MOLECULE
ChEBML311615
 44 46 0 0 0
SMALL
USER_CHARGES

@<TRIPOS>ATOM
      1 C         -12.3617   -3.6970    1.8373 C.ar    1  LIG1       -0.0482
      2 C         -11.6478   -5.7756    0.8338 C.ar    1  LIG1       -0.0482
      3 C         -11.0635   -3.1985    1.7287 C.ar    1  LIG1       -0.0401
      4 C         -10.3495   -5.2771    0.7252 C.ar    1  LIG1       -0.0401
      5 C          -1.9086   -0.5654   -2.9871 C.ar    1  LIG1       -0.0355
      6 C          -2.8801   -1.1576   -2.1992 C.ar    1  LIG1       -0.0179
      7 C         -12.6539   -4.9855    1.3899 C.ar    1  LIG1        0.0556
      8 C         -10.0574   -3.9887    1.1727 C.ar    1  LIG1        0.0340
      9 C          -2.0125    0.7890   -3.2318 C.ar    1  LIG1        0.0601
     10 C          -3.8908   -0.3558   -1.7081 C.ar    1  LIG1        0.1429
     11 C          -8.5209   -2.1210    0.9700 C.2     1  LIG1        0.3050
     12 C          -5.5104   -0.1465    0.1098 C.3     1  LIG1        0.0289
     13 C          -5.5690   -2.1054   -1.4638 C.3     1  LIG1        0.0289
     14 C          -7.0224   -0.3588    0.0816 C.3     1  LIG1        0.0315
     15 C          -6.4637   -2.7334   -0.3942 C.3     1  LIG1        0.0315
     16 C          -0.9913    1.4758   -4.0725 C.3     1  LIG1       -0.0204
     17 C         -14.0420   -5.5182    1.5061 C.3     1  LIG1        0.4160
     18 N          -3.0127    1.5493   -2.7381 N.ar    1  LIG1       -0.1540
     19 N          -3.9672    0.9674   -1.9635 N.ar    1  LIG1       -0.1350
     20 N          -4.8546   -0.9438   -0.9303 N.pl3   1  LIG1       -0.3112
     21 N          -7.3718   -1.7693    0.2369 N.am    1  LIG1       -0.2824
     22 N          -8.7546   -3.4888    1.0633 N.am    1  LIG1       -0.2691
     23 O          -9.2598   -1.2825    1.4964 O.2     1  LIG1       -0.2537
     24 F         -14.9214   -4.6371    2.0684 F       1  LIG1       -0.1661
     25 F         -14.5987   -5.8599    0.3065 F       1  LIG1       -0.1661
     26 F         -14.1098   -6.6439    2.2750 F       1  LIG1       -0.1661
     27 H         -13.1390   -3.0752    2.2738 H       1  LIG1        0.0629
     28 H         -11.8663   -6.7809    0.4834 H       1  LIG1        0.0629
     29 H         -10.8472   -2.1929    2.0802 H       1  LIG1        0.0642
     30 H          -9.5728   -5.9018    0.2913 H       1  LIG1        0.0642
     31 H          -1.0966   -1.1565   -3.3966 H       1  LIG1        0.0643
     32 H          -2.8359   -2.2203   -1.9837 H       1  LIG1        0.0661
     33 H          -5.2974    0.9218   -0.0197 H       1  LIG1        0.0485
     34 H          -5.1063   -0.4458    1.0843 H       1  LIG1        0.0485
     35 H          -4.8553   -2.8568   -1.8222 H       1  LIG1        0.0485
     36 H          -6.1810   -1.7929   -2.3196 H       1  LIG1        0.0485
     37 H          -7.4966    0.2368    0.8687 H       1  LIG1        0.0486
     38 H          -7.4415   -0.0286   -0.8768 H       1  LIG1        0.0486
     39 H          -7.0470   -3.5434   -0.8443 H       1  LIG1        0.0486
     40 H          -5.8514   -3.1631    0.4078 H       1  LIG1        0.0486
     41 H          -1.2893    1.4576   -5.1284 H       1  LIG1        0.0296
     42 H          -0.8603    2.5224   -3.7669 H       1  LIG1        0.0296
     43 H          -0.0087    0.9938   -3.9808 H       1  LIG1        0.0296
     44 H          -7.9995   -4.1627    1.1121 H       1  LIG1        0.1573
@<TRIPOS>BOND
     1     1     3   ar
     2     1     7   ar
     3     2     4   ar
     4     2     7   ar
     5     3     8   ar
     6     4     8   ar
     7     5     6   ar
     8     5     9   ar
     9     6    10   ar
    10     7    17    1
    11     8    22    1
    12     9    16    1
    13     9    18   ar
    14    10    19   ar
    15    10    20    1
    16    11    21   am
    17    11    22   am
    18    11    23    2
    19    12    14    1
    20    12    20    1
    21    13    15    1
    22    13    20    1
    23    14    21    1
    24    15    21    1
    25    17    24    1
    26    17    25    1
    27    17    26    1
    28    18    19   ar
    29     1    27    1
    30     2    28    1
    31     3    29    1
    32     4    30    1
    33     5    31    1
    34     6    32    1
    35    12    33    1
    36    12    34    1
    37    13    35    1
    38    13    36    1
    39    14    37    1
    40    14    38    1
    41    15    39    1
    42    15    40    1
    43    16    41    1
    44    16    42    1
    45    16    43    1
    46    22    44    1
