@<TRIPOS>MOLECULE
ChEBML367398
 34 37 0 0 0
SMALL
USER_CHARGES

@<TRIPOS>ATOM
      1 C          -2.5356   -2.3112   -2.0693 C.ar    1  LIG1       -0.0620
      2 C          -3.1474   -1.1957   -2.6629 C.ar    1  LIG1       -0.0620
      3 C          -2.7459   -2.6047   -0.7203 C.ar    1  LIG1       -0.0587
      4 C          -3.9783   -0.3577   -1.9162 C.ar    1  LIG1       -0.0587
      5 C         -10.0330   -2.0608    2.2083 C.ar    1  LIG1       -0.0256
      6 C         -12.0176   -3.6233    1.7970 C.ar    1  LIG1       -0.0269
      7 C         -10.7047   -3.1683    1.7081 C.ar    1  LIG1        0.0068
      8 C          -3.5808   -1.7753    0.0094 C.ar    1  LIG1       -0.0429
      9 C          -4.1906   -0.6634   -0.5824 C.ar    1  LIG1       -0.0429
     10 C          -8.7303   -2.2089    1.7449 C.ar    1  LIG1        0.0949
     11 C          -9.8781   -3.9402    0.9909 C.ar    1  LIG1        0.0777
     12 C         -12.1183   -4.8138    1.0825 C.ar    1  LIG1        0.0801
     13 C          -7.5722   -1.3079    1.9773 C.2     1  LIG1        0.2575
     14 C          -3.9259   -1.8649    1.4646 C.3     1  LIG1       -0.0087
     15 C          -5.0038    0.0985    0.4192 C.3     1  LIG1       -0.0087
     16 C          -5.1561   -0.9397    1.5491 C.3     1  LIG1        0.0308
     17 N          -8.6482   -3.3744    0.9946 N.ar    1  LIG1       -0.3045
     18 N          -6.3797   -1.6993    1.3937 N.am    1  LIG1       -0.3067
     19 O          -7.7218   -0.3049    2.6704 O.2     1  LIG1       -0.2704
     20 S         -10.6024   -5.2923    0.3517 S.2     1  LIG1       -0.0615
     21 CL        -13.5074   -5.7962    0.8643 Cl      1  LIG1       -0.0763
     22 H          -1.8876   -2.9482   -2.6652 H       1  LIG1        0.0623
     23 H          -2.9670   -0.9801   -3.7127 H       1  LIG1        0.0623
     24 H          -2.2636   -3.4608   -0.2608 H       1  LIG1        0.0625
     25 H          -4.4413    0.5096   -2.3742 H       1  LIG1        0.0625
     26 H         -10.4089   -1.2523    2.8197 H       1  LIG1        0.0651
     27 H         -12.8383   -3.1538    2.3235 H       1  LIG1        0.0651
     28 H          -4.1454   -2.8910    1.7748 H       1  LIG1        0.0335
     29 H          -3.0962   -1.4635    2.0565 H       1  LIG1        0.0335
     30 H          -4.4299    0.9658    0.7632 H       1  LIG1        0.0335
     31 H          -5.9650    0.4237    0.0101 H       1  LIG1        0.0335
     32 H          -5.2300   -0.4563    2.5288 H       1  LIG1        0.0510
     33 H          -7.8171   -3.7265    0.5381 H       1  LIG1        0.1535
     34 H          -6.3149   -2.5737    0.8860 H       1  LIG1        0.1500
@<TRIPOS>BOND
     1     1     2   ar
     2     1     3   ar
     3     2     4   ar
     4     3     8   ar
     5     4     9   ar
     6     5     7   ar
     7     5    10   ar
     8     6     7   ar
     9     6    12   ar
    10     7    11   ar
    11     8     9   ar
    12     8    14    1
    13     9    15    1
    14    10    13    1
    15    10    17   ar
    16    11    17   ar
    17    11    20   ar
    18    12    20   ar
    19    12    21    1
    20    13    18   am
    21    13    19    2
    22    14    16    1
    23    15    16    1
    24    16    18    1
    25     1    22    1
    26     2    23    1
    27     3    24    1
    28     4    25    1
    29     5    26    1
    30     6    27    1
    31    14    28    1
    32    14    29    1
    33    15    30    1
    34    15    31    1
    35    16    32    1
    36    17    33    1
    37    18    34    1
