@<TRIPOS>MOLECULE
ChEBML406363
 47 49 0 0 0
SMALL
USER_CHARGES

@<TRIPOS>ATOM
      1 C          -2.8349    1.6298   -2.6011 C.ar    1  LIG1       -0.0598
      2 C          -8.2748   -3.4458    1.5291 C.ar    1  LIG1       -0.0494
      3 C          -2.3562    0.8322   -3.6246 C.ar    1  LIG1       -0.0499
      4 C          -9.2766   -4.3493    1.2415 C.ar    1  LIG1       -0.0583
      5 C          -3.4268    1.0541   -1.4942 C.ar    1  LIG1       -0.0409
      6 C          -9.9155   -1.6781    1.6326 C.ar    1  LIG1       -0.0465
      7 C          -3.0536   -1.1262   -2.4362 C.ar    1  LIG1       -0.0287
      8 C          -8.5887   -2.1002    1.7272 C.ar    1  LIG1        0.0375
      9 C          -2.4683   -0.5436   -3.5434 C.ar    1  LIG1        0.0573
     10 C         -10.5902   -3.9243    1.1491 C.ar    1  LIG1       -0.0481
     11 C         -10.9073   -2.5912    1.3391 C.ar    1  LIG1       -0.0474
     12 C          -3.5406   -0.3280   -1.4092 C.ar    1  LIG1        0.0292
     13 C          -7.5200   -1.1263    2.0363 C.2     1  LIG1        0.2456
     14 C          -4.5399    0.1843    0.5960 C.3     1  LIG1        0.0274
     15 C          -5.3640   -1.5680   -0.7620 C.3     1  LIG1        0.0274
     16 C          -5.1846   -0.3884    1.8623 C.3     1  LIG1        0.0302
     17 C          -6.0616   -2.2605    0.4190 C.3     1  LIG1        0.0302
     18 C         -11.6794   -4.9170    0.8340 C.3     1  LIG1       -0.0395
     19 C         -12.3399   -2.1364    1.2308 C.3     1  LIG1       -0.0395
     20 C          -1.9461   -1.4085   -4.6615 C.3     1  LIG1        0.4160
     21 N          -4.1382   -0.9136   -0.2908 N.pl3   1  LIG1       -0.3276
     22 N          -6.3073   -1.2517    1.4621 N.am    1  LIG1       -0.2947
     23 O          -7.7353   -0.2125    2.8084 O.2     1  LIG1       -0.2716
     24 F          -1.3976   -0.5978   -5.6611 F       1  LIG1       -0.1661
     25 F          -0.9602   -2.2678   -4.1649 F       1  LIG1       -0.1661
     26 F          -2.9957   -2.1629   -5.1967 F       1  LIG1       -0.1661
     27 H          -2.7462    2.7041   -2.6678 H       1  LIG1        0.0623
     28 H          -7.2500   -3.7789    1.6014 H       1  LIG1        0.0631
     29 H          -1.8941    1.2850   -4.4893 H       1  LIG1        0.0629
     30 H          -9.0352   -5.3909    1.0884 H       1  LIG1        0.0626
     31 H          -3.8010    1.6775   -0.6957 H       1  LIG1        0.0642
     32 H         -10.1648   -0.6384    1.7847 H       1  LIG1        0.0634
     33 H          -3.1365   -2.2010   -2.3713 H       1  LIG1        0.0648
     34 H          -5.2568    0.8234    0.0808 H       1  LIG1        0.0485
     35 H          -3.6621    0.7703    0.8687 H       1  LIG1        0.0485
     36 H          -6.0308   -0.8219   -1.1944 H       1  LIG1        0.0485
     37 H          -5.1113   -2.3106   -1.5189 H       1  LIG1        0.0485
     38 H          -5.5521    0.4255    2.4874 H       1  LIG1        0.0486
     39 H          -4.4503   -0.9740    2.4155 H       1  LIG1        0.0486
     40 H          -5.4229   -3.0499    0.8150 H       1  LIG1        0.0486
     41 H          -7.0095   -2.6855    0.0890 H       1  LIG1        0.0486
     42 H         -11.8105   -4.9819   -0.2462 H       1  LIG1        0.0280
     43 H         -11.4034   -5.8959    1.2260 H       1  LIG1        0.0280
     44 H         -12.6123   -4.5911    1.2942 H       1  LIG1        0.0280
     45 H         -12.8166   -2.2010    2.2089 H       1  LIG1        0.0280
     46 H         -12.3681   -1.1047    0.8804 H       1  LIG1        0.0280
     47 H         -12.8714   -2.7745    0.5248 H       1  LIG1        0.0280
@<TRIPOS>BOND
     1     1     3   ar
     2     1     5   ar
     3     2     4   ar
     4     2     8   ar
     5     3     9   ar
     6     4    10   ar
     7     5    12   ar
     8     6     8   ar
     9     6    11   ar
    10     7     9   ar
    11     7    12   ar
    12     8    13    1
    13     9    20    1
    14    10    11   ar
    15    10    18    1
    16    11    19    1
    17    12    21    1
    18    13    22   am
    19    13    23    2
    20    14    16    1
    21    14    21    1
    22    15    17    1
    23    15    21    1
    24    16    22    1
    25    17    22    1
    26    20    24    1
    27    20    25    1
    28    20    26    1
    29     1    27    1
    30     2    28    1
    31     3    29    1
    32     4    30    1
    33     5    31    1
    34     6    32    1
    35     7    33    1
    36    14    34    1
    37    14    35    1
    38    15    36    1
    39    15    37    1
    40    16    38    1
    41    16    39    1
    42    17    40    1
    43    17    41    1
    44    18    42    1
    45    18    43    1
    46    18    44    1
    47    19    45    1
    48    19    46    1
    49    19    47    1
