@<TRIPOS>MOLECULE
ChEBML311451
 51 54 0 0 0
SMALL
USER_CHARGES

@<TRIPOS>ATOM
      1 C         -16.6429   -4.8231    0.1210 C.ar    1  LIG1       -0.0622
      2 C         -15.7875   -4.6370   -0.9648 C.ar    1  LIG1       -0.0616
      3 C         -16.1325   -4.8226    1.4192 C.ar    1  LIG1       -0.0616
      4 C         -14.4215   -4.4505   -0.7526 C.ar    1  LIG1       -0.0544
      5 C         -14.7665   -4.6361    1.6314 C.ar    1  LIG1       -0.0544
      6 C         -11.6373   -5.3563    0.8037 C.ar    1  LIG1       -0.0525
      7 C         -11.9849   -2.9692    0.9376 C.ar    1  LIG1       -0.0525
      8 C         -10.2711   -5.1691    1.0140 C.ar    1  LIG1       -0.0401
      9 C         -10.6187   -2.7820    1.1480 C.ar    1  LIG1       -0.0401
     10 C          -1.9905   -0.3701   -3.2183 C.ar    1  LIG1       -0.0355
     11 C          -2.2896    0.9609   -3.4294 C.ar    1  LIG1        0.0500
     12 C         -13.9110   -4.4501    0.5456 C.ar    1  LIG1       -0.0184
     13 C         -12.4941   -4.2562    0.7653 C.ar    1  LIG1       -0.0182
     14 C          -2.8112   -1.0914   -2.3691 C.ar    1  LIG1       -0.0072
     15 C          -9.7618   -3.8820    1.1862 C.ar    1  LIG1        0.0340
     16 C          -3.8764   -0.4340   -1.7871 C.ar    1  LIG1        0.1458
     17 C          -7.8734   -2.4280    1.6441 C.2     1  LIG1        0.3050
     18 C          -4.8357   -0.6847    0.4464 C.3     1  LIG1        0.0289
     19 C          -5.7887   -1.9207   -1.5236 C.3     1  LIG1        0.0289
     20 C          -6.3025   -0.6745    0.8711 C.3     1  LIG1        0.0315
     21 C          -6.4775   -2.7698   -0.4542 C.3     1  LIG1        0.0315
     22 C          -2.5236   -2.5317   -2.1143 C.3     1  LIG1       -0.0362
     23 N          -3.3387    1.5786   -2.8463 N.ar    1  LIG1       -0.1572
     24 N          -4.1450    0.8696   -2.0114 N.ar    1  LIG1       -0.1350
     25 N          -4.7003   -1.1321   -0.9425 N.pl3   1  LIG1       -0.3110
     26 N          -6.9207   -1.9883    0.7057 N.am    1  LIG1       -0.2824
     27 N          -8.3908   -3.6950    1.3969 N.am    1  LIG1       -0.2691
     28 O          -8.2177   -1.7469    2.6156 O.2     1  LIG1       -0.2537
     29 H         -17.7066   -4.9667   -0.0444 H       1  LIG1        0.0622
     30 H         -16.1849   -4.6356   -1.9755 H       1  LIG1        0.0623
     31 H         -16.7983   -4.9661    2.2652 H       1  LIG1        0.0623
     32 H         -13.7676   -4.3064   -1.6095 H       1  LIG1        0.0629
     33 H         -14.3832   -4.6375    2.6491 H       1  LIG1        0.0629
     34 H         -12.0195   -6.3657    0.6703 H       1  LIG1        0.0630
     35 H         -12.6394   -2.1014    0.9092 H       1  LIG1        0.0630
     36 H          -9.6124   -6.0336    1.0397 H       1  LIG1        0.0642
     37 H         -10.2320   -1.7744    1.2790 H       1  LIG1        0.0642
     38 H          -1.1374   -0.8274   -3.7081 H       1  LIG1        0.0643
     39 H          -1.6858    1.5797   -4.0829 H       1  LIG1        0.0859
     40 H          -4.4187    0.3214    0.5787 H       1  LIG1        0.0485
     41 H          -4.2625   -1.3642    1.0884 H       1  LIG1        0.0485
     42 H          -5.4011   -2.5786   -2.3106 H       1  LIG1        0.0485
     43 H          -6.5198   -1.2446   -1.9852 H       1  LIG1        0.0485
     44 H          -6.3862   -0.3460    1.9123 H       1  LIG1        0.0486
     45 H          -6.8778    0.0298    0.2578 H       1  LIG1        0.0486
     46 H          -7.3373   -3.2806   -0.9001 H       1  LIG1        0.0486
     47 H          -5.7889   -3.5348   -0.0757 H       1  LIG1        0.0486
     48 H          -1.8540   -2.6416   -1.2522 H       1  LIG1        0.0281
     49 H          -3.4453   -3.0931   -1.9118 H       1  LIG1        0.0281
     50 H          -2.0497   -3.0043   -2.9848 H       1  LIG1        0.0281
     51 H          -7.8123   -4.5267    1.4158 H       1  LIG1        0.1573
@<TRIPOS>BOND
     1     1     2   ar
     2     1     3   ar
     3     2     4   ar
     4     3     5   ar
     5     4    12   ar
     6     5    12   ar
     7     6     8   ar
     8     6    13   ar
     9     7     9   ar
    10     7    13   ar
    11     8    15   ar
    12     9    15   ar
    13    10    11   ar
    14    10    14   ar
    15    11    23   ar
    16    12    13    1
    17    14    16   ar
    18    14    22    1
    19    15    27    1
    20    16    24   ar
    21    16    25    1
    22    17    26   am
    23    17    27   am
    24    17    28    2
    25    18    20    1
    26    18    25    1
    27    19    21    1
    28    19    25    1
    29    20    26    1
    30    21    26    1
    31    23    24   ar
    32     1    29    1
    33     2    30    1
    34     3    31    1
    35     4    32    1
    36     5    33    1
    37     6    34    1
    38     7    35    1
    39     8    36    1
    40     9    37    1
    41    10    38    1
    42    11    39    1
    43    18    40    1
    44    18    41    1
    45    19    42    1
    46    19    43    1
    47    20    44    1
    48    20    45    1
    49    21    46    1
    50    21    47    1
    51    22    48    1
    52    22    49    1
    53    22    50    1
    54    27    51    1
