@<TRIPOS>MOLECULE
ChEBML737845
 44 47 0 0 0
SMALL
USER_CHARGES

@<TRIPOS>ATOM
      1 C         -12.4699   -4.8942    2.0610 C.ar    1  LIG1       -0.0615
      2 C         -11.8306   -5.4956    0.9740 C.ar    1  LIG1       -0.0596
      3 C         -11.9238   -3.7650    2.6867 C.ar    1  LIG1       -0.0522
      4 C         -10.6260   -4.9936    0.4726 C.ar    1  LIG1       -0.0306
      5 C          -2.2407    1.0926   -3.0084 C.ar    1  LIG1       -0.0291
      6 C          -3.4317    1.6408   -2.5322 C.ar    1  LIG1       -0.0273
      7 C          -9.8646   -2.1566    2.5390 C.ar    1  LIG1       -0.0174
      8 C          -2.7802   -1.0068   -1.9415 C.ar    1  LIG1       -0.0076
      9 C         -10.7130   -3.2431    2.1989 C.ar    1  LIG1        0.0080
     10 C          -3.9712   -0.4586   -1.4652 C.ar    1  LIG1        0.0659
     11 C         -10.1077   -3.8706    1.1148 C.ar    1  LIG1        0.0895
     12 C          -1.9150   -0.2311   -2.7132 C.ar    1  LIG1        0.0766
     13 C          -4.2969    0.8652   -1.7606 C.ar    1  LIG1        0.0961
     14 C          -8.8135   -2.1930    1.6522 C.ar    1  LIG1        0.1276
     15 C          -7.6413   -1.3858    1.4633 C.ar    1  LIG1        0.1897
     16 C          -6.3625    0.3560    2.0696 C.ar    1  LIG1        0.2162
     17 C          -5.7465   -0.9419    0.3454 C.ar    1  LIG1        0.2233
     18 C          -0.4825   -2.1251   -2.8409 C.3     1  LIG1        0.0422
     19 C          -6.6036    1.3001   -2.1425 C.3     1  LIG1        0.0423
     20 N          -7.4782   -0.3528    2.3057 N.ar    1  LIG1       -0.1928
     21 N          -6.8197   -1.7405    0.4621 N.ar    1  LIG1       -0.1923
     22 N          -5.4524    0.1216    1.1106 N.ar    1  LIG1       -0.1810
     23 N          -6.1217    1.4599    2.9160 N.pl3   1  LIG1       -0.3272
     24 N          -4.8346   -1.2520   -0.6868 N.pl3   1  LIG1       -0.2811
     25 O          -8.9515   -3.2291    0.7844 O.2     1  LIG1       -0.3058
     26 O          -0.7538   -0.7660   -3.1800 O.3     1  LIG1       -0.3492
     27 O          -5.4559    1.4191   -1.3047 O.3     1  LIG1       -0.3473
     28 H         -13.4053   -5.3084    2.4284 H       1  LIG1        0.0623
     29 H         -12.2784   -6.3701    0.5085 H       1  LIG1        0.0623
     30 H         -12.4316   -3.3084    3.5306 H       1  LIG1        0.0630
     31 H         -10.1243   -5.4547   -0.3698 H       1  LIG1        0.0650
     32 H          -1.5713    1.7015   -3.6101 H       1  LIG1        0.0651
     33 H          -3.6789    2.6729   -2.7658 H       1  LIG1        0.0652
     34 H         -10.0080   -1.4379    3.3340 H       1  LIG1        0.0659
     35 H          -2.5220   -2.0385   -1.7145 H       1  LIG1        0.0671
     36 H           0.4736   -2.4261   -3.2760 H       1  LIG1        0.0535
     37 H          -1.2846   -2.7633   -3.2203 H       1  LIG1        0.0535
     38 H          -0.4303   -2.2165   -1.7535 H       1  LIG1        0.0535
     39 H          -7.4579    1.7832   -1.6621 H       1  LIG1        0.0535
     40 H          -6.8200    0.2431   -2.3175 H       1  LIG1        0.0535
     41 H          -6.3995    1.7911   -3.0969 H       1  LIG1        0.0535
     42 H          -6.7987    1.6962    3.6119 H       1  LIG1        0.1457
     43 H          -5.3269    2.0407    2.7435 H       1  LIG1        0.1457
     44 H          -4.7949   -2.2418   -0.9090 H       1  LIG1        0.1559
@<TRIPOS>BOND
     1     1     2   ar
     2     1     3   ar
     3     2     4   ar
     4     3     9   ar
     5     4    11   ar
     6     5     6   ar
     7     5    12   ar
     8     6    13   ar
     9     7     9   ar
    10     7    14   ar
    11     8    10   ar
    12     8    12   ar
    13     9    11   ar
    14    10    13   ar
    15    10    24    1
    16    11    25   ar
    17    12    26    1
    18    13    27    1
    19    14    15    1
    20    14    25   ar
    21    15    20   ar
    22    15    21   ar
    23    16    20   ar
    24    16    22   ar
    25    16    23    1
    26    17    21   ar
    27    17    22   ar
    28    17    24    1
    29    18    26    1
    30    19    27    1
    31     1    28    1
    32     2    29    1
    33     3    30    1
    34     4    31    1
    35     5    32    1
    36     6    33    1
    37     7    34    1
    38     8    35    1
    39    18    36    1
    40    18    37    1
    41    18    38    1
    42    19    39    1
    43    19    40    1
    44    19    41    1
    45    23    42    1
    46    23    43    1
    47    24    44    1
