@<TRIPOS>MOLECULE
ChEBML369957
 49 53 0 0 0
SMALL
USER_CHARGES

@<TRIPOS>ATOM
      1 C          -0.3585    0.3357   -3.4165 C.ar    1  LIG1       -0.0622
      2 C          -0.7759    1.0308   -2.2816 C.ar    1  LIG1       -0.0620
      3 C          -1.2991   -0.2778   -4.2439 C.ar    1  LIG1       -0.0620
      4 C          -2.1340    1.1123   -1.9739 C.ar    1  LIG1       -0.0590
      5 C          -2.6572   -0.1963   -3.9363 C.ar    1  LIG1       -0.0590
      6 C         -12.0962   -3.3695    2.0347 C.ar    1  LIG1       -0.0287
      7 C          -9.8657   -2.0258    2.1430 C.ar    1  LIG1       -0.0261
      8 C         -10.4834   -5.1986    0.4977 C.ar    1  LIG1       -0.0071
      9 C         -10.7324   -3.0977    1.7838 C.ar    1  LIG1       -0.0001
     10 C          -3.0747    0.4988   -2.8012 C.ar    1  LIG1       -0.0477
     11 C          -9.9673   -4.0061    1.0312 C.ar    1  LIG1        0.0406
     12 C         -12.5829   -4.5477    1.5006 C.ar    1  LIG1        0.0666
     13 C         -11.8198   -5.4260    0.7660 C.ar    1  LIG1        0.1103
     14 C          -8.6234   -2.2930    1.6174 C.ar    1  LIG1        0.0947
     15 C         -13.8240   -6.2834    0.8703 C.ar    1  LIG1        0.3603
     16 C          -7.4294   -1.5052    1.7142 C.2     1  LIG1        0.2598
     17 C          -6.5036   -0.7856   -1.6802 C.3     1  LIG1       -0.0341
     18 C          -4.5745   -0.3265   -0.1184 C.3     1  LIG1       -0.0341
     19 C          -6.9750   -1.8855   -0.7307 C.3     1  LIG1        0.0147
     20 C          -5.0855   -1.4424    0.7897 C.3     1  LIG1        0.0147
     21 C          -4.9848   -0.5713   -1.5795 C.3     1  LIG1       -0.0344
     22 C          -4.5392    0.5861   -2.4699 C.3     1  LIG1       -0.0249
     23 N          -8.6937   -3.4859    0.9506 N.ar    1  LIG1       -0.3100
     24 N         -13.8416   -5.0862    1.5660 N.ar    1  LIG1       -0.2581
     25 N          -6.5377   -1.6067    0.6382 N.am    1  LIG1       -0.2967
     26 O         -14.7689   -7.0463    0.7124 O.2     1  LIG1       -0.2417
     27 O          -7.2296   -0.7936    2.6969 O.2     1  LIG1       -0.2702
     28 O         -12.5449   -6.5333    0.3439 O.2     1  LIG1       -0.2602
     29 H           0.6989    0.2734   -3.6566 H       1  LIG1        0.0622
     30 H          -0.0438    1.5096   -1.6378 H       1  LIG1        0.0623
     31 H          -0.9745   -0.8182   -5.1282 H       1  LIG1        0.0623
     32 H          -2.4501    1.6559   -1.0874 H       1  LIG1        0.0625
     33 H          -3.3829   -0.6776   -4.5866 H       1  LIG1        0.0625
     34 H         -12.7200   -2.6955    2.6102 H       1  LIG1        0.0650
     35 H         -10.1301   -1.1526    2.7247 H       1  LIG1        0.0651
     36 H          -9.8758   -5.8849   -0.0783 H       1  LIG1        0.0671
     37 H          -6.7801   -1.0466   -2.7084 H       1  LIG1        0.0285
     38 H          -7.0235    0.1493   -1.4334 H       1  LIG1        0.0285
     39 H          -4.9826    0.6333    0.2239 H       1  LIG1        0.0285
     40 H          -3.4831   -0.2608   -0.0398 H       1  LIG1        0.0285
     41 H          -8.0646   -1.9758   -0.7815 H       1  LIG1        0.0469
     42 H          -6.5507   -2.8536   -1.0217 H       1  LIG1        0.0469
     43 H          -4.6195   -2.3983    0.5223 H       1  LIG1        0.0469
     44 H          -4.8079   -1.2253    1.8241 H       1  LIG1        0.0469
     45 H          -4.4834   -1.4825   -1.9316 H       1  LIG1        0.0307
     46 H          -4.7525    1.5354   -1.9679 H       1  LIG1        0.0319
     47 H          -5.1310    0.5862   -3.3911 H       1  LIG1        0.0319
     48 H          -7.9236   -3.9267    0.4664 H       1  LIG1        0.1529
     49 H         -14.6341   -4.6737    2.0424 H       1  LIG1        0.1582
@<TRIPOS>BOND
     1     1     2   ar
     2     1     3   ar
     3     2     4   ar
     4     3     5   ar
     5     4    10   ar
     6     5    10   ar
     7     6     9   ar
     8     6    12   ar
     9     7     9   ar
    10     7    14   ar
    11     8    11   ar
    12     8    13   ar
    13     9    11   ar
    14    10    22    1
    15    11    23   ar
    16    12    13   ar
    17    12    24   ar
    18    13    28   ar
    19    14    16    1
    20    14    23   ar
    21    15    24   ar
    22    15    26    2
    23    15    28   ar
    24    16    25   am
    25    16    27    2
    26    17    19    1
    27    17    21    1
    28    18    20    1
    29    18    21    1
    30    19    25    1
    31    20    25    1
    32    21    22    1
    33     1    29    1
    34     2    30    1
    35     3    31    1
    36     4    32    1
    37     5    33    1
    38     6    34    1
    39     7    35    1
    40     8    36    1
    41    17    37    1
    42    17    38    1
    43    18    39    1
    44    18    40    1
    45    19    41    1
    46    19    42    1
    47    20    43    1
    48    20    44    1
    49    21    45    1
    50    22    46    1
    51    22    47    1
    52    23    48    1
    53    24    49    1
