@<TRIPOS>MOLECULE
ChEBML1274710
 33 34 0 0 0
SMALL
USER_CHARGES

@<TRIPOS>ATOM
      1 C         -10.3863   -5.0148    0.2622 C.ar    1  LIG1       -0.0383
      2 C         -11.6805   -5.4457    0.5675 C.ar    1  LIG1       -0.0377
      3 C         -11.9645   -3.6440    2.1707 C.ar    1  LIG1       -0.0304
      4 C          -9.8600   -2.1129    2.3472 C.ar    1  LIG1       -0.0253
      5 C         -10.6624   -3.1910    1.8794 C.ar    1  LIG1       -0.0003
      6 C          -9.9049   -3.8855    0.9339 C.ar    1  LIG1        0.0380
      7 C         -12.4592   -4.7724    1.5066 C.ar    1  LIG1        0.0437
      8 C          -8.6532   -2.1729    1.6891 C.ar    1  LIG1        0.1046
      9 C          -7.5263   -1.3048    1.8229 C.2     1  LIG1        0.3070
     10 C          -4.3582   -1.4375    2.0980 C.3     1  LIG1       -0.0409
     11 C         -14.5531   -4.4177   -0.6408 C.3     1  LIG1        0.0225
     12 C          -5.2897   -0.8722    1.0470 C.3     1  LIG1        0.0539
     13 N          -8.6899   -3.2451    0.8386 N.ar    1  LIG1       -0.3094
     14 N         -13.7784   -5.2377    1.7963 N.pl3   1  LIG1       -0.2633
     15 O          -7.4585   -0.3162    2.5895 O.2     1  LIG1       -0.2591
     16 O         -14.1114   -6.9282   -0.1216 O.2     1  LIG1       -0.4814
     17 O         -16.1526   -5.8347    0.8697 O.2     1  LIG1       -0.4814
     18 O          -6.4798   -1.6667    1.0029 O.3     1  LIG1       -0.3114
     19 S         -14.7558   -5.7791    0.4862 S.O2    1  LIG1       -0.1957
     20 H          -9.7808   -5.5396   -0.4691 H       1  LIG1        0.0643
     21 H         -12.0750   -6.3219    0.0574 H       1  LIG1        0.0643
     22 H         -12.5742   -3.1208    2.9028 H       1  LIG1        0.0650
     23 H         -10.1399   -1.3745    3.0870 H       1  LIG1        0.0652
     24 H          -4.8271   -1.4187    3.0858 H       1  LIG1        0.0254
     25 H          -4.0844   -2.4697    1.8562 H       1  LIG1        0.0254
     26 H          -3.4273   -0.8623    2.1379 H       1  LIG1        0.0254
     27 H         -15.1321   -4.6272   -1.5416 H       1  LIG1        0.0442
     28 H         -14.9166   -3.5111   -0.1547 H       1  LIG1        0.0442
     29 H         -13.4929   -4.3245   -0.8807 H       1  LIG1        0.0442
     30 H          -4.8147   -0.8940    0.0617 H       1  LIG1        0.0570
     31 H          -5.5629    0.1587    1.2906 H       1  LIG1        0.0570
     32 H          -7.9360   -3.5288    0.2278 H       1  LIG1        0.1530
     33 H         -14.2795   -4.6764    2.5043 H       1  LIG1        0.1702
@<TRIPOS>BOND
     1     1     2   ar
     2     1     6   ar
     3     2     7   ar
     4     3     5   ar
     5     3     7   ar
     6     4     5   ar
     7     4     8   ar
     8     5     6   ar
     9     6    13   ar
    10     7    14    1
    11     8     9    1
    12     8    13   ar
    13     9    15    2
    14     9    18    1
    15    10    12    1
    16    11    19    1
    17    12    18    1
    18    14    19    1
    19    16    19    2
    20    17    19    2
    21     1    20    1
    22     2    21    1
    23     3    22    1
    24     4    23    1
    25    10    24    1
    26    10    25    1
    27    10    26    1
    28    11    27    1
    29    11    28    1
    30    11    29    1
    31    12    30    1
    32    12    31    1
    33    13    32    1
    34    14    33    1
