@<TRIPOS>MOLECULE
ChEBML300442
 44 46 0 0 0
SMALL
USER_CHARGES

@<TRIPOS>ATOM
      1 C          -1.8114   -0.0217   -3.6894 C.ar    1  LIG1       -0.0364
      2 C         -10.3427   -5.1743    0.4637 C.ar    1  LIG1       -0.0387
      3 C         -11.6798   -5.5305    0.6621 C.ar    1  LIG1       -0.0416
      4 C          -2.0690    0.0602   -2.3001 C.ar    1  LIG1       -0.0319
      5 C         -12.0853   -3.5144    1.9536 C.ar    1  LIG1       -0.0343
      6 C          -9.9603   -2.0183    2.1779 C.ar    1  LIG1       -0.0262
      7 C          -2.5356    0.9921   -4.2725 C.ar    1  LIG1        0.0456
      8 C         -10.7413   -3.1345    1.7670 C.ar    1  LIG1       -0.0007
      9 C          -9.9026   -3.9717    1.0279 C.ar    1  LIG1        0.0379
     10 C         -12.5394   -4.7148    1.3951 C.ar    1  LIG1        0.0413
     11 C          -8.6863   -2.1961    1.6896 C.ar    1  LIG1        0.0945
     12 C          -2.9320    1.1182   -2.1332 C.ar    1  LIG1        0.0759
     13 C          -7.5058   -1.3082    1.8486 C.2     1  LIG1        0.2576
     14 C          -5.0017   -0.0190    0.1748 C.2     1  LIG1        0.2320
     15 C          -3.5851    1.7302   -0.9278 C.3     1  LIG1        0.0614
     16 C          -5.0994   -1.0018    1.3283 C.3     1  LIG1        0.0887
     17 C          -2.7657    0.6099    1.1089 C.3     1  LIG1        0.0379
     18 C          -3.0132    1.5711    2.2572 C.3     1  LIG1        0.0589
     19 N          -8.6615   -3.3769    0.9972 N.ar    1  LIG1       -0.3101
     20 N          -6.3286   -1.7372    1.2437 N.am    1  LIG1       -0.3013
     21 N          -3.8296    0.7436    0.1215 N.am    1  LIG1       -0.2918
     22 O          -7.6154   -0.2762    2.5054 O.2     1  LIG1       -0.2704
     23 O          -5.9138    0.0787   -0.6504 O.2     1  LIG1       -0.2756
     24 O          -3.2212    1.6917   -3.3307 O.2     1  LIG1       -0.3208
     25 O          -1.9926    1.4120    3.2345 O.3     1  LIG1       -0.3947
     26 CL        -14.1815   -5.1869    1.6166 Cl      1  LIG1       -0.0843
     27 H          -1.1777   -0.7310   -4.2017 H       1  LIG1        0.0645
     28 H          -9.6742   -5.8107   -0.1067 H       1  LIG1        0.0643
     29 H         -12.0392   -6.4625    0.2311 H       1  LIG1        0.0639
     30 H          -1.6735   -0.5749   -1.5202 H       1  LIG1        0.0648
     31 H         -12.7545   -2.8774    2.5260 H       1  LIG1        0.0645
     32 H         -10.2984   -1.1767    2.7677 H       1  LIG1        0.0651
     33 H          -2.6626    1.3297   -5.2906 H       1  LIG1        0.0901
     34 H          -2.9548    2.5211   -0.5069 H       1  LIG1        0.0542
     35 H          -4.5461    2.1851   -1.1900 H       1  LIG1        0.0542
     36 H          -4.2790   -1.7228    1.2833 H       1  LIG1        0.0567
     37 H          -5.0988   -0.4700    2.2832 H       1  LIG1        0.0567
     38 H          -1.8113    0.8188    0.6152 H       1  LIG1        0.0493
     39 H          -2.7636   -0.4229    1.4704 H       1  LIG1        0.0493
     40 H          -3.9735    1.3479    2.7323 H       1  LIG1        0.0580
     41 H          -3.0163    2.6119    1.9174 H       1  LIG1        0.0580
     42 H          -7.8511   -3.7599    0.5300 H       1  LIG1        0.1529
     43 H          -6.3072   -2.6391    0.7687 H       1  LIG1        0.1503
     44 H          -2.1876    2.0415    3.9472 H       1  LIG1        0.2101
@<TRIPOS>BOND
     1     1     4   ar
     2     1     7   ar
     3     2     3   ar
     4     2     9   ar
     5     3    10   ar
     6     4    12   ar
     7     5     8   ar
     8     5    10   ar
     9     6     8   ar
    10     6    11   ar
    11     7    24   ar
    12     8     9   ar
    13     9    19   ar
    14    10    26    1
    15    11    13    1
    16    11    19   ar
    17    12    15    1
    18    12    24   ar
    19    13    20   am
    20    13    22    2
    21    14    16    1
    22    14    21   am
    23    14    23    2
    24    15    21    1
    25    16    20    1
    26    17    18    1
    27    17    21    1
    28    18    25    1
    29     1    27    1
    30     2    28    1
    31     3    29    1
    32     4    30    1
    33     5    31    1
    34     6    32    1
    35     7    33    1
    36    15    34    1
    37    15    35    1
    38    16    36    1
    39    16    37    1
    40    17    38    1
    41    17    39    1
    42    18    40    1
    43    18    41    1
    44    19    42    1
    45    20    43    1
    46    25    44    1
