@<TRIPOS>MOLECULE
ChEBML52742
 66 70 0 0 0
SMALL
USER_CHARGES

@<TRIPOS>ATOM
      1 C         -18.1890   -7.4016    1.2567 C.ar    1  LIG1       -0.0622
      2 C         -17.2423   -7.7983    2.1826 C.ar    1  LIG1       -0.0619
      3 C         -17.8204   -6.6040    0.1896 C.ar    1  LIG1       -0.0619
      4 C          -2.3203    1.0043   -3.4554 C.ar    1  LIG1       -0.0418
      5 C         -15.9268   -7.3977    2.0411 C.ar    1  LIG1       -0.0567
      6 C         -16.5058   -6.1998    0.0505 C.ar    1  LIG1       -0.0567
      7 C         -10.4583   -5.0821    0.4047 C.ar    1  LIG1       -0.0376
      8 C          -1.7947   -0.2200   -3.0651 C.ar    1  LIG1       -0.0360
      9 C         -11.7810   -5.4127    0.5906 C.ar    1  LIG1       -0.0299
     10 C         -12.1363   -3.4244    1.8967 C.ar    1  LIG1       -0.0226
     11 C         -10.0058   -1.9797    2.1496 C.ar    1  LIG1       -0.0261
     12 C          -3.4683    1.4726   -2.8492 C.ar    1  LIG1        0.0292
     13 C         -10.7913   -3.0749    1.7156 C.ar    1  LIG1        0.0004
     14 C         -15.5581   -6.6008    0.9734 C.ar    1  LIG1       -0.0218
     15 C          -9.9474   -3.9133    0.9621 C.ar    1  LIG1        0.0380
     16 C          -2.4496   -0.9341   -2.0704 C.ar    1  LIG1        0.0672
     17 C         -12.6210   -4.5863    1.3352 C.ar    1  LIG1        0.0762
     18 C          -8.7458   -2.1592    1.6736 C.ar    1  LIG1        0.0947
     19 C          -3.6103   -0.3991   -1.5059 C.ar    1  LIG1        0.1412
     20 C          -7.6132   -1.2480    1.8951 C.2     1  LIG1        0.2599
     21 C          -4.4706   -0.1762    0.6102 C.3     1  LIG1        0.0288
     22 C          -5.6123   -1.4224   -1.0444 C.3     1  LIG1        0.0288
     23 C          -5.1871   -0.8953    1.7577 C.3     1  LIG1        0.0303
     24 C          -6.4040   -2.2238   -0.0062 C.3     1  LIG1        0.0303
     25 C           0.4849   -2.2338   -1.7524 C.3     1  LIG1       -0.0470
     26 C          -0.8612   -4.3030   -2.1388 C.3     1  LIG1       -0.0470
     27 C         -14.1240   -6.1640    0.8192 C.3     1  LIG1        0.0784
     28 C          -0.8188   -2.7858   -2.3327 C.3     1  LIG1        0.0142
     29 N          -4.0723    0.7740   -1.9053 N.ar    1  LIG1       -0.2394
     30 N          -8.7000   -3.3308    0.9438 N.ar    1  LIG1       -0.3101
     31 N          -4.2829   -1.1043   -0.5107 N.pl3   1  LIG1       -0.3112
     32 N          -6.4506   -1.4471    1.2430 N.am    1  LIG1       -0.2936
     33 N          -1.9577   -2.1735   -1.6440 N.pl3   1  LIG1       -0.3393
     34 O          -7.7255   -0.3143    2.6668 O.2     1  LIG1       -0.2701
     35 O         -13.9256   -4.9283    1.5090 O.3     1  LIG1       -0.3413
     36 H         -19.2166   -7.7152    1.3668 H       1  LIG1        0.0622
     37 H         -17.5303   -8.4215    3.0163 H       1  LIG1        0.0623
     38 H         -18.5600   -6.2943   -0.5340 H       1  LIG1        0.0623
     39 H          -1.8352    1.5851   -4.2260 H       1  LIG1        0.0639
     40 H         -15.1872   -7.7075    2.7644 H       1  LIG1        0.0626
     41 H         -16.2185   -5.5736   -0.7812 H       1  LIG1        0.0626
     42 H          -9.8163   -5.7296   -0.1741 H       1  LIG1        0.0643
     43 H          -0.8973   -0.6077   -3.5242 H       1  LIG1        0.0644
     44 H         -12.1718   -6.3208    0.1561 H       1  LIG1        0.0651
     45 H         -12.7898   -2.7868    2.4736 H       1  LIG1        0.0657
     46 H         -10.3470   -1.1505    2.7515 H       1  LIG1        0.0651
     47 H          -3.8787    2.4249   -3.1510 H       1  LIG1        0.0840
     48 H          -3.4992    0.1786    0.9544 H       1  LIG1        0.0485
     49 H          -5.0712    0.6723    0.2823 H       1  LIG1        0.0485
     50 H          -6.1431   -0.4979   -1.2714 H       1  LIG1        0.0485
     51 H          -5.5062   -2.0125   -1.9547 H       1  LIG1        0.0485
     52 H          -4.5594   -1.7036    2.1331 H       1  LIG1        0.0486
     53 H          -5.3954   -0.1883    2.5608 H       1  LIG1        0.0486
     54 H          -5.9112   -3.1792    0.1738 H       1  LIG1        0.0486
     55 H          -7.4172   -2.3955   -0.3696 H       1  LIG1        0.0486
     56 H           1.3323   -2.6894   -2.2648 H       1  LIG1        0.0249
     57 H           0.5152   -1.1530   -1.8906 H       1  LIG1        0.0249
     58 H           0.5361   -2.4658   -0.6886 H       1  LIG1        0.0249
     59 H          -0.8100   -4.5348   -1.0750 H       1  LIG1        0.0249
     60 H          -1.7899   -4.6963   -2.5521 H       1  LIG1        0.0249
     61 H          -0.0138   -4.7585   -2.6512 H       1  LIG1        0.0249
     62 H         -13.8966   -6.0303   -0.2384 H       1  LIG1        0.0624
     63 H         -13.4655   -6.9244    1.2392 H       1  LIG1        0.0624
     64 H          -0.8700   -2.5540   -3.3964 H       1  LIG1        0.0497
     65 H          -7.9172   -3.6862    0.4945 H       1  LIG1        0.1529
     66 H          -2.3708   -2.6268   -0.8926 H       1  LIG1        0.1469
@<TRIPOS>BOND
     1     1     2   ar
     2     1     3   ar
     3     2     5   ar
     4     3     6   ar
     5     4     8   ar
     6     4    12   ar
     7     5    14   ar
     8     6    14   ar
     9     7     9   ar
    10     7    15   ar
    11     8    16   ar
    12     9    17   ar
    13    10    13   ar
    14    10    17   ar
    15    11    13   ar
    16    11    18   ar
    17    12    29   ar
    18    13    15   ar
    19    14    27    1
    20    15    30   ar
    21    16    19   ar
    22    16    33    1
    23    17    35    1
    24    18    20    1
    25    18    30   ar
    26    19    29   ar
    27    19    31    1
    28    20    32   am
    29    20    34    2
    30    21    23    1
    31    21    31    1
    32    22    24    1
    33    22    31    1
    34    23    32    1
    35    24    32    1
    36    25    28    1
    37    26    28    1
    38    27    35    1
    39    28    33    1
    40     1    36    1
    41     2    37    1
    42     3    38    1
    43     4    39    1
    44     5    40    1
    45     6    41    1
    46     7    42    1
    47     8    43    1
    48     9    44    1
    49    10    45    1
    50    11    46    1
    51    12    47    1
    52    21    48    1
    53    21    49    1
    54    22    50    1
    55    22    51    1
    56    23    52    1
    57    23    53    1
    58    24    54    1
    59    24    55    1
    60    25    56    1
    61    25    57    1
    62    25    58    1
    63    26    59    1
    64    26    60    1
    65    26    61    1
    66    27    62    1
    67    27    63    1
    68    28    64    1
    69    30    65    1
    70    33    66    1
