@<TRIPOS>MOLECULE
ChEBML300317
 53 55 0 0 0
SMALL
USER_CHARGES

@<TRIPOS>ATOM
      1 C         -10.3426   -5.1744    0.4638 C.ar    1  LIG1       -0.0387
      2 C         -11.6797   -5.5305    0.6621 C.ar    1  LIG1       -0.0416
      3 C         -12.0853   -3.5143    1.9535 C.ar    1  LIG1       -0.0343
      4 C          -9.9604   -2.0182    2.1778 C.ar    1  LIG1       -0.0262
      5 C         -10.7413   -3.1346    1.7670 C.ar    1  LIG1       -0.0007
      6 C          -9.9027   -3.9717    1.0279 C.ar    1  LIG1        0.0379
      7 C         -12.5394   -4.7147    1.3951 C.ar    1  LIG1        0.0413
      8 C          -8.6864   -2.1961    1.6896 C.ar    1  LIG1        0.0945
      9 C          -7.5058   -1.3082    1.8486 C.2     1  LIG1        0.2576
     10 C          -4.6306   -0.6120   -0.0624 C.2     1  LIG1        0.2320
     11 C          -2.6622   -0.3363   -3.8630 C.3     1  LIG1       -0.0515
     12 C          -2.6958    1.1426   -3.4674 C.3     1  LIG1       -0.0515
     13 C          -3.0265   -1.1180   -2.6036 C.3     1  LIG1       -0.0344
     14 C          -3.0771    1.1751   -1.9897 C.3     1  LIG1       -0.0344
     15 C          -2.6212   -0.1831   -1.4704 C.3     1  LIG1        0.0256
     16 C          -5.0993   -1.0019    1.3283 C.3     1  LIG1        0.0887
     17 C          -2.3050   -0.8139    0.8911 C.3     1  LIG1        0.0586
     18 C          -1.4078   -2.7353    2.3213 C.3     1  LIG1        0.0863
     19 CA         -1.9144   -2.2898    0.9521 C.3     1  LIG1        0.0129
     20 N          -8.6615   -3.3769    0.9972 N.ar    1  LIG1       -0.3101
     21 N          -6.3286   -1.7372    1.2437 N.am    1  LIG1       -0.3013
     22 N          -3.2264   -0.5360   -0.2190 N.am    1  LIG1       -0.2918
     23 N          -0.8421   -2.5531   -0.0531 N.4     1  LIG1        0.2359
     24 O          -7.6154   -0.2762    2.5054 O.2     1  LIG1       -0.2704
     25 O          -5.4437   -0.3880   -0.9631 O.2     1  LIG1       -0.2756
     26 O          -2.4141   -2.4940    3.2985 O.3     1  LIG1       -0.3905
     27 CL        -14.1815   -5.1868    1.6165 Cl      1  LIG1       -0.0843
     28 H          -9.6742   -5.8107   -0.1066 H       1  LIG1        0.0643
     29 H         -12.0392   -6.4625    0.2312 H       1  LIG1        0.0639
     30 H         -12.7546   -2.8774    2.5259 H       1  LIG1        0.0645
     31 H         -10.2985   -1.1766    2.7675 H       1  LIG1        0.0651
     32 H          -3.3547   -0.5555   -4.6819 H       1  LIG1        0.0267
     33 H          -1.6554   -0.6066   -4.2019 H       1  LIG1        0.0267
     34 H          -1.7056    1.5884   -3.6162 H       1  LIG1        0.0267
     35 H          -3.4069    1.7111   -4.0749 H       1  LIG1        0.0267
     36 H          -4.1062   -1.3144   -2.5837 H       1  LIG1        0.0285
     37 H          -2.5143   -2.0838   -2.5523 H       1  LIG1        0.0285
     38 H          -2.6048    2.0069   -1.4576 H       1  LIG1        0.0285
     39 H          -4.1635    1.2916   -1.8868 H       1  LIG1        0.0285
     40 H          -1.5338   -0.1947   -1.3309 H       1  LIG1        0.0506
     41 H          -4.3607   -1.6470    1.8110 H       1  LIG1        0.0567
     42 H          -5.2901   -0.1096    1.9303 H       1  LIG1        0.0567
     43 H          -1.4115   -0.1900    0.7756 H       1  LIG1        0.0529
     44 H          -2.7836   -0.5182    1.8310 H       1  LIG1        0.0529
     45 H1         -0.5003   -2.1992    2.6185 H       1  LIG1        0.0623
     46 H2         -1.1962   -3.8096    2.3183 H       1  LIG1        0.0623
     47 HA         -2.7604   -2.9130    0.6410 H       1  LIG1        0.0891
     48 H          -7.8510   -3.7599    0.5300 H       1  LIG1        0.1529
     49 H          -6.3072   -2.6391    0.7688 H       1  LIG1        0.1503
     50 H1         -0.5933   -3.5445   -0.0587 H       1  LIG1        0.1967
     51 H2         -0.0046   -2.0102    0.1682 H       1  LIG1        0.1967
     52 H3         -1.1588   -2.2931   -0.9896 H       1  LIG1        0.1967
     53 H          -2.0526   -2.7899    4.1489 H       1  LIG1        0.2103
@<TRIPOS>BOND
     1     1     2   ar
     2     1     6   ar
     3     2     7   ar
     4     3     5   ar
     5     3     7   ar
     6     4     5   ar
     7     4     8   ar
     8     5     6   ar
     9     6    20   ar
    10     7    27    1
    11     8     9    1
    12     8    20   ar
    13     9    21   am
    14     9    24    2
    15    10    16    1
    16    10    22   am
    17    10    25    2
    18    11    12    1
    19    11    13    1
    20    12    14    1
    21    13    15    1
    22    14    15    1
    23    15    22    1
    24    16    21    1
    25    17    19    1
    26    17    22    1
    27    18    19    1
    28    18    26    1
    29    19    23    1
    30     1    28    1
    31     2    29    1
    32     3    30    1
    33     4    31    1
    34    11    32    1
    35    11    33    1
    36    12    34    1
    37    12    35    1
    38    13    36    1
    39    13    37    1
    40    14    38    1
    41    14    39    1
    42    15    40    1
    43    16    41    1
    44    16    42    1
    45    17    43    1
    46    17    44    1
    47    18    45    1
    48    18    46    1
    49    19    47    1
    50    20    48    1
    51    21    49    1
    52    23    50    1
    53    23    51    1
    54    23    52    1
    55    26    53    1
