@<TRIPOS>MOLECULE
ChEBML387459
 38 40 0 0 0
SMALL
USER_CHARGES

@<TRIPOS>ATOM
      1 C          -2.0328    1.1312   -3.1279 C.ar    1  LIG1       -0.0622
      2 C          -3.2986    1.6699   -2.8973 C.ar    1  LIG1       -0.0619
      3 C          -1.6828   -0.0948   -2.5621 C.ar    1  LIG1       -0.0619
      4 C          -4.2145    0.9826   -2.1009 C.ar    1  LIG1       -0.0582
      5 C          -2.5988   -0.7820   -1.7656 C.ar    1  LIG1       -0.0582
      6 C         -10.7288   -5.0586    0.8455 C.ar    1  LIG1       -0.0381
      7 C         -11.2894   -2.7816    1.4268 C.ar    1  LIG1       -0.0381
      8 C         -12.0857   -5.3721    0.7648 C.ar    1  LIG1       -0.0299
      9 C         -12.6462   -3.0950    1.3460 C.ar    1  LIG1       -0.0299
     10 C          -3.8646   -0.2434   -1.5350 C.ar    1  LIG1       -0.0376
     11 C         -10.3307   -3.7635    1.1766 C.ar    1  LIG1        0.0327
     12 C         -13.0443   -4.3903    1.0149 C.ar    1  LIG1        0.0747
     13 C          -8.2248   -2.3171    1.5464 C.ar    1  LIG1        0.2097
     14 C          -6.5600   -0.9283    1.4534 C.ar    1  LIG1        0.1816
     15 C         -14.7050   -6.0394    0.5930 C.3     1  LIG1        0.0422
     16 C          -4.8434   -0.9788   -0.6831 C.3     1  LIG1        0.0260
     17 N          -8.5192   -1.2957    2.3187 N.ar    1  LIG1       -0.1157
     18 N          -7.4600   -0.4122    2.2594 N.ar    1  LIG1       -0.1244
     19 N          -7.0001   -2.1276    0.9815 N.ar    1  LIG1       -0.2633
     20 N          -8.9197   -3.4375    1.2606 N.pl3   1  LIG1       -0.2857
     21 O         -14.3682   -4.6960    0.9362 O.3     1  LIG1       -0.3493
     22 S          -4.9937   -0.2629    0.9822 S.3     1  LIG1       -0.0839
     23 H          -1.3203    1.6659   -3.7492 H       1  LIG1        0.0622
     24 H          -3.5717    2.6240   -3.3388 H       1  LIG1        0.0623
     25 H          -0.6979   -0.5150   -2.7423 H       1  LIG1        0.0623
     26 H          -5.1985    1.4100   -1.9265 H       1  LIG1        0.0626
     27 H          -2.3174   -1.7366   -1.3287 H       1  LIG1        0.0626
     28 H          -9.9902   -5.8315    0.6485 H       1  LIG1        0.0643
     29 H         -10.9902   -1.7691    1.6856 H       1  LIG1        0.0643
     30 H         -12.3896   -6.3828    0.5064 H       1  LIG1        0.0651
     31 H         -13.3884   -2.3259    1.5420 H       1  LIG1        0.0651
     32 H         -15.7921   -6.1474    0.5648 H       1  LIG1        0.0535
     33 H         -14.2793   -6.7229    1.3319 H       1  LIG1        0.0535
     34 H         -14.2927   -6.2685   -0.3926 H       1  LIG1        0.0535
     35 H          -5.8403   -0.9850   -1.1479 H       1  LIG1        0.0435
     36 H          -4.5520   -2.0342   -0.5784 H       1  LIG1        0.0435
     37 H          -6.5190   -2.7474    0.3430 H       1  LIG1        0.1578
     38 H          -8.3631   -4.2910    1.0429 H       1  LIG1        0.1556
@<TRIPOS>BOND
     1     1     2   ar
     2     1     3   ar
     3     2     4   ar
     4     3     5   ar
     5     4    10   ar
     6     5    10   ar
     7     6     8   ar
     8     6    11   ar
     9     7     9   ar
    10     7    11   ar
    11     8    12   ar
    12     9    12   ar
    13    10    16    1
    14    11    20    1
    15    12    21    1
    16    13    17   ar
    17    13    19   ar
    18    13    20    1
    19    14    18   ar
    20    14    19   ar
    21    14    22    1
    22    15    21    1
    23    16    22    1
    24    17    18   ar
    25     1    23    1
    26     2    24    1
    27     3    25    1
    28     4    26    1
    29     5    27    1
    30     6    28    1
    31     7    29    1
    32     8    30    1
    33     9    31    1
    34    15    32    1
    35    15    33    1
    36    15    34    1
    37    16    35    1
    38    16    36    1
    39    19    37    1
    40    20    38    1
