@<TRIPOS>MOLECULE
ChEBML426558
 42 44 0 0 0
SMALL
USER_CHARGES

@<TRIPOS>ATOM
      1 C         -12.4921   -4.2539    0.7639 C.ar    1  LIG1       -0.0621
      2 C         -11.6359   -5.3543    0.8038 C.ar    1  LIG1       -0.0604
      3 C         -11.9820   -2.9669    0.9345 C.ar    1  LIG1       -0.0604
      4 C          -2.2253    0.9423   -3.4714 C.ar    1  LIG1       -0.0431
      5 C          -1.9725   -0.4018   -3.2207 C.ar    1  LIG1       -0.0449
      6 C         -10.2697   -5.1678    1.0144 C.ar    1  LIG1       -0.0407
      7 C         -10.6159   -2.7803    1.1452 C.ar    1  LIG1       -0.0407
      8 C          -3.3165    1.5245   -2.8469 C.ar    1  LIG1        0.0291
      9 C          -2.8068   -1.1125   -2.3651 C.ar    1  LIG1        0.0957
     10 C          -9.7596   -3.8808    1.1852 C.ar    1  LIG1        0.0339
     11 C          -3.8718   -0.4383   -1.7899 C.ar    1  LIG1        0.1323
     12 C          -7.8711   -2.4265    1.6421 C.2     1  LIG1        0.3050
     13 C          -4.8323   -0.6856    0.4435 C.3     1  LIG1        0.0288
     14 C          -5.7847   -1.9241   -1.5253 C.3     1  LIG1        0.0288
     15 C          -6.2994   -0.6745    0.8674 C.3     1  LIG1        0.0315
     16 C          -6.4743   -2.7716   -0.4551 C.3     1  LIG1        0.0315
     17 C          -2.5322   -2.5535   -2.0987 C.3     1  LIG1        0.4193
     18 N          -4.1492    0.8665   -2.0094 N.ar    1  LIG1       -0.2408
     19 N          -4.6964   -1.1350   -0.9447 N.pl3   1  LIG1       -0.3122
     20 N          -6.9179   -1.9884    0.7035 N.am    1  LIG1       -0.2824
     21 N          -8.3887   -3.6938    1.3963 N.am    1  LIG1       -0.2691
     22 O          -8.2157   -1.7441    2.6124 O.2     1  LIG1       -0.2537
     23 F          -1.4370   -3.0339   -2.7594 F       1  LIG1       -0.1660
     24 F          -2.3031   -2.8325   -0.7813 F       1  LIG1       -0.1660
     25 F          -3.5668   -3.3631   -2.4695 F       1  LIG1       -0.1660
     26 H         -13.5558   -4.3987    0.5991 H       1  LIG1        0.0622
     27 H         -12.0325   -6.3564    0.6700 H       1  LIG1        0.0623
     28 H         -12.6489   -2.1101    0.9024 H       1  LIG1        0.0623
     29 H          -1.5879    1.5160   -4.1345 H       1  LIG1        0.0639
     30 H          -1.1238   -0.8856   -3.6964 H       1  LIG1        0.0631
     31 H          -9.6120   -6.0329    1.0434 H       1  LIG1        0.0642
     32 H         -10.2296   -1.7725    1.2769 H       1  LIG1        0.0642
     33 H          -3.5578    2.5699   -3.0097 H       1  LIG1        0.0840
     34 H          -4.4152    0.3205    0.5746 H       1  LIG1        0.0485
     35 H          -4.2597   -1.3645    1.0867 H       1  LIG1        0.0485
     36 H          -5.3969   -2.5832   -2.3112 H       1  LIG1        0.0485
     37 H          -6.5154   -1.2485   -1.9882 H       1  LIG1        0.0485
     38 H          -6.3835   -0.3446    1.9082 H       1  LIG1        0.0486
     39 H          -6.8742    0.0291    0.2529 H       1  LIG1        0.0486
     40 H          -7.3340   -3.2827   -0.9007 H       1  LIG1        0.0486
     41 H          -5.7860   -3.5363   -0.0753 H       1  LIG1        0.0486
     42 H          -7.8104   -4.5257    1.4165 H       1  LIG1        0.1573
@<TRIPOS>BOND
     1     1     2   ar
     2     1     3   ar
     3     2     6   ar
     4     3     7   ar
     5     4     5   ar
     6     4     8   ar
     7     5     9   ar
     8     6    10   ar
     9     7    10   ar
    10     8    18   ar
    11     9    11   ar
    12     9    17    1
    13    10    21    1
    14    11    18   ar
    15    11    19    1
    16    12    20   am
    17    12    21   am
    18    12    22    2
    19    13    15    1
    20    13    19    1
    21    14    16    1
    22    14    19    1
    23    15    20    1
    24    16    20    1
    25    17    23    1
    26    17    24    1
    27    17    25    1
    28     1    26    1
    29     2    27    1
    30     3    28    1
    31     4    29    1
    32     5    30    1
    33     6    31    1
    34     7    32    1
    35     8    33    1
    36    13    34    1
    37    13    35    1
    38    14    36    1
    39    14    37    1
    40    15    38    1
    41    15    39    1
    42    16    40    1
    43    16    41    1
    44    21    42    1
