@<TRIPOS>MOLECULE
ChEBML348345
 36 39 0 0 0
SMALL
USER_CHARGES

@<TRIPOS>ATOM
      1 C          -3.4928   -2.3416   -0.9552 C.ar    1  LIG1       -0.0501
      2 C         -10.2610   -5.2761    0.5872 C.ar    1  LIG1       -0.0376
      3 C         -11.6065   -5.6422    0.6848 C.ar    1  LIG1       -0.0299
      4 C          -2.7385   -1.5804   -1.8556 C.ar    1  LIG1       -0.0256
      5 C         -12.1884   -3.4761    1.6155 C.ar    1  LIG1       -0.0226
      6 C          -5.6019   -2.2322    0.5757 C.ar    1  LIG1       -0.0276
      7 C         -10.1261   -1.8968    1.8552 C.ar    1  LIG1       -0.0275
      8 C          -4.2273    0.3199   -1.5790 C.ar    1  LIG1       -0.0043
      9 C          -4.6315   -1.7678   -0.3558 C.ar    1  LIG1       -0.0020
     10 C         -10.8377   -3.0846    1.5268 C.ar    1  LIG1        0.0003
     11 C          -9.9071   -3.9918    1.0157 C.ar    1  LIG1        0.0379
     12 C          -4.9718   -0.4529   -0.6808 C.ar    1  LIG1        0.0407
     13 C         -12.5570   -4.7577    1.1906 C.ar    1  LIG1        0.0753
     14 C          -3.1019   -0.2703   -2.1611 C.ar    1  LIG1        0.1246
     15 C          -6.4958   -1.2093    0.7942 C.ar    1  LIG1        0.0811
     16 C          -8.8019   -2.1023    1.5434 C.ar    1  LIG1        0.0811
     17 C          -7.7049   -1.1996    1.6952 C.2     1  LIG1        0.2206
     18 C         -14.7858   -4.1941    1.7995 C.3     1  LIG1        0.0422
     19 N          -8.6796   -3.3686    1.0374 N.ar    1  LIG1       -0.3112
     20 N          -6.1076   -0.1405    0.0319 N.ar    1  LIG1       -0.3111
     21 O          -7.6930   -0.3372    2.6043 O.2     1  LIG1       -0.2856
     22 O         -13.8615   -5.1440    1.2733 O.3     1  LIG1       -0.3493
     23 F          -2.3619    0.4359   -3.0273 F       1  LIG1       -0.2069
     24 H          -3.1985   -3.3620   -0.7270 H       1  LIG1        0.0631
     25 H          -9.5218   -5.9652    0.1929 H       1  LIG1        0.0643
     26 H         -11.9081   -6.6349    0.3585 H       1  LIG1        0.0651
     27 H          -1.8590   -2.0172   -2.3210 H       1  LIG1        0.0653
     28 H         -12.9357   -2.7919    2.0081 H       1  LIG1        0.0657
     29 H          -5.6386   -3.2117    1.0341 H       1  LIG1        0.0651
     30 H         -10.5426   -0.9908    2.2751 H       1  LIG1        0.0651
     31 H          -4.5097    1.3398   -1.8175 H       1  LIG1        0.0673
     32 H         -15.7885   -4.6282    1.8107 H       1  LIG1        0.0535
     33 H         -14.7742   -3.2925    1.1820 H       1  LIG1        0.0535
     34 H         -14.4906   -3.9384    2.8198 H       1  LIG1        0.0535
     35 H          -7.8153   -3.7885    0.7240 H       1  LIG1        0.1529
     36 H          -6.5834    0.7506   -0.0052 H       1  LIG1        0.1529
@<TRIPOS>BOND
     1     1     4   ar
     2     1     9   ar
     3     2     3   ar
     4     2    11   ar
     5     3    13   ar
     6     4    14   ar
     7     5    10   ar
     8     5    13   ar
     9     6     9   ar
    10     6    15   ar
    11     7    10   ar
    12     7    16   ar
    13     8    12   ar
    14     8    14   ar
    15     9    12   ar
    16    10    11   ar
    17    11    19   ar
    18    12    20   ar
    19    13    22    1
    20    14    23    1
    21    15    17    1
    22    15    20   ar
    23    16    17    1
    24    16    19   ar
    25    17    21    2
    26    18    22    1
    27     1    24    1
    28     2    25    1
    29     3    26    1
    30     4    27    1
    31     5    28    1
    32     6    29    1
    33     7    30    1
    34     8    31    1
    35    18    32    1
    36    18    33    1
    37    18    34    1
    38    19    35    1
    39    20    36    1
