@<TRIPOS>MOLECULE
ChEBML715789
 58 62 0 0 0
SMALL
USER_CHARGES

@<TRIPOS>ATOM
      1 C          -2.2080    0.6559   -3.5029 C.ar    1  LIG1       -0.0431
      2 C          -1.9332   -0.5988   -2.9705 C.ar    1  LIG1       -0.0449
      3 C         -12.2841   -3.7616    1.7310 C.ar    1  LIG1       -0.0482
      4 C         -11.4961   -5.7899    0.6812 C.ar    1  LIG1       -0.0482
      5 C         -10.9997   -3.2229    1.6541 C.ar    1  LIG1       -0.0402
      6 C         -10.2117   -5.2511    0.6043 C.ar    1  LIG1       -0.0402
      7 C          -3.2538    1.3791   -2.9523 C.ar    1  LIG1        0.0291
      8 C          -7.0122   -1.6691    1.2441 C.ar    1  LIG1        0.0159
      9 C         -12.5322   -5.0452    1.2446 C.ar    1  LIG1        0.0556
     10 C          -2.7018   -1.0851   -1.9187 C.ar    1  LIG1        0.0957
     11 C          -9.9636   -3.9677    1.0908 C.ar    1  LIG1        0.0314
     12 C          -6.3950   -0.7752    2.1205 C.ar    1  LIG1        0.0525
     13 C          -3.7253   -0.2838   -1.4390 C.ar    1  LIG1        0.1322
     14 C          -7.9737   -2.4935    1.8195 C.ar    1  LIG1        0.1306
     15 C          -7.6473   -1.5871    3.8677 C.ar    1  LIG1        0.2183
     16 C          -6.7257   -1.7679   -0.2309 C.3     1  LIG1       -0.0067
     17 C          -5.3540    0.2253    1.6782 C.3     1  LIG1        0.0060
     18 C          -8.8633   -1.1411    7.0103 C.3     1  LIG1       -0.0214
     19 C          -5.2460   -2.0047   -0.5498 C.3     1  LIG1        0.0171
     20 C          -4.1477   -0.4120    0.9842 C.3     1  LIG1        0.0184
     21 C          -7.9012   -0.4039    6.0735 C.3     1  LIG1        0.0158
     22 C          -9.1093   -2.1085    5.8480 C.3     1  LIG1        0.0158
     23 C         -13.9049   -5.6222    1.3268 C.3     1  LIG1        0.4160
     24 C          -2.4037   -2.4309   -1.3505 C.3     1  LIG1        0.4193
     25 N          -4.0223    0.9401   -1.9306 N.ar    1  LIG1       -0.2408
     26 N          -6.7057   -0.7268    3.4411 N.ar    1  LIG1       -0.2195
     27 N          -8.3134   -2.4819    3.1240 N.ar    1  LIG1       -0.1993
     28 N          -4.4839   -0.7584   -0.4030 N.pl3   1  LIG1       -0.3146
     29 N          -7.9688   -1.5411    5.2415 N.pl3   1  LIG1       -0.2999
     30 N          -8.6708   -3.4248    1.0114 N.pl3   1  LIG1       -0.2992
     31 F         -14.8179   -4.7838    1.9009 F       1  LIG1       -0.1661
     32 F         -14.4353   -5.9468    0.1106 F       1  LIG1       -0.1661
     33 F         -13.9487   -6.7705    2.0634 F       1  LIG1       -0.1661
     34 F          -1.3569   -3.0632   -1.9595 F       1  LIG1       -0.1660
     35 F          -2.0802   -2.4053   -0.0235 F       1  LIG1       -0.1660
     36 F          -3.4593   -3.2902   -1.4530 F       1  LIG1       -0.1660
     37 H          -1.6217    1.0552   -4.3224 H       1  LIG1        0.0639
     38 H          -1.1189   -1.1892   -3.3816 H       1  LIG1        0.0631
     39 H         -13.0851   -3.1748    2.1724 H       1  LIG1        0.0629
     40 H         -11.6796   -6.7913    0.3012 H       1  LIG1        0.0629
     41 H         -10.8170   -2.2223    2.0375 H       1  LIG1        0.0642
     42 H          -9.4117   -5.8407    0.1640 H       1  LIG1        0.0642
     43 H          -3.5098    2.3629   -3.3320 H       1  LIG1        0.0840
     44 H          -7.2770   -2.5920   -0.6953 H       1  LIG1        0.0334
     45 H          -7.0981   -0.8562   -0.7149 H       1  LIG1        0.0334
     46 H          -5.8373    0.9796    1.0457 H       1  LIG1        0.0348
     47 H          -4.9874    0.7568    2.5660 H       1  LIG1        0.0348
     48 H          -8.3806   -1.5996    7.8802 H       1  LIG1        0.0299
     49 H          -9.7346   -0.5679    7.3381 H       1  LIG1        0.0299
     50 H          -4.8249   -2.7949    0.0844 H       1  LIG1        0.0472
     51 H          -5.1502   -2.3541   -1.5858 H       1  LIG1        0.0472
     52 H          -3.3155    0.3032    0.9758 H       1  LIG1        0.0473
     53 H          -3.7942   -1.2950    1.5309 H       1  LIG1        0.0473
     54 H          -8.3119    0.4984    5.6094 H       1  LIG1        0.0470
     55 H          -6.9014   -0.2145    6.4706 H       1  LIG1        0.0470
     56 H          -8.9959   -3.1704    6.0772 H       1  LIG1        0.0470
     57 H         -10.0333   -1.9286    5.2893 H       1  LIG1        0.0470
     58 H          -8.1262   -3.7601    0.2253 H       1  LIG1        0.1543
@<TRIPOS>BOND
     1     1     2   ar
     2     1     7   ar
     3     2    10   ar
     4     3     5   ar
     5     3     9   ar
     6     4     6   ar
     7     4     9   ar
     8     5    11   ar
     9     6    11   ar
    10     7    25   ar
    11     8    12   ar
    12     8    14   ar
    13     8    16    1
    14     9    23    1
    15    10    13   ar
    16    10    24    1
    17    11    30    1
    18    12    17    1
    19    12    26   ar
    20    13    25   ar
    21    13    28    1
    22    14    27   ar
    23    14    30    1
    24    15    26   ar
    25    15    27   ar
    26    15    29    1
    27    16    19    1
    28    17    20    1
    29    18    21    1
    30    18    22    1
    31    19    28    1
    32    20    28    1
    33    21    29    1
    34    22    29    1
    35    23    31    1
    36    23    32    1
    37    23    33    1
    38    24    34    1
    39    24    35    1
    40    24    36    1
    41     1    37    1
    42     2    38    1
    43     3    39    1
    44     4    40    1
    45     5    41    1
    46     6    42    1
    47     7    43    1
    48    16    44    1
    49    16    45    1
    50    17    46    1
    51    17    47    1
    52    18    48    1
    53    18    49    1
    54    19    50    1
    55    19    51    1
    56    20    52    1
    57    20    53    1
    58    21    54    1
    59    21    55    1
    60    22    56    1
    61    22    57    1
    62    30    58    1
