@<TRIPOS>MOLECULE
ChEBML900727
 49 51 0 0 0
SMALL
USER_CHARGES

@<TRIPOS>ATOM
      1 C          -2.6915    1.5681   -3.0890 C.ar    1  LIG1       -0.0389
      2 C          -2.3070   -0.8123   -3.2396 C.ar    1  LIG1       -0.0389
      3 C          -3.4327    1.3747   -1.9234 C.ar    1  LIG1       -0.0389
      4 C          -3.0482   -1.0058   -2.0739 C.ar    1  LIG1       -0.0389
      5 C         -10.3727   -4.9918    0.3694 C.ar    1  LIG1       -0.0280
      6 C         -11.6991   -5.4294    0.4330 C.ar    1  LIG1       -0.0291
      7 C         -12.3282   -3.5502    1.8508 C.ar    1  LIG1       -0.0215
      8 C         -11.0001   -3.0918    1.8005 C.ar    1  LIG1        0.0136
      9 C         -10.2840   -1.9911    2.3408 C.ar    1  LIG1       -0.0040
     10 C          -2.1286    0.4745   -3.7472 C.ar    1  LIG1        0.0326
     11 C          -3.6111    0.0879   -1.4158 C.ar    1  LIG1        0.0327
     12 C         -10.0720   -3.8229    1.0662 C.ar    1  LIG1        0.0901
     13 C         -12.6611   -4.7233    1.1597 C.ar    1  LIG1        0.0754
     14 C          -8.9855   -2.1223    1.9060 C.ar    1  LIG1        0.1579
     15 C          -7.8281   -1.3230    2.1277 C.2     1  LIG1        0.3174
     16 C          -1.1033    1.8736   -5.5680 C.2     1  LIG1        0.2128
     17 C          -4.6369   -1.3118    0.4046 C.2     1  LIG1        0.2427
     18 C         -10.8259   -0.9191    3.1985 C.3     1  LIG1       -0.0362
     19 C          -0.2671    1.6554   -6.8039 C.3     1  LIG1        0.0130
     20 C         -14.2263   -6.3786    0.4773 C.3     1  LIG1        0.0422
     21 C          -5.4763   -1.1048    1.6465 C.3     1  LIG1        0.1337
     22 N          -1.3876    0.6677   -4.9132 N.am    1  LIG1       -0.2857
     23 N          -4.3630   -0.1086   -0.2332 N.am    1  LIG1       -0.2834
     24 O          -7.7861   -0.2727    2.8147 O.2     1  LIG1       -0.2582
     25 O          -1.4522    3.0022   -5.2369 O.2     1  LIG1       -0.2776
     26 O          -4.2886   -2.4400    0.0693 O.2     1  LIG1       -0.2746
     27 O          -8.8464   -3.2305    1.1324 O.2     1  LIG1       -0.3031
     28 O         -13.9449   -5.1813    1.1983 O.3     1  LIG1       -0.3493
     29 O          -6.7065   -1.8215    1.4977 O.3     1  LIG1       -0.3007
     30 H          -2.5592    2.5755   -3.4753 H       1  LIG1        0.0643
     31 H          -1.8726   -1.6716   -3.7441 H       1  LIG1        0.0643
     32 H          -3.8670    2.2347   -1.4195 H       1  LIG1        0.0643
     33 H          -3.1815   -2.0129   -1.6878 H       1  LIG1        0.0643
     34 H          -9.6212   -5.5339   -0.1919 H       1  LIG1        0.0651
     35 H         -11.9802   -6.3374   -0.0957 H       1  LIG1        0.0651
     36 H         -13.0834   -3.0085    2.4130 H       1  LIG1        0.0658
     37 H         -10.7482   -1.1861    4.2652 H       1  LIG1        0.0281
     38 H         -10.2936    0.0364    3.0528 H       1  LIG1        0.0281
     39 H         -11.8879   -0.7123    2.9812 H       1  LIG1        0.0281
     40 H          -0.9182    1.4989   -7.6685 H       1  LIG1        0.0328
     41 H           0.3651    0.7727   -6.6719 H       1  LIG1        0.0328
     42 H           0.3730    2.5249   -6.9800 H       1  LIG1        0.0328
     43 H         -15.2830   -6.6332    0.5906 H       1  LIG1        0.0535
     44 H         -13.6021   -7.1903    0.8594 H       1  LIG1        0.0535
     45 H         -14.0040   -6.2174   -0.5802 H       1  LIG1        0.0535
     46 H          -4.9410   -1.4706    2.5280 H       1  LIG1        0.0675
     47 H          -5.6944   -0.0424    1.7916 H       1  LIG1        0.0675
     48 H          -0.9983   -0.1753   -5.3510 H       1  LIG1        0.1556
     49 H          -4.7476    0.7282    0.1999 H       1  LIG1        0.1557
@<TRIPOS>BOND
     1     1     3   ar
     2     1    10   ar
     3     2     4   ar
     4     2    10   ar
     5     3    11   ar
     6     4    11   ar
     7     5     6   ar
     8     5    12   ar
     9     6    13   ar
    10     7     8   ar
    11     7    13   ar
    12     8     9   ar
    13     8    12   ar
    14     9    14   ar
    15     9    18    1
    16    10    22    1
    17    11    23    1
    18    12    27   ar
    19    13    28    1
    20    14    15    1
    21    14    27   ar
    22    15    24    2
    23    15    29    1
    24    16    19    1
    25    16    22   am
    26    16    25    2
    27    17    21    1
    28    17    23   am
    29    17    26    2
    30    20    28    1
    31    21    29    1
    32     1    30    1
    33     2    31    1
    34     3    32    1
    35     4    33    1
    36     5    34    1
    37     6    35    1
    38     7    36    1
    39    18    37    1
    40    18    38    1
    41    18    39    1
    42    19    40    1
    43    19    41    1
    44    19    42    1
    45    20    43    1
    46    20    44    1
    47    20    45    1
    48    21    46    1
    49    21    47    1
    50    22    48    1
    51    23    49    1
