@<TRIPOS>MOLECULE
ChEBML300322
 39 41 0 0 0
SMALL
USER_CHARGES

@<TRIPOS>ATOM
      1 C          -1.8122   -0.0634   -3.0658 C.ar    1  LIG1       -0.0419
      2 C         -10.3199   -5.2592    0.6005 C.ar    1  LIG1       -0.0387
      3 C          -2.2297   -0.7823   -1.9512 C.ar    1  LIG1       -0.0374
      4 C         -11.6939   -5.5133    0.5604 C.ar    1  LIG1       -0.0416
      5 C         -12.1834   -3.3332    1.5116 C.ar    1  LIG1       -0.0343
      6 C         -10.0316   -1.9410    1.9975 C.ar    1  LIG1       -0.0262
      7 C          -2.6057    0.9889   -3.4934 C.ar    1  LIG1        0.0269
      8 C          -4.1330    0.6371   -1.8135 C.ar    1  LIG1        0.0484
      9 C         -10.8030   -3.0547    1.5619 C.ar    1  LIG1       -0.0007
     10 C          -9.9050   -4.0221    1.1061 C.ar    1  LIG1        0.0379
     11 C          -3.4112   -0.4318   -1.3074 C.ar    1  LIG1        0.0535
     12 C         -12.6131   -4.5665    1.0084 C.ar    1  LIG1        0.0413
     13 C          -8.7049   -2.2484    1.8016 C.ar    1  LIG1        0.0945
     14 C          -7.5575   -1.4464    2.0873 C.2     1  LIG1        0.2576
     15 C          -4.6331   -0.4811    0.8338 C.2     1  LIG1        0.2357
     16 C          -3.5350   -2.5881   -0.0173 C.3     1  LIG1        0.0080
     17 C          -5.0335   -1.3082    2.0471 C.3     1  LIG1        0.0890
     18 N          -3.7594    1.3590   -2.8938 N.ar    1  LIG1       -0.2627
     19 N          -8.6387   -3.5055    1.2634 N.ar    1  LIG1       -0.3101
     20 N          -6.2857   -1.9847    1.7957 N.am    1  LIG1       -0.3013
     21 N          -3.8728   -1.1617   -0.1437 N.am    1  LIG1       -0.2719
     22 O          -7.6657   -0.3045    2.6015 O.2     1  LIG1       -0.2704
     23 O          -4.9453    0.7112    0.7799 O.2     1  LIG1       -0.2752
     24 CL        -14.2989   -4.9157    0.9415 Cl      1  LIG1       -0.0843
     25 H          -0.8946   -0.3189   -3.5834 H       1  LIG1        0.0639
     26 H          -9.6053   -5.9975    0.2520 H       1  LIG1        0.0643
     27 H          -1.6272   -1.6129   -1.5931 H       1  LIG1        0.0643
     28 H         -12.0348   -6.4702    0.1708 H       1  LIG1        0.0639
     29 H         -12.8991   -2.5940    1.8618 H       1  LIG1        0.0645
     30 H         -10.4109   -1.0152    2.4095 H       1  LIG1        0.0651
     31 H          -2.3244    1.5801   -4.3585 H       1  LIG1        0.0839
     32 H          -5.0631    0.9583   -1.3540 H       1  LIG1        0.0860
     33 H          -2.5862   -2.7040    0.5130 H       1  LIG1        0.0437
     34 H          -3.4431   -3.0439   -1.0069 H       1  LIG1        0.0437
     35 H          -4.3158   -3.1136    0.5393 H       1  LIG1        0.0437
     36 H          -4.2849   -2.0790    2.2466 H       1  LIG1        0.0567
     37 H          -5.1764   -0.6639    2.9184 H       1  LIG1        0.0567
     38 H          -7.7854   -3.9879    1.0163 H       1  LIG1        0.1529
     39 H          -6.2342   -2.9339    1.4404 H       1  LIG1        0.1503
@<TRIPOS>BOND
     1     1     3   ar
     2     1     7   ar
     3     2     4   ar
     4     2    10   ar
     5     3    11   ar
     6     4    12   ar
     7     5     9   ar
     8     5    12   ar
     9     6     9   ar
    10     6    13   ar
    11     7    18   ar
    12     8    11   ar
    13     8    18   ar
    14     9    10   ar
    15    10    19   ar
    16    11    21    1
    17    12    24    1
    18    13    14    1
    19    13    19   ar
    20    14    20   am
    21    14    22    2
    22    15    17    1
    23    15    21   am
    24    15    23    2
    25    16    21    1
    26    17    20    1
    27     1    25    1
    28     2    26    1
    29     3    27    1
    30     4    28    1
    31     5    29    1
    32     6    30    1
    33     7    31    1
    34     8    32    1
    35    16    33    1
    36    16    34    1
    37    16    35    1
    38    17    36    1
    39    17    37    1
    40    19    38    1
    41    20    39    1
