@<TRIPOS>MOLECULE
ChEBML212869
 36 38 0 0 0
SMALL
USER_CHARGES

@<TRIPOS>ATOM
      1 C         -11.4318   -5.6857    0.9019 C.ar    1  LIG1       -0.0592
      2 C         -10.0747   -5.3591    0.9745 C.ar    1  LIG1       -0.0401
      3 C         -12.4153   -4.7239    1.1246 C.ar    1  LIG1       -0.0472
      4 C         -10.0106   -1.8396    1.7831 C.ar    1  LIG1       -0.0251
      5 C         -10.7069   -3.0493    1.5064 C.ar    1  LIG1        0.0120
      6 C          -9.7432   -4.0340    1.2784 C.ar    1  LIG1        0.0389
      7 C         -12.0689   -3.4021    1.4277 C.ar    1  LIG1        0.0267
      8 C          -8.6628   -2.1083    1.7194 C.ar    1  LIG1        0.0947
      9 C          -7.5654   -1.2090    1.9256 C.2     1  LIG1        0.2602
     10 C          -6.4012   -2.1607   -0.0975 C.3     1  LIG1        0.0539
     11 C          -5.0599   -1.1584    1.7057 C.3     1  LIG1        0.0539
     12 C          -5.6893   -1.3061   -1.1359 C.3     1  LIG1       -0.0183
     13 C          -4.3163   -0.2913    0.6990 C.3     1  LIG1       -0.0183
     14 C          -3.4979   -0.2273   -1.6598 C.3     1  LIG1       -0.0453
     15 N          -8.5115   -3.4343    1.4141 N.ar    1  LIG1       -0.3101
     16 N          -6.3947   -1.4956    1.2118 N.am    1  LIG1       -0.2863
     17 N          -4.2928   -0.9944   -0.6408 N.4     1  LIG1        0.2462
     18 O          -7.6776   -0.2522    2.6901 O.2     1  LIG1       -0.2701
     19 BR        -13.4370   -2.1290    1.7231 Br      1  LIG1       -0.0501
     20 H         -11.7233   -6.7065    0.6678 H       1  LIG1        0.0624
     21 H          -9.3099   -6.1086    0.8003 H       1  LIG1        0.0642
     22 H         -13.4599   -5.0197    1.0580 H       1  LIG1        0.0635
     23 H         -10.4460   -0.8747    2.0067 H       1  LIG1        0.0652
     24 H          -7.4174   -2.3728   -0.4382 H       1  LIG1        0.0525
     25 H          -5.8930   -3.1249    0.0252 H       1  LIG1        0.0525
     26 H          -4.5252   -2.1003    1.8768 H       1  LIG1        0.0525
     27 H          -5.1206   -0.6375    2.6663 H       1  LIG1        0.0525
     28 H          -5.5909   -1.8434   -2.0845 H       1  LIG1        0.0831
     29 H          -6.2006   -0.3507   -1.2989 H       1  LIG1        0.0831
     30 H          -4.8102    0.6758    0.5521 H       1  LIG1        0.0831
     31 H          -3.2781   -0.1355    1.0090 H       1  LIG1        0.0831
     32 H          -3.9952    0.7314   -1.8185 H       1  LIG1        0.0777
     33 H          -2.4914   -0.0864   -1.2614 H       1  LIG1        0.0777
     34 H          -3.4772   -0.8155   -2.5793 H       1  LIG1        0.0777
     35 H          -7.6253   -3.9077    1.3024 H       1  LIG1        0.1529
     36 H          -3.8077   -1.8923   -0.5068 H       1  LIG1        0.2001
@<TRIPOS>BOND
     1     1     2   ar
     2     1     3   ar
     3     2     6   ar
     4     3     7   ar
     5     4     5   ar
     6     4     8   ar
     7     5     6   ar
     8     5     7   ar
     9     6    15   ar
    10     7    19    1
    11     8     9    1
    12     8    15   ar
    13     9    16   am
    14     9    18    2
    15    10    12    1
    16    10    16    1
    17    11    13    1
    18    11    16    1
    19    12    17    1
    20    13    17    1
    21    14    17    1
    22     1    20    1
    23     2    21    1
    24     3    22    1
    25     4    23    1
    26    10    24    1
    27    10    25    1
    28    11    26    1
    29    11    27    1
    30    12    28    1
    31    12    29    1
    32    13    30    1
    33    13    31    1
    34    14    32    1
    35    14    33    1
    36    14    34    1
    37    15    35    1
    38    17    36    1
