@<TRIPOS>MOLECULE
ChEBML272956
 50 52 0 0 0
SMALL
USER_CHARGES

@<TRIPOS>ATOM
      1 C          -2.5593    1.3075   -3.0336 C.ar    1  LIG1       -0.0621
      2 C          -1.8552    0.2941   -2.3834 C.ar    1  LIG1       -0.0604
      3 C          -3.9135    1.5014   -2.7610 C.ar    1  LIG1       -0.0604
      4 C          -2.5052   -0.5255   -1.4606 C.ar    1  LIG1       -0.0409
      5 C          -4.5636    0.6817   -1.8383 C.ar    1  LIG1       -0.0409
      6 C         -10.9261   -2.6894    0.8400 C.ar    1  LIG1       -0.0392
      7 C         -10.4202   -4.9629    1.4824 C.ar    1  LIG1       -0.0392
      8 C         -12.2886   -2.9531    0.9800 C.ar    1  LIG1       -0.0378
      9 C         -11.7827   -5.2265    1.6225 C.ar    1  LIG1       -0.0378
     10 C          -3.8594   -0.3317   -1.1882 C.ar    1  LIG1        0.0289
     11 C          -9.9918   -3.6943    1.0912 C.ar    1  LIG1        0.0263
     12 C         -12.7170   -4.2216    1.3713 C.ar    1  LIG1        0.0431
     13 C          -3.9468   -1.1038    1.0868 C.3     1  LIG1        0.0508
     14 C          -5.9702   -1.1417   -0.3713 C.3     1  LIG1        0.0552
     15 C          -4.5474   -2.2079    1.9433 C.3     1  LIG1       -0.0196
     16 C          -6.5714   -2.2495    0.4972 C.3     1  LIG1        0.0067
     17 C         -15.0858   -4.3748   -0.9835 C.3     1  LIG1        0.0225
     18 C          -8.0898   -2.1705    0.5567 C.3     1  LIG1        0.0519
     19 N          -4.5044   -1.1444   -0.2729 N.pl3   1  LIG1       -0.3199
     20 N          -8.6285   -3.4307    0.9509 N.pl3   1  LIG1       -0.3388
     21 N         -14.1115   -4.4902    1.5165 N.pl3   1  LIG1       -0.2633
     22 N          -6.0351   -2.1120    1.8903 N.4     1  LIG1        0.2441
     23 O         -13.8975   -6.5050   -0.0794 O.2     1  LIG1       -0.4814
     24 O         -16.1816   -5.9298    0.8135 O.2     1  LIG1       -0.4814
     25 S         -14.8673   -5.5193    0.3606 S.O2    1  LIG1       -0.1957
     26 H          -2.0531    1.9455   -3.7523 H       1  LIG1        0.0622
     27 H          -0.8010    0.1433   -2.5957 H       1  LIG1        0.0623
     28 H          -4.4617    2.2906   -3.2675 H       1  LIG1        0.0623
     29 H          -1.9475   -1.3124   -0.9595 H       1  LIG1        0.0642
     30 H          -5.6190    0.8423   -1.6338 H       1  LIG1        0.0642
     31 H         -10.6036   -1.6972    0.5352 H       1  LIG1        0.0643
     32 H          -9.7002   -5.7525    1.6820 H       1  LIG1        0.0643
     33 H         -13.0082   -2.1629    0.7824 H       1  LIG1        0.0643
     34 H         -12.1067   -6.2182    1.9278 H       1  LIG1        0.0643
     35 H          -4.1476   -0.1241    1.5400 H       1  LIG1        0.0524
     36 H          -2.8584   -1.2367    1.0547 H       1  LIG1        0.0524
     37 H          -6.2756   -1.3042   -1.4131 H       1  LIG1        0.0527
     38 H          -6.3573   -0.1604   -0.0650 H       1  LIG1        0.0527
     39 H          -4.2735   -3.2053    1.5833 H       1  LIG1        0.0830
     40 H          -4.2546   -2.1082    2.9925 H       1  LIG1        0.0830
     41 H          -6.2608   -3.2387    0.1401 H       1  LIG1        0.0884
     42 H         -15.5670   -4.9013   -1.8093 H       1  LIG1        0.0442
     43 H         -15.7135   -3.5525   -0.6370 H       1  LIG1        0.0442
     44 H         -14.1042   -4.0063   -1.2851 H       1  LIG1        0.0442
     45 H          -8.4685   -1.9141   -0.4259 H       1  LIG1        0.0525
     46 H          -8.3804   -1.4186    1.2806 H       1  LIG1        0.0525
     47 H          -7.9884   -4.2035    1.1463 H       1  LIG1        0.1467
     48 H         -14.6749   -3.6698    1.7950 H       1  LIG1        0.1702
     49 H          -6.4394   -2.8444    2.4902 H       1  LIG1        0.1987
     50 H          -6.3380   -1.2158    2.2975 H       1  LIG1        0.1987
@<TRIPOS>BOND
     1     1     2   ar
     2     1     3   ar
     3     2     4   ar
     4     3     5   ar
     5     4    10   ar
     6     5    10   ar
     7     6     8   ar
     8     6    11   ar
     9     7     9   ar
    10     7    11   ar
    11     8    12   ar
    12     9    12   ar
    13    10    19    1
    14    11    20    1
    15    12    21    1
    16    13    15    1
    17    13    19    1
    18    14    16    1
    19    14    19    1
    20    15    22    1
    21    16    18    1
    22    16    22    1
    23    17    25    1
    24    18    20    1
    25    21    25    1
    26    23    25    2
    27    24    25    2
    28     1    26    1
    29     2    27    1
    30     3    28    1
    31     4    29    1
    32     5    30    1
    33     6    31    1
    34     7    32    1
    35     8    33    1
    36     9    34    1
    37    13    35    1
    38    13    36    1
    39    14    37    1
    40    14    38    1
    41    15    39    1
    42    15    40    1
    43    16    41    1
    44    17    42    1
    45    17    43    1
    46    17    44    1
    47    18    45    1
    48    18    46    1
    49    20    47    1
    50    21    48    1
    51    22    49    1
    52    22    50    1
