@<TRIPOS>MOLECULE
ChEBML369956
 54 57 0 0 0
SMALL
USER_CHARGES

@<TRIPOS>ATOM
      1 C          -0.4404    1.0455   -3.0065 C.ar    1  LIG1       -0.0622
      2 C          -0.9368    1.6881   -1.8724 C.ar    1  LIG1       -0.0620
      3 C          -1.3138    0.3944   -3.8776 C.ar    1  LIG1       -0.0620
      4 C         -12.0853   -3.5144    1.9535 C.ar    1  LIG1       -0.0511
      5 C          -2.3066    1.6795   -1.6093 C.ar    1  LIG1       -0.0590
      6 C          -2.6836    0.3858   -3.6146 C.ar    1  LIG1       -0.0590
      7 C         -12.5394   -4.7147    1.3951 C.ar    1  LIG1       -0.0389
      8 C          -9.9603   -2.0182    2.1779 C.ar    1  LIG1       -0.0262
      9 C         -10.3426   -5.1744    0.4638 C.ar    1  LIG1       -0.0176
     10 C         -10.7413   -3.1346    1.7670 C.ar    1  LIG1       -0.0021
     11 C          -3.1801    1.0283   -2.4804 C.ar    1  LIG1       -0.0477
     12 C          -9.9027   -3.9717    1.0279 C.ar    1  LIG1        0.0397
     13 C         -11.6797   -5.5304    0.6621 C.ar    1  LIG1        0.0448
     14 C          -8.6864   -2.1961    1.6896 C.ar    1  LIG1        0.0947
     15 C          -7.5472   -1.3392    1.8430 C.2     1  LIG1        0.2598
     16 C          -6.5576   -0.4882   -1.5027 C.3     1  LIG1       -0.0341
     17 C          -4.7126    0.0528    0.1326 C.3     1  LIG1       -0.0341
     18 C          -6.9908   -1.6359   -0.5924 C.3     1  LIG1        0.0147
     19 C          -5.1828   -1.1123    0.9999 C.3     1  LIG1        0.0147
     20 C          -5.0591   -0.1837   -1.3462 C.3     1  LIG1       -0.0344
     21 C         -12.1314   -6.3415   -2.5488 C.3     1  LIG1        0.0225
     22 C          -4.6572    1.0185   -2.1972 C.3     1  LIG1       -0.0249
     23 N          -8.6615   -3.3769    0.9972 N.ar    1  LIG1       -0.3100
     24 N          -6.6164   -1.3617    0.7960 N.am    1  LIG1       -0.2967
     25 N         -12.1705   -6.7512    0.1049 N.pl3   1  LIG1       -0.2632
     26 O          -7.4239   -0.6389    2.8462 O.2     1  LIG1       -0.2702
     27 O         -13.8259   -7.9777   -1.4447 O.2     1  LIG1       -0.4814
     28 O         -14.1361   -5.5031   -1.0907 O.2     1  LIG1       -0.4814
     29 S         -13.2686   -6.6572   -1.2177 S.O2    1  LIG1       -0.1957
     30 H           0.6261    1.0535   -3.2118 H       1  LIG1        0.0622
     31 H          -0.2570    2.1962   -1.1945 H       1  LIG1        0.0623
     32 H          -0.9278   -0.1051   -4.7613 H       1  LIG1        0.0623
     33 H         -12.7666   -2.8869    2.5213 H       1  LIG1        0.0630
     34 H          -2.6845    2.1827   -0.7231 H       1  LIG1        0.0625
     35 H          -3.3566   -0.1242   -4.2988 H       1  LIG1        0.0625
     36 H         -13.5777   -5.0031    1.5428 H       1  LIG1        0.0643
     37 H         -10.2985   -1.1770    2.7685 H       1  LIG1        0.0651
     38 H          -9.6665   -5.8040   -0.1062 H       1  LIG1        0.0663
     39 H          -6.7838   -0.7425   -2.5448 H       1  LIG1        0.0285
     40 H          -7.1421    0.4073   -1.2546 H       1  LIG1        0.0285
     41 H          -5.1902    0.9780    0.4804 H       1  LIG1        0.0285
     42 H          -3.6304    0.1834    0.2495 H       1  LIG1        0.0285
     43 H          -8.0704   -1.7915   -0.6819 H       1  LIG1        0.0469
     44 H          -6.4981   -2.5695   -0.8886 H       1  LIG1        0.0469
     45 H          -4.6501   -2.0317    0.7290 H       1  LIG1        0.0469
     46 H          -4.9530   -0.9020    2.0473 H       1  LIG1        0.0469
     47 H          -4.4910   -1.0544   -1.6997 H       1  LIG1        0.0307
     48 H         -12.7012   -6.2559   -3.4754 H       1  LIG1        0.0442
     49 H         -11.6037   -5.4104   -2.3371 H       1  LIG1        0.0442
     50 H         -11.4295   -7.1746   -2.6069 H       1  LIG1        0.0442
     51 H          -4.9451    1.9414   -1.6835 H       1  LIG1        0.0319
     52 H          -5.2175    1.0031   -3.1378 H       1  LIG1        0.0319
     53 H          -7.8502   -3.7607    0.5319 H       1  LIG1        0.1529
     54 H         -11.4581   -7.4947    0.0213 H       1  LIG1        0.1702
@<TRIPOS>BOND
     1     1     2   ar
     2     1     3   ar
     3     2     5   ar
     4     3     6   ar
     5     4     7   ar
     6     4    10   ar
     7     5    11   ar
     8     6    11   ar
     9     7    13   ar
    10     8    10   ar
    11     8    14   ar
    12     9    12   ar
    13     9    13   ar
    14    10    12   ar
    15    11    22    1
    16    12    23   ar
    17    13    25    1
    18    14    15    1
    19    14    23   ar
    20    15    24   am
    21    15    26    2
    22    16    18    1
    23    16    20    1
    24    17    19    1
    25    17    20    1
    26    18    24    1
    27    19    24    1
    28    20    22    1
    29    21    29    1
    30    25    29    1
    31    27    29    2
    32    28    29    2
    33     1    30    1
    34     2    31    1
    35     3    32    1
    36     4    33    1
    37     5    34    1
    38     6    35    1
    39     7    36    1
    40     8    37    1
    41     9    38    1
    42    16    39    1
    43    16    40    1
    44    17    41    1
    45    17    42    1
    46    18    43    1
    47    18    44    1
    48    19    45    1
    49    19    46    1
    50    20    47    1
    51    21    48    1
    52    21    49    1
    53    21    50    1
    54    22    51    1
    55    22    52    1
    56    23    53    1
    57    25    54    1
