@<TRIPOS>MOLECULE
ChEBML622524
 41 44 0 0 0
SMALL
USER_CHARGES

@<TRIPOS>ATOM
      1 C          -2.0427    0.8576   -3.2454 C.ar    1  LIG1       -0.0432
      2 C          -1.8123   -0.4581   -2.8589 C.ar    1  LIG1       -0.0462
      3 C         -11.6002   -5.3738    0.6499 C.ar    1  LIG1       -0.0482
      4 C         -12.0507   -3.0646    1.1989 C.ar    1  LIG1       -0.0482
      5 C         -10.2343   -5.1476    0.8188 C.ar    1  LIG1       -0.0402
      6 C         -10.6847   -2.8383    1.3680 C.ar    1  LIG1       -0.0402
      7 C          -3.2003    1.4722   -2.7960 C.ar    1  LIG1        0.0276
      8 C          -5.5684   -2.1136   -1.1774 C.ar    1  LIG1        0.0559
      9 C          -7.1931   -0.8440    3.1622 C.ar    1  LIG1        0.1198
     10 C         -12.5084   -4.3323    0.8399 C.ar    1  LIG1        0.0556
     11 C          -2.7335   -1.1096   -2.0464 C.ar    1  LIG1        0.0834
     12 C          -6.7217   -2.0293    0.8050 C.ar    1  LIG1        0.1481
     13 C          -9.7765   -3.8799    1.1780 C.ar    1  LIG1        0.0314
     14 C          -4.8693   -0.9969   -0.8091 C.ar    1  LIG1        0.1101
     15 C          -3.8601   -0.4069   -1.6506 C.ar    1  LIG1        0.1025
     16 C          -6.0157   -0.8887    1.1936 C.ar    1  LIG1        0.1835
     17 C          -7.6624   -2.4952    1.7036 C.ar    1  LIG1        0.1533
     18 C         -13.9690   -4.5731    0.6589 C.3     1  LIG1        0.4160
     19 C          -2.4844   -2.5207   -1.6348 C.3     1  LIG1        0.4181
     20 N          -6.5036   -2.6433   -0.3738 N.ar    1  LIG1       -0.2468
     21 N          -4.1182    0.8718   -2.0058 N.ar    1  LIG1       -0.2539
     22 N          -6.2514   -0.2970    2.3709 N.ar    1  LIG1       -0.2148
     23 N          -7.9281   -1.9294    2.8949 N.ar    1  LIG1       -0.2189
     24 N          -5.0891   -0.3841    0.3702 N.ar    1  LIG1       -0.2231
     25 N          -8.4032   -3.6524    1.3499 N.pl3   1  LIG1       -0.2976
     26 F         -14.2729   -5.8577    0.3078 F       1  LIG1       -0.1661
     27 F         -14.7070   -4.3270    1.7817 F       1  LIG1       -0.1661
     28 F         -14.5138   -3.7887   -0.3163 F       1  LIG1       -0.1661
     29 F          -1.3202   -3.0381   -2.1285 F       1  LIG1       -0.1660
     30 F          -2.4030   -2.6900   -0.2817 F       1  LIG1       -0.1660
     31 F          -3.4677   -3.3711   -2.0512 F       1  LIG1       -0.1660
     32 H          -1.3376    1.3844   -3.8782 H       1  LIG1        0.0639
     33 H          -0.9122   -0.9658   -3.1946 H       1  LIG1        0.0630
     34 H         -11.9480   -6.3643    0.3690 H       1  LIG1        0.0629
     35 H         -12.7506   -2.2467    1.3474 H       1  LIG1        0.0629
     36 H          -9.5350   -5.9658    0.6670 H       1  LIG1        0.0642
     37 H         -10.3390   -1.8463    1.6472 H       1  LIG1        0.0642
     38 H          -3.4273    2.4969   -3.0709 H       1  LIG1        0.0840
     39 H          -5.4116   -2.6257   -2.1192 H       1  LIG1        0.0864
     40 H          -7.3720   -0.3542    4.1112 H       1  LIG1        0.1064
     41 H          -7.8208   -4.4656    1.1925 H       1  LIG1        0.1543
@<TRIPOS>BOND
     1     1     2   ar
     2     1     7   ar
     3     2    11   ar
     4     3     5   ar
     5     3    10   ar
     6     4     6   ar
     7     4    10   ar
     8     5    13   ar
     9     6    13   ar
    10     7    21   ar
    11     8    14   ar
    12     8    20   ar
    13     9    22   ar
    14     9    23   ar
    15    10    18    1
    16    11    15   ar
    17    11    19    1
    18    12    16   ar
    19    12    17   ar
    20    12    20   ar
    21    13    25    1
    22    14    15    1
    23    14    24   ar
    24    15    21   ar
    25    16    22   ar
    26    16    24   ar
    27    17    23   ar
    28    17    25    1
    29    18    26    1
    30    18    27    1
    31    18    28    1
    32    19    29    1
    33    19    30    1
    34    19    31    1
    35     1    32    1
    36     2    33    1
    37     3    34    1
    38     4    35    1
    39     5    36    1
    40     6    37    1
    41     7    38    1
    42     8    39    1
    43     9    40    1
    44    25    41    1
