@<TRIPOS>MOLECULE
ChEBML1137489
 49 52 0 0 0
SMALL
USER_CHARGES

@<TRIPOS>ATOM
      1 C          -2.3889    0.8236   -3.5988 C.ar    1  LIG1       -0.0613
      2 C          -3.6590    1.2115   -3.2015 C.ar    1  LIG1       -0.0603
      3 C         -12.9810   -2.5089    1.8873 C.ar    1  LIG1       -0.0513
      4 C         -12.5281   -4.6772    0.9368 C.ar    1  LIG1       -0.0513
      5 C          -1.7111   -0.1547   -2.9053 C.ar    1  LIG1       -0.0478
      6 C          -4.2590    0.6228   -2.1076 C.ar    1  LIG1       -0.0401
      7 C         -14.3317   -2.7924    1.8774 C.ar    1  LIG1       -0.0428
      8 C         -13.8802   -4.9539    0.9367 C.ar    1  LIG1       -0.0428
      9 C         -10.0153   -1.9650    1.8821 C.ar    1  LIG1       -0.0059
     10 C         -12.0700   -3.4529    1.4187 C.ar    1  LIG1        0.0019
     11 C          -2.3051   -0.7610   -1.7954 C.ar    1  LIG1        0.0580
     12 C          -3.5938   -0.3705   -1.3994 C.ar    1  LIG1        0.0413
     13 C         -14.7816   -4.0124    1.4029 C.ar    1  LIG1        0.0406
     14 C         -10.6162   -3.1530    1.4272 C.ar    1  LIG1        0.0905
     15 C          -8.6586   -2.1476    1.6944 C.ar    1  LIG1        0.1123
     16 C          -1.5852   -1.8087   -1.0485 C.2     1  LIG1        0.2423
     17 C          -7.5880   -1.1891    2.0133 C.2     1  LIG1        0.2614
     18 C          -4.5879    0.1145    0.6080 C.3     1  LIG1        0.0274
     19 C          -5.4309   -1.5975   -0.7894 C.3     1  LIG1        0.0274
     20 C          -5.2431   -0.4771    1.8602 C.3     1  LIG1        0.0303
     21 C          -6.1418   -2.3021    0.3705 C.3     1  LIG1        0.0303
     22 N          -9.6551   -3.9504    1.0111 N.ar    1  LIG1       -0.1834
     23 N          -8.5072   -3.3914    1.1487 N.ar    1  LIG1       -0.2326
     24 N          -4.1980   -0.9690   -0.3015 N.pl3   1  LIG1       -0.3270
     25 N          -6.3755   -1.3172    1.4389 N.am    1  LIG1       -0.2935
     26 N          -0.3480   -2.1805   -1.4324 N.am    1  LIG1       -0.3250
     27 O          -2.1079   -2.3374   -0.0861 O.2     1  LIG1       -0.2720
     28 O          -7.7976   -0.2814    2.7953 O.2     1  LIG1       -0.2701
     29 CL        -16.4818   -4.3633    1.3930 Cl      1  LIG1       -0.0843
     30 H          -1.9282    1.2912   -4.4564 H       1  LIG1        0.0623
     31 H          -4.1821    1.9797   -3.7517 H       1  LIG1        0.0623
     32 H         -12.6309   -1.5568    2.2580 H       1  LIG1        0.0630
     33 H         -11.8259   -5.4103    0.5680 H       1  LIG1        0.0630
     34 H          -0.7214   -0.4525   -3.2189 H       1  LIG1        0.0631
     35 H          -5.2487    0.9310   -1.8043 H       1  LIG1        0.0642
     36 H         -15.0386   -2.0612    2.2408 H       1  LIG1        0.0638
     37 H         -14.2358   -5.9047    0.5681 H       1  LIG1        0.0638
     38 H         -10.5091   -1.0960    2.2911 H       1  LIG1        0.0668
     39 H          -3.7035    0.6832    0.8952 H       1  LIG1        0.0485
     40 H          -5.2955    0.7736    0.1050 H       1  LIG1        0.0485
     41 H          -6.0870   -0.8338   -1.2070 H       1  LIG1        0.0485
     42 H          -5.1858   -2.3267   -1.5616 H       1  LIG1        0.0485
     43 H          -4.5176   -1.0838    2.4022 H       1  LIG1        0.0486
     44 H          -5.6018    0.3277    2.5018 H       1  LIG1        0.0486
     45 H          -5.5159   -3.1110    0.7475 H       1  LIG1        0.0486
     46 H          -7.0948   -2.7042    0.0270 H       1  LIG1        0.0486
     47 H          -7.6588   -3.7931    0.9041 H       1  LIG1        0.1757
     48 H           0.1256   -2.8698   -0.9411 H       1  LIG1        0.1458
     49 H           0.0673   -1.7616   -2.2025 H       1  LIG1        0.1458
@<TRIPOS>BOND
     1     1     2   ar
     2     1     5   ar
     3     2     6   ar
     4     3     7   ar
     5     3    10   ar
     6     4     8   ar
     7     4    10   ar
     8     5    11   ar
     9     6    12   ar
    10     7    13   ar
    11     8    13   ar
    12     9    14   ar
    13     9    15   ar
    14    10    14    1
    15    11    12   ar
    16    11    16    1
    17    12    24    1
    18    13    29    1
    19    14    22   ar
    20    15    17    1
    21    15    23   ar
    22    16    26   am
    23    16    27    2
    24    17    25   am
    25    17    28    2
    26    18    20    1
    27    18    24    1
    28    19    21    1
    29    19    24    1
    30    20    25    1
    31    21    25    1
    32    22    23   ar
    33     1    30    1
    34     2    31    1
    35     3    32    1
    36     4    33    1
    37     5    34    1
    38     6    35    1
    39     7    36    1
    40     8    37    1
    41     9    38    1
    42    18    39    1
    43    18    40    1
    44    19    41    1
    45    19    42    1
    46    20    43    1
    47    20    44    1
    48    21    45    1
    49    21    46    1
    50    23    47    1
    51    26    48    1
    52    26    49    1
