@<TRIPOS>MOLECULE
ChEBML826691
 64 68 0 0 0
SMALL
USER_CHARGES

@<TRIPOS>ATOM
      1 C         -17.7059   -6.2690    2.7591 C.ar    1  LIG1       -0.0587
      2 C         -16.3676   -6.1099    2.3995 C.ar    1  LIG1       -0.0468
      3 C         -10.3913   -5.0037    0.2059 C.ar    1  LIG1       -0.0339
      4 C         -11.7055   -5.4501    0.3654 C.ar    1  LIG1       -0.0385
      5 C         -18.6110   -6.8203    1.8520 C.ar    1  LIG1       -0.0291
      6 C          -2.2914    0.3169   -3.1790 C.ar    1  LIG1       -0.0252
      7 C         -12.1008   -3.6895    1.9531 C.ar    1  LIG1       -0.0310
      8 C          -8.9785   -1.7146    2.3170 C.ar    1  LIG1       -0.0181
      9 C          -3.4498    0.9901   -2.8482 C.ar    1  LIG1        0.0322
     10 C          -1.9846   -0.7691   -2.3848 C.ar    1  LIG1        0.0322
     11 C         -10.7788   -3.2407    1.7925 C.ar    1  LIG1        0.0051
     12 C         -15.9344   -6.5019    1.1329 C.ar    1  LIG1        0.0703
     13 C         -10.2889   -2.1332    2.4978 C.ar    1  LIG1       -0.0382
     14 C          -9.9042   -3.9034    0.9062 C.ar    1  LIG1        0.0729
     15 C         -12.5616   -4.7924    1.2400 C.ar    1  LIG1        0.0335
     16 C         -18.1778   -7.2123    0.5855 C.ar    1  LIG1        0.1056
     17 C         -16.8395   -7.0531    0.2258 C.ar    1  LIG1        0.1173
     18 C          -8.1982   -2.4262    1.4285 C.ar    1  LIG1        0.1210
     19 C          -3.8469   -0.4372   -1.1242 C.ar    1  LIG1        0.2162
     20 C         -14.5173   -6.3216    0.7739 C.2     1  LIG1        0.2500
     21 C          -6.5905   -0.5890    1.4195 C.3     1  LIG1        0.0288
     22 C          -6.0320   -2.8072    0.3921 C.3     1  LIG1        0.0288
     23 C          -5.8510   -0.0450    0.1941 C.3     1  LIG1        0.0302
     24 C          -4.6175   -2.2224    0.3513 C.3     1  LIG1        0.0302
     25 C         -11.1359   -1.3623    3.4612 C.3     1  LIG1       -0.0390
     26 C         -20.4202   -7.8777    0.1564 C.3     1  LIG1        0.0424
     27 C         -16.4871   -6.4566   -2.0492 C.3     1  LIG1        0.0424
     28 N          -4.2542    0.6391   -1.8235 N.ar    1  LIG1       -0.2235
     29 N          -2.7425   -1.1757   -1.3452 N.ar    1  LIG1       -0.2235
     30 N          -8.6320   -3.4996    0.7287 N.ar    1  LIG1       -0.2329
     31 N          -6.8607   -1.9946    1.2479 N.pl3   1  LIG1       -0.3127
     32 N          -4.6423   -0.8234   -0.0753 N.pl3   1  LIG1       -0.2969
     33 N         -13.8745   -5.2352    1.4016 N.am    1  LIG1       -0.2812
     34 O         -13.9727   -7.0610   -0.0432 O.2     1  LIG1       -0.2714
     35 O         -19.0719   -7.7500   -0.2904 O.3     1  LIG1       -0.3465
     36 O         -16.4235   -7.4361   -1.0155 O.3     1  LIG1       -0.3457
     37 H         -18.0423   -5.9658    3.7462 H       1  LIG1        0.0624
     38 H         -15.6717   -5.6784    3.1144 H       1  LIG1        0.0632
     39 H          -9.7404   -5.5362   -0.4853 H       1  LIG1        0.0646
     40 H         -12.0462   -6.3133   -0.2008 H       1  LIG1        0.0643
     41 H         -19.6519   -6.9429    2.1388 H       1  LIG1        0.0651
     42 H          -1.6635    0.6208   -4.0056 H       1  LIG1        0.0655
     43 H         -12.7832   -3.1849    2.6342 H       1  LIG1        0.0649
     44 H          -8.5854   -0.8585    2.8567 H       1  LIG1        0.0662
     45 H          -3.7734    1.8563   -3.4156 H       1  LIG1        0.0841
     46 H          -1.0932   -1.3596   -2.5672 H       1  LIG1        0.0841
     47 H          -5.9655   -0.4740    2.3136 H       1  LIG1        0.0485
     48 H          -7.4993    0.0032    1.5845 H       1  LIG1        0.0485
     49 H          -6.4467   -2.8358   -0.6239 H       1  LIG1        0.0485
     50 H          -5.9851   -3.8385    0.7619 H       1  LIG1        0.0485
     51 H          -6.5138   -0.0819   -0.6805 H       1  LIG1        0.0486
     52 H          -5.5877    1.0050    0.3686 H       1  LIG1        0.0486
     53 H          -4.1647   -2.2724    1.3493 H       1  LIG1        0.0486
     54 H          -3.9942   -2.8322   -0.3149 H       1  LIG1        0.0486
     55 H         -11.6523   -0.5485    2.9414 H       1  LIG1        0.0280
     56 H         -11.8840   -2.0098    3.9325 H       1  LIG1        0.0280
     57 H         -10.5267   -0.9356    4.2662 H       1  LIG1        0.0280
     58 H         -21.0276   -8.3197   -0.6373 H       1  LIG1        0.0535
     59 H         -20.8114   -6.8928    0.4234 H       1  LIG1        0.0535
     60 H         -20.4437   -8.5273    1.0346 H       1  LIG1        0.0535
     61 H         -16.1277   -6.8903   -2.9856 H       1  LIG1        0.0535
     62 H         -15.8727   -5.5954   -1.7746 H       1  LIG1        0.0535
     63 H         -17.5245   -6.1371   -2.1728 H       1  LIG1        0.0535
     64 H         -14.4474   -4.7000    2.0643 H       1  LIG1        0.1560
@<TRIPOS>BOND
     1     1     2   ar
     2     1     5   ar
     3     2    12   ar
     4     3     4   ar
     5     3    14   ar
     6     4    15   ar
     7     5    16   ar
     8     6     9   ar
     9     6    10   ar
    10     7    11   ar
    11     7    15   ar
    12     8    13   ar
    13     8    18   ar
    14     9    28   ar
    15    10    29   ar
    16    11    13   ar
    17    11    14   ar
    18    12    17   ar
    19    12    20    1
    20    13    25    1
    21    14    30   ar
    22    15    33    1
    23    16    17   ar
    24    16    35    1
    25    17    36    1
    26    18    30   ar
    27    18    31    1
    28    19    28   ar
    29    19    29   ar
    30    19    32    1
    31    20    33   am
    32    20    34    2
    33    21    23    1
    34    21    31    1
    35    22    24    1
    36    22    31    1
    37    23    32    1
    38    24    32    1
    39    26    35    1
    40    27    36    1
    41     1    37    1
    42     2    38    1
    43     3    39    1
    44     4    40    1
    45     5    41    1
    46     6    42    1
    47     7    43    1
    48     8    44    1
    49     9    45    1
    50    10    46    1
    51    21    47    1
    52    21    48    1
    53    22    49    1
    54    22    50    1
    55    23    51    1
    56    23    52    1
    57    24    53    1
    58    24    54    1
    59    25    55    1
    60    25    56    1
    61    25    57    1
    62    26    58    1
    63    26    59    1
    64    26    60    1
    65    27    61    1
    66    27    62    1
    67    27    63    1
    68    33    64    1
