@<TRIPOS>MOLECULE
ChEBML1316447
 36 37 0 0 0
SMALL
USER_CHARGES

@<TRIPOS>ATOM
      1 C          -8.4751   -3.3767    0.9794 C.ar    1  LIG1       -0.0485
      2 C          -9.7983   -1.8169    2.2650 C.ar    1  LIG1       -0.0485
      3 C          -9.5840   -4.2132    0.8529 C.ar    1  LIG1       -0.0311
      4 C         -10.9074   -2.6534    2.1384 C.ar    1  LIG1       -0.0311
      5 C          -2.4405    1.0509   -3.2607 C.ar    1  LIG1       -0.0407
      6 C          -2.5324   -0.9108   -1.8723 C.ar    1  LIG1       -0.0186
      7 C          -3.6397    1.4454   -2.6896 C.ar    1  LIG1        0.0293
      8 C          -8.5822   -2.1786    1.6855 C.ar    1  LIG1        0.0221
      9 C          -1.8830   -0.1509   -2.8388 C.ar    1  LIG1       -0.0461
     10 C         -10.8002   -3.8515    1.4324 C.ar    1  LIG1        0.0746
     11 C          -3.7274   -0.4285   -1.3632 C.ar    1  LIG1        0.1213
     12 C          -6.1316   -1.7233    1.1821 C.2     1  LIG1       -0.0001
     13 C          -5.5400   -0.9577    0.2579 C.2     1  LIG1       -0.0019
     14 C          -7.4262   -1.3062    1.8174 C.2     1  LIG1        0.1866
     15 C          -0.5933   -0.6216   -3.4197 C.3     1  LIG1       -0.0396
     16 C         -11.7031   -5.8776    0.5746 C.3     1  LIG1        0.0422
     17 N          -4.2999    0.7342   -1.7483 N.ar    1  LIG1       -0.2413
     18 N          -4.3721   -1.2074   -0.3897 N.pl3   1  LIG1       -0.3059
     19 O          -7.4958   -0.2493    2.4633 O.2     1  LIG1       -0.2891
     20 O         -11.8824   -4.6676    1.3092 O.3     1  LIG1       -0.3493
     21 H          -7.5326   -3.6689    0.5233 H       1  LIG1        0.0631
     22 H          -9.8923   -0.8852    2.8171 H       1  LIG1        0.0631
     23 H          -9.4942   -5.1454    0.3018 H       1  LIG1        0.0650
     24 H         -11.8521   -2.3665    2.5924 H       1  LIG1        0.0650
     25 H          -1.9586    1.6661   -4.0128 H       1  LIG1        0.0642
     26 H          -2.1118   -1.8523   -1.5321 H       1  LIG1        0.0662
     27 H          -4.1160    2.3743   -2.9849 H       1  LIG1        0.0840
     28 H          -5.6758   -2.6552    1.4970 H       1  LIG1        0.0677
     29 H          -5.9746   -0.0193   -0.0692 H       1  LIG1        0.0791
     30 H           0.2519   -0.2447   -2.8305 H       1  LIG1        0.0280
     31 H          -0.5412   -1.7181   -3.4398 H       1  LIG1        0.0280
     32 H          -0.4742   -0.2795   -4.4563 H       1  LIG1        0.0280
     33 H         -12.6432   -6.4344    0.5530 H       1  LIG1        0.0535
     34 H         -10.9218   -6.4790    1.0462 H       1  LIG1        0.0535
     35 H         -11.4042   -5.6320   -0.4472 H       1  LIG1        0.0535
     36 H          -3.9135   -2.0711   -0.1288 H       1  LIG1        0.1537
@<TRIPOS>BOND
     1     1     3   ar
     2     1     8   ar
     3     2     4   ar
     4     2     8   ar
     5     3    10   ar
     6     4    10   ar
     7     5     7   ar
     8     5     9   ar
     9     6     9   ar
    10     6    11   ar
    11     7    17   ar
    12     8    14    1
    13     9    15    1
    14    10    20    1
    15    11    17   ar
    16    11    18    1
    17    12    13    2
    18    12    14    1
    19    13    18    1
    20    14    19    2
    21    16    20    1
    22     1    21    1
    23     2    22    1
    24     3    23    1
    25     4    24    1
    26     5    25    1
    27     6    26    1
    28     7    27    1
    29    12    28    1
    30    13    29    1
    31    15    30    1
    32    15    31    1
    33    15    32    1
    34    16    33    1
    35    16    34    1
    36    16    35    1
    37    18    36    1
