@<TRIPOS>MOLECULE
ChEBML53917
 54 57 0 0 0
SMALL
USER_CHARGES

@<TRIPOS>ATOM
      1 C          -2.3188    1.0080   -3.4965 C.ar    1  LIG1       -0.0418
      2 C         -12.0555   -3.6015    1.8544 C.ar    1  LIG1       -0.0523
      3 C         -12.4733   -4.7973    1.3588 C.ar    1  LIG1       -0.0510
      4 C          -1.6974   -0.1097   -2.9561 C.ar    1  LIG1       -0.0360
      5 C         -10.0034   -2.0432    2.0762 C.ar    1  LIG1       -0.0262
      6 C         -10.2493   -5.2522    0.4997 C.ar    1  LIG1       -0.0296
      7 C          -3.5499    1.3994   -3.0109 C.ar    1  LIG1        0.0292
      8 C         -10.7220   -3.1979    1.6858 C.ar    1  LIG1       -0.0021
      9 C         -11.5774   -5.6372    0.6763 C.ar    1  LIG1        0.0161
     10 C          -9.8147   -4.0329    1.0020 C.ar    1  LIG1        0.0385
     11 C          -2.3436   -0.7983   -1.9379 C.ar    1  LIG1        0.0672
     12 C          -8.7230   -2.1856    1.6428 C.ar    1  LIG1        0.0947
     13 C          -3.5913   -0.3461   -1.5010 C.ar    1  LIG1        0.1412
     14 C         -12.0424   -6.9277    0.1466 C.2     1  LIG1        0.1496
     15 C          -7.6416   -1.2055    1.8406 C.2     1  LIG1        0.2599
     16 C          -4.5208   -0.0490    0.5763 C.3     1  LIG1        0.0288
     17 C          -5.5526   -1.4423   -1.0325 C.3     1  LIG1        0.0288
     18 C          -5.2330   -0.7383    1.7447 C.3     1  LIG1        0.0303
     19 C          -6.3327   -2.2235    0.0296 C.3     1  LIG1        0.0303
     20 C           0.2385   -3.2165   -0.7711 C.3     1  LIG1       -0.0470
     21 C          -0.7339   -3.3542   -3.0683 C.3     1  LIG1       -0.0470
     22 C          -0.4788   -2.4341   -1.8729 C.3     1  LIG1        0.0142
     23 N          -4.1436    0.7272   -2.0417 N.ar    1  LIG1       -0.2394
     24 N          -8.5984   -3.3894    0.9839 N.ar    1  LIG1       -0.3101
     25 N          -4.2561   -1.0277   -0.4844 N.pl3   1  LIG1       -0.3112
     26 N          -6.4528   -1.3815    1.2307 N.am    1  LIG1       -0.2936
     27 N          -1.7566   -1.9314   -1.3622 N.pl3   1  LIG1       -0.3393
     28 O         -13.1972   -7.2651    0.2992 O.2     1  LIG1       -0.2978
     29 O          -7.8214   -0.2373    2.5543 O.2     1  LIG1       -0.2701
     30 H          -1.8431    1.5662   -4.2893 H       1  LIG1        0.0639
     31 H         -12.7505   -2.9621    2.3784 H       1  LIG1        0.0630
     32 H         -13.5005   -5.1033    1.4912 H       1  LIG1        0.0630
     33 H          -0.7338   -0.4359   -3.3188 H       1  LIG1        0.0644
     34 H         -10.4012   -1.1997    2.6209 H       1  LIG1        0.0651
     35 H          -9.5618   -5.8992   -0.0249 H       1  LIG1        0.0650
     36 H          -4.0349    2.2688   -3.4296 H       1  LIG1        0.0840
     37 H         -11.3555   -7.5750   -0.3784 H       1  LIG1        0.1099
     38 H          -3.5781    0.3734    0.9240 H       1  LIG1        0.0485
     39 H          -5.1531    0.7482    0.1852 H       1  LIG1        0.0485
     40 H          -6.1218   -0.5601   -1.3254 H       1  LIG1        0.0485
     41 H          -5.3920   -2.0764   -1.9045 H       1  LIG1        0.0485
     42 H          -4.5771   -1.4912    2.1815 H       1  LIG1        0.0486
     43 H          -5.4984    0.0011    2.5004 H       1  LIG1        0.0486
     44 H          -5.7987   -3.1412    0.2765 H       1  LIG1        0.0486
     45 H          -7.3256   -2.4666   -0.3489 H       1  LIG1        0.0486
     46 H           1.1892   -3.5906   -1.1510 H       1  LIG1        0.0249
     47 H           0.4202   -2.5610    0.0807 H       1  LIG1        0.0249
     48 H          -0.3829   -4.0554   -0.4577 H       1  LIG1        0.0249
     49 H           0.2168   -3.7282   -3.4483 H       1  LIG1        0.0249
     50 H          -1.3552   -4.1932   -2.7551 H       1  LIG1        0.0249
     51 H          -1.2450   -2.7968   -3.8534 H       1  LIG1        0.0249
     52 H           0.1425   -1.5951   -2.1861 H       1  LIG1        0.0497
     53 H          -7.7861   -3.7287    0.5764 H       1  LIG1        0.1529
     54 H          -2.1960   -2.3837   -0.6250 H       1  LIG1        0.1469
@<TRIPOS>BOND
     1     1     4   ar
     2     1     7   ar
     3     2     3   ar
     4     2     8   ar
     5     3     9   ar
     6     4    11   ar
     7     5     8   ar
     8     5    12   ar
     9     6     9   ar
    10     6    10   ar
    11     7    23   ar
    12     8    10   ar
    13     9    14    1
    14    10    24   ar
    15    11    13   ar
    16    11    27    1
    17    12    15    1
    18    12    24   ar
    19    13    23   ar
    20    13    25    1
    21    14    28    2
    22    15    26   am
    23    15    29    2
    24    16    18    1
    25    16    25    1
    26    17    19    1
    27    17    25    1
    28    18    26    1
    29    19    26    1
    30    20    22    1
    31    21    22    1
    32    22    27    1
    33     1    30    1
    34     2    31    1
    35     3    32    1
    36     4    33    1
    37     5    34    1
    38     6    35    1
    39     7    36    1
    40    14    37    1
    41    16    38    1
    42    16    39    1
    43    17    40    1
    44    17    41    1
    45    18    42    1
    46    18    43    1
    47    19    44    1
    48    19    45    1
    49    20    46    1
    50    20    47    1
    51    20    48    1
    52    21    49    1
    53    21    50    1
    54    21    51    1
    55    22    52    1
    56    24    53    1
    57    27    54    1
