@<TRIPOS>MOLECULE
ChEBML783238
 36 39 0 0 0
SMALL
USER_CHARGES

@<TRIPOS>ATOM
      1 C         -12.0093   -5.4623    1.7101 C.ar    1  LIG1       -0.0619
      2 C         -11.0498   -5.8377    0.7733 C.ar    1  LIG1       -0.0619
      3 C          -2.2901   -0.0385   -3.0591 C.ar    1  LIG1       -0.0360
      4 C         -11.9603   -4.1946    2.2890 C.ar    1  LIG1       -0.0586
      5 C         -10.0358   -4.9482    0.4186 C.ar    1  LIG1       -0.0572
      6 C          -3.0297   -0.9767   -2.2998 C.ar    1  LIG1       -0.0265
      7 C          -5.8538   -0.0308    0.0291 C.ar    1  LIG1        0.0073
      8 C          -2.8166    1.1961   -2.7583 C.ar    1  LIG1        0.0461
      9 C         -10.9537   -3.2885    1.9290 C.ar    1  LIG1       -0.0416
     10 C          -9.9722   -3.6725    0.9975 C.ar    1  LIG1       -0.0273
     11 C          -3.9551   -0.2483   -1.5891 C.ar    1  LIG1        0.1144
     12 C          -4.9275   -0.7444   -0.6843 C.ar    1  LIG1        0.1407
     13 C          -6.5481   -1.0148    0.7538 C.ar    1  LIG1        0.1563
     14 C          -7.6387   -0.8258    1.6752 C.2     1  LIG1        0.2669
     15 C         -10.8972   -1.9318    2.5814 C.3     1  LIG1       -0.0116
     16 C          -8.8591   -2.7364    0.5902 C.3     1  LIG1        0.0398
     17 C         -10.1410   -0.9323    1.7148 C.3     1  LIG1        0.0189
     18 N          -6.0876   -2.2448    0.5087 N.ar    1  LIG1       -0.1232
     19 N          -8.8353   -1.4715    1.3407 N.am    1  LIG1       -0.2917
     20 O          -7.4747   -0.1263    2.6709 O.2     1  LIG1       -0.2697
     21 O          -3.8318    1.0770   -1.8629 O.2     1  LIG1       -0.3152
     22 O          -5.0570   -2.0669   -0.4066 O.2     1  LIG1       -0.2103
     23 H         -12.7960   -6.1567    1.9902 H       1  LIG1        0.0623
     24 H         -11.0890   -6.8243    0.3209 H       1  LIG1        0.0623
     25 H          -1.4756   -0.2379   -3.7402 H       1  LIG1        0.0645
     26 H         -12.7135   -3.9159    3.0216 H       1  LIG1        0.0625
     27 H          -9.2912   -5.2558   -0.3115 H       1  LIG1        0.0626
     28 H          -2.8975   -2.0497   -2.2798 H       1  LIG1        0.0652
     29 H          -6.0070    1.0392    0.0278 H       1  LIG1        0.0678
     30 H          -2.5930    2.2031   -3.0790 H       1  LIG1        0.0901
     31 H         -11.9103   -1.5534    2.7603 H       1  LIG1        0.0332
     32 H         -10.3980   -2.0385    3.5522 H       1  LIG1        0.0332
     33 H          -7.9019   -3.2544    0.7073 H       1  LIG1        0.0520
     34 H          -8.9817   -2.4707   -0.4668 H       1  LIG1        0.0520
     35 H         -10.6865   -0.7259    0.7855 H       1  LIG1        0.0473
     36 H         -10.0353    0.0171    2.2494 H       1  LIG1        0.0473
@<TRIPOS>BOND
     1     1     2   ar
     2     1     4   ar
     3     2     5   ar
     4     3     6   ar
     5     3     8   ar
     6     4     9   ar
     7     5    10   ar
     8     6    11   ar
     9     7    12   ar
    10     7    13   ar
    11     8    21   ar
    12     9    10   ar
    13     9    15    1
    14    10    16    1
    15    11    12    1
    16    11    21   ar
    17    12    22   ar
    18    13    14    1
    19    13    18   ar
    20    14    19   am
    21    14    20    2
    22    15    17    1
    23    16    19    1
    24    17    19    1
    25    18    22   ar
    26     1    23    1
    27     2    24    1
    28     3    25    1
    29     4    26    1
    30     5    27    1
    31     6    28    1
    32     7    29    1
    33     8    30    1
    34    15    31    1
    35    15    32    1
    36    16    33    1
    37    16    34    1
    38    17    35    1
    39    17    36    1
