@<TRIPOS>MOLECULE
ChEBML765723
 38 40 0 0 0
SMALL
USER_CHARGES

@<TRIPOS>ATOM
      1 C          -1.5687   -0.0374   -2.5333 C.ar    1  LIG1       -0.0587
      2 C          -2.4148    0.5246   -3.4828 C.ar    1  LIG1       -0.0438
      3 C          -9.6571   -4.3612    0.8964 C.ar    1  LIG1       -0.0496
      4 C         -11.2792   -2.8882    1.9146 C.ar    1  LIG1       -0.0496
      5 C         -10.6706   -5.2728    0.6008 C.ar    1  LIG1       -0.0428
      6 C         -12.2926   -3.7999    1.6189 C.ar    1  LIG1       -0.0428
      7 C          -2.0200   -0.2235   -1.2313 C.ar    1  LIG1       -0.0352
      8 C          -3.6927    0.8806   -3.0830 C.ar    1  LIG1        0.0274
      9 C          -9.9614   -3.1689    1.5533 C.ar    1  LIG1        0.0217
     10 C         -11.9883   -4.9922    0.9621 C.ar    1  LIG1        0.0406
     11 C          -3.3155    0.1663   -0.9323 C.ar    1  LIG1        0.0840
     12 C          -8.9192   -2.2310    1.8571 C.ar    1  LIG1        0.1892
     13 C          -7.0317   -1.3919    1.9707 C.ar    1  LIG1        0.2196
     14 C          -4.7764   -2.2646   -0.0706 C.3     1  LIG1       -0.0446
     15 C          -3.8358   -0.0195    0.4626 C.3     1  LIG1        0.0095
     16 C          -5.5819   -1.0082    1.9253 C.3     1  LIG1        0.0348
     17 N          -4.1666    0.7154   -1.8277 N.ar    1  LIG1       -0.2557
     18 N          -7.6191   -2.4710    1.5190 N.ar    1  LIG1       -0.1987
     19 N          -9.1524   -1.0742    2.4841 N.ar    1  LIG1       -0.1061
     20 N          -5.0420   -0.9124    0.5269 N.4     1  LIG1        0.2543
     21 O          -7.8749   -0.5052    2.5617 O.2     1  LIG1       -0.1903
     22 CL        -13.2393   -6.1169    0.5990 Cl      1  LIG1       -0.0843
     23 H          -0.5596   -0.3298   -2.8075 H       1  LIG1        0.0624
     24 H          -2.0844    0.6789   -4.5035 H       1  LIG1        0.0639
     25 H          -8.6351   -4.5955    0.6075 H       1  LIG1        0.0631
     26 H         -11.5321   -1.9631    2.4272 H       1  LIG1        0.0631
     27 H         -10.4191   -6.1979    0.0885 H       1  LIG1        0.0638
     28 H         -13.3145   -3.5684    1.9078 H       1  LIG1        0.0638
     29 H          -1.3699   -0.6608   -0.4812 H       1  LIG1        0.0644
     30 H          -4.3914    1.3228   -3.7856 H       1  LIG1        0.0839
     31 H          -4.0017   -2.7477    0.5277 H       1  LIG1        0.0777
     32 H          -5.7081   -2.8327   -0.0392 H       1  LIG1        0.0777
     33 H          -4.4420   -2.1156   -1.0991 H       1  LIG1        0.0777
     34 H          -3.0767   -0.4693    1.1117 H       1  LIG1        0.0885
     35 H          -4.1292    0.9380    0.9062 H       1  LIG1        0.0885
     36 H          -5.4158   -0.0325    2.3943 H       1  LIG1        0.0908
     37 H          -4.9621   -1.7418    2.4522 H       1  LIG1        0.0908
     38 H          -5.7729   -0.4711   -0.0474 H       1  LIG1        0.2010
@<TRIPOS>BOND
     1     1     2   ar
     2     1     7   ar
     3     2     8   ar
     4     3     5   ar
     5     3     9   ar
     6     4     6   ar
     7     4     9   ar
     8     5    10   ar
     9     6    10   ar
    10     7    11   ar
    11     8    17   ar
    12     9    12    1
    13    10    22    1
    14    11    15    1
    15    11    17   ar
    16    12    18   ar
    17    12    19   ar
    18    13    16    1
    19    13    18   ar
    20    13    21   ar
    21    14    20    1
    22    15    20    1
    23    16    20    1
    24    19    21   ar
    25     1    23    1
    26     2    24    1
    27     3    25    1
    28     4    26    1
    29     5    27    1
    30     6    28    1
    31     7    29    1
    32     8    30    1
    33    14    31    1
    34    14    32    1
    35    14    33    1
    36    15    34    1
    37    15    35    1
    38    16    36    1
    39    16    37    1
    40    20    38    1
