@<TRIPOS>MOLECULE
ChEBML1941
 36 39 0 0 0
SMALL
USER_CHARGES

@<TRIPOS>ATOM
      1 C         -12.4127   -4.7889    1.2896 C.ar    1  LIG1       -0.0615
      2 C         -11.4605   -5.6367    0.7271 C.ar    1  LIG1       -0.0603
      3 C         -12.0602   -3.5081    1.7306 C.ar    1  LIG1       -0.0530
      4 C          -3.5029   -2.0405   -1.0827 C.ar    1  LIG1       -0.0504
      5 C         -10.1294   -5.2337    0.5874 C.ar    1  LIG1       -0.0402
      6 C          -2.8029   -1.2393   -1.9921 C.ar    1  LIG1       -0.0311
      7 C         -10.0305   -1.8819    1.9296 C.ar    1  LIG1       -0.0276
      8 C          -5.5538   -2.0213    0.5291 C.ar    1  LIG1       -0.0276
      9 C          -4.3265    0.6152   -1.6129 C.ar    1  LIG1       -0.0098
     10 C         -10.7241   -3.0799    1.6001 C.ar    1  LIG1       -0.0022
     11 C          -4.6316   -1.5104   -0.4267 C.ar    1  LIG1       -0.0021
     12 C          -9.7915   -3.9507    1.0326 C.ar    1  LIG1        0.0378
     13 C          -5.0166   -0.1974   -0.7063 C.ar    1  LIG1        0.0404
     14 C          -3.2101    0.0677   -2.2515 C.ar    1  LIG1        0.0765
     15 C          -8.7145   -2.0457    1.5629 C.ar    1  LIG1        0.0811
     16 C          -6.4636   -1.0270    0.8063 C.ar    1  LIG1        0.0811
     17 C          -7.5753   -1.0675    1.7027 C.2     1  LIG1        0.2206
     18 C          -2.9750    2.1557   -3.3657 C.3     1  LIG1        0.0422
     19 N          -8.5802   -3.2964    1.0227 N.ar    1  LIG1       -0.3112
     20 N          -6.1315    0.0691    0.0562 N.ar    1  LIG1       -0.3111
     21 O          -7.6607   -0.2749    2.6696 O.2     1  LIG1       -0.2856
     22 O          -2.5100    0.8267   -3.1423 O.3     1  LIG1       -0.3492
     23 H         -13.4418   -5.1245    1.3871 H       1  LIG1        0.0623
     24 H         -11.7562   -6.6272    0.3917 H       1  LIG1        0.0623
     25 H         -12.8127   -2.8572    2.1669 H       1  LIG1        0.0629
     26 H          -3.1756   -3.0584   -0.8911 H       1  LIG1        0.0630
     27 H          -9.3882   -5.8940    0.1498 H       1  LIG1        0.0642
     28 H          -1.9320   -1.6500   -2.4972 H       1  LIG1        0.0650
     29 H         -10.4533   -0.9968    2.3862 H       1  LIG1        0.0651
     30 H          -5.5488   -3.0117    0.9648 H       1  LIG1        0.0651
     31 H          -4.6469    1.6328   -1.8120 H       1  LIG1        0.0670
     32 H          -2.3297    2.6504   -4.0957 H       1  LIG1        0.0535
     33 H          -2.9676    2.7086   -2.4231 H       1  LIG1        0.0535
     34 H          -3.9955    2.1146   -3.7537 H       1  LIG1        0.0535
     35 H          -7.7179   -3.6868    0.6678 H       1  LIG1        0.1529
     36 H          -6.6292    0.9488    0.0606 H       1  LIG1        0.1529
@<TRIPOS>BOND
     1     1     2   ar
     2     1     3   ar
     3     2     5   ar
     4     3    10   ar
     5     4     6   ar
     6     4    11   ar
     7     5    12   ar
     8     6    14   ar
     9     7    10   ar
    10     7    15   ar
    11     8    11   ar
    12     8    16   ar
    13     9    13   ar
    14     9    14   ar
    15    10    12   ar
    16    11    13   ar
    17    12    19   ar
    18    13    20   ar
    19    14    22    1
    20    15    17    1
    21    15    19   ar
    22    16    17    1
    23    16    20   ar
    24    17    21    2
    25    18    22    1
    26     1    23    1
    27     2    24    1
    28     3    25    1
    29     4    26    1
    30     5    27    1
    31     6    28    1
    32     7    29    1
    33     8    30    1
    34     9    31    1
    35    18    32    1
    36    18    33    1
    37    18    34    1
    38    19    35    1
    39    20    36    1
