@<TRIPOS>MOLECULE
ChEBML138659
 47 49 0 0 0
SMALL
USER_CHARGES

@<TRIPOS>ATOM
      1 C          -3.8437   -0.2204   -0.7246 C.3     1  LIG1        0.0053
      2 C          -4.7252   -2.2141   -1.7501 C.3     1  LIG1        0.0053
      3 C         -10.5149   -5.1894    0.2665 C.ar    1  LIG1       -0.0207
      4 C          -8.7849   -3.3572    0.8659 C.ar    1  LIG1       -0.0361
      5 C         -12.2346   -3.8464    2.0286 C.ar    1  LIG1       -0.0145
      6 C          -2.6335   -0.4673   -1.3569 C.3     1  LIG1        0.1687
      7 C          -3.4926   -2.4105   -2.3564 C.3     1  LIG1        0.1687
      8 C         -10.0533   -4.0262    0.9289 C.ar    1  LIG1       -0.0076
      9 C          -4.8982   -1.1059   -0.9263 C.3     1  LIG1       -0.0357
     10 C         -11.8110   -5.6621    0.4881 C.ar    1  LIG1        0.1054
     11 C         -12.6602   -4.9960    1.3603 C.ar    1  LIG1        0.1059
     12 C         -10.9273   -3.3725    1.8030 C.ar    1  LIG1        0.0224
     13 C          -8.7269   -2.2437    1.6699 C.ar    1  LIG1        0.0559
     14 C          -7.6409   -1.3390    1.8648 C.2     1  LIG1        0.1694
     15 C          -0.4268   -2.8714   -2.0971 C.3     1  LIG1       -0.0051
     16 C         -12.0020   -8.0326    0.4878 C.3     1  LIG1        0.0424
     17 C         -14.9499   -4.9597    0.7186 C.3     1  LIG1        0.0424
     18 C          -6.2246   -0.8661   -0.2525 C.3     1  LIG1       -0.0201
     19 C          -6.2924   -1.5408    1.1195 C.3     1  LIG1        0.0154
     20 C          -1.2085   -1.7751   -2.7956 C.3     1  LIG1        0.1453
     21 N          -2.4942   -1.5420   -2.1450 N.3     1  LIG1       -0.2053
     22 O          -7.7309   -0.3483    2.6421 O.2     1  LIG1       -0.2935
     23 O         -12.2287   -6.7844   -0.1631 O.3     1  LIG1       -0.3465
     24 O         -13.9254   -5.4570    1.5761 O.3     1  LIG1       -0.3465
     25 S         -10.1873   -1.9847    2.5098 S.2     1  LIG1       -0.0856
     26 H          -3.9560    0.6492   -0.0848 H       1  LIG1        0.0688
     27 H          -5.5337   -2.9179   -1.9213 H       1  LIG1        0.0688
     28 H          -9.8558   -5.7176   -0.4193 H       1  LIG1        0.0658
     29 H          -7.9565   -3.6896    0.2518 H       1  LIG1        0.0642
     30 H         -12.9016   -3.3276    2.7120 H       1  LIG1        0.0663
     31 H          -1.7709    0.1783   -1.2457 H       1  LIG1        0.1394
     32 H          -3.2866   -3.2496   -3.0094 H       1  LIG1        0.1394
     33 H          -0.2441   -2.6133   -1.0490 H       1  LIG1        0.0295
     34 H           0.5390   -3.0259   -2.5876 H       1  LIG1        0.0295
     35 H          -0.9787   -3.8166   -2.1153 H       1  LIG1        0.0295
     36 H         -12.3815   -8.8446   -0.1373 H       1  LIG1        0.0535
     37 H         -12.5084   -8.0368    1.4563 H       1  LIG1        0.0535
     38 H         -10.9281   -8.1643    0.6398 H       1  LIG1        0.0535
     39 H         -15.9077   -5.4057    0.9972 H       1  LIG1        0.0535
     40 H         -14.7092   -5.2058   -0.3188 H       1  LIG1        0.0535
     41 H         -15.0101   -3.8744    0.8289 H       1  LIG1        0.0535
     42 H          -7.0340   -1.2329   -0.8970 H       1  LIG1        0.0320
     43 H          -6.3942    0.2141   -0.1542 H       1  LIG1        0.0320
     44 H          -5.5000   -1.1384    1.7617 H       1  LIG1        0.0354
     45 H          -6.1421   -2.6203    1.0013 H       1  LIG1        0.0354
     46 H          -1.3855   -2.0438   -3.8430 H       1  LIG1        0.1039
     47 H          -0.6367   -0.8405   -2.7941 H       1  LIG1        0.1039
@<TRIPOS>BOND
     1     1     6    1
     2     1     9    1
     3     2     7    1
     4     2     9    1
     5     3     8   ar
     6     3    10   ar
     7     4     8   ar
     8     4    13   ar
     9     5    11   ar
    10     5    12   ar
    11     6    21    1
    12     7    21    1
    13     8    12   ar
    14     9    18    1
    15    10    11   ar
    16    10    23    1
    17    11    24    1
    18    12    25   ar
    19    13    14    1
    20    13    25   ar
    21    14    19    1
    22    14    22    2
    23    15    20    1
    24    16    23    1
    25    17    24    1
    26    18    19    1
    27    20    21    1
    28     1    26    1
    29     2    27    1
    30     3    28    1
    31     4    29    1
    32     5    30    1
    33     6    31    1
    34     7    32    1
    35    15    33    1
    36    15    34    1
    37    15    35    1
    38    16    36    1
    39    16    37    1
    40    16    38    1
    41    17    39    1
    42    17    40    1
    43    17    41    1
    44    18    42    1
    45    18    43    1
    46    19    44    1
    47    19    45    1
    48    20    46    1
    49    20    47    1
