@<TRIPOS>MOLECULE
ChEBML1147824
 52 57 0 0 0
SMALL
USER_CHARGES

@<TRIPOS>ATOM
      1 C         -12.1885   -5.1085    1.3402 C.ar    1  LIG1       -0.0615
      2 C         -11.3669   -5.5670    0.3071 C.ar    1  LIG1       -0.0596
      3 C         -11.8203   -4.0042    2.1209 C.ar    1  LIG1       -0.0522
      4 C         -10.1508   -4.9418    0.0161 C.ar    1  LIG1       -0.0306
      5 C          -5.5244    0.4395    1.7538 C.ar    1  LIG1       -0.0160
      6 C          -9.8937   -2.2522    2.3821 C.ar    1  LIG1       -0.0174
      7 C          -3.7752   -1.9341   -0.3306 C.ar    1  LIG1       -0.0244
      8 C          -6.5852    0.5503    2.6295 C.ar    1  LIG1        0.0316
      9 C         -10.6014   -3.3600    1.8455 C.ar    1  LIG1        0.0080
     10 C          -2.9084   -1.6416   -1.4115 C.ar    1  LIG1        0.0567
     11 C          -9.8117   -3.8468    0.8089 C.ar    1  LIG1        0.0895
     12 C          -5.6097   -0.5911    0.8401 C.ar    1  LIG1        0.0885
     13 C          -4.5676   -0.8240   -0.1308 C.ar    1  LIG1        0.0571
     14 C          -8.7363   -2.1387    1.6474 C.ar    1  LIG1        0.1273
     15 C          -3.1980   -0.3587   -1.8371 C.ar    1  LIG1        0.0281
     16 C          -7.6180   -1.2404    1.6841 C.ar    1  LIG1        0.1836
     17 C          -1.8561   -2.4299   -2.0207 C.2     1  LIG1        0.2446
     18 C          -3.4464    1.2885   -3.7446 C.3     1  LIG1       -0.0010
     19 C          -1.3473    1.2363   -2.3335 C.3     1  LIG1       -0.0010
     20 C          -1.9091   -0.7299   -3.8830 C.3     1  LIG1        0.0227
     21 C          -2.7234    2.1616   -4.7617 C.3     1  LIG1       -0.0352
     22 C          -0.6578    2.1433   -3.3456 C.3     1  LIG1       -0.0352
     23 C          -2.4842    0.3769   -2.9450 C.3     1  LIG1        0.0346
     24 N          -7.6521   -0.2754    2.6227 N.ar    1  LIG1       -0.2347
     25 N          -6.6457   -1.4531    0.7769 N.ar    1  LIG1       -0.2248
     26 N          -4.2035    0.1312   -1.0462 N.ar    1  LIG1       -0.3153
     27 N          -1.3130   -1.8623   -3.1685 N.am    1  LIG1       -0.3104
     28 N          -1.6798    2.9633   -4.0578 N.4     1  LIG1        0.2386
     29 O          -1.4701   -3.4925   -1.5427 O.2     1  LIG1       -0.2718
     30 O          -8.6770   -3.1015    0.6906 O.2     1  LIG1       -0.3058
     31 H         -13.1280   -5.6163    1.5426 H       1  LIG1        0.0623
     32 H         -11.6792   -6.4257   -0.2819 H       1  LIG1        0.0623
     33 H         -12.4686   -3.6592    2.9203 H       1  LIG1        0.0630
     34 H          -9.5084   -5.2916   -0.7832 H       1  LIG1        0.0650
     35 H          -4.6863    1.1239    1.7949 H       1  LIG1        0.0662
     36 H         -10.1963   -1.6176    3.2036 H       1  LIG1        0.0659
     37 H          -3.8138   -2.8518    0.2410 H       1  LIG1        0.0652
     38 H          -6.6071    1.3299    3.3837 H       1  LIG1        0.0841
     39 H          -3.9935    1.9516   -3.0612 H       1  LIG1        0.0331
     40 H          -4.2090    0.6881   -4.2566 H       1  LIG1        0.0331
     41 H          -0.5936    0.5988   -1.8539 H       1  LIG1        0.0331
     42 H          -1.7593    1.8662   -1.5321 H       1  LIG1        0.0331
     43 H          -2.7124   -1.1627   -4.4932 H       1  LIG1        0.0476
     44 H          -1.1507   -0.3467   -4.5713 H       1  LIG1        0.0476
     45 H          -2.2245    1.5812   -5.5436 H       1  LIG1        0.0814
     46 H          -3.4081    2.8753   -5.2297 H       1  LIG1        0.0814
     47 H           0.0208    2.8442   -2.8499 H       1  LIG1        0.0814
     48 H          -0.0969    1.5872   -4.1023 H       1  LIG1        0.0814
     49 H          -4.6089    1.0547   -1.1158 H       1  LIG1        0.1526
     50 H          -0.4514   -2.2564   -3.5337 H       1  LIG1        0.1497
     51 H          -1.2064    3.5715   -4.7401 H       1  LIG1        0.1982
     52 H          -2.1331    3.6007   -3.3883 H       1  LIG1        0.1982
@<TRIPOS>BOND
     1     1     2   ar
     2     1     3   ar
     3     2     4   ar
     4     3     9   ar
     5     4    11   ar
     6     5     8   ar
     7     5    12   ar
     8     6     9   ar
     9     6    14   ar
    10     7    10   ar
    11     7    13   ar
    12     8    24   ar
    13     9    11   ar
    14    10    15   ar
    15    10    17    1
    16    11    30   ar
    17    12    13    1
    18    12    25   ar
    19    13    26   ar
    20    14    16    1
    21    14    30   ar
    22    15    23    1
    23    15    26   ar
    24    16    24   ar
    25    16    25   ar
    26    17    27   am
    27    17    29    2
    28    18    21    1
    29    18    23    1
    30    19    22    1
    31    19    23    1
    32    20    23    1
    33    20    27    1
    34    21    28    1
    35    22    28    1
    36     1    31    1
    37     2    32    1
    38     3    33    1
    39     4    34    1
    40     5    35    1
    41     6    36    1
    42     7    37    1
    43     8    38    1
    44    18    39    1
    45    18    40    1
    46    19    41    1
    47    19    42    1
    48    20    43    1
    49    20    44    1
    50    21    45    1
    51    21    46    1
    52    22    47    1
    53    22    48    1
    54    26    49    1
    55    27    50    1
    56    28    51    1
    57    28    52    1
