@<TRIPOS>MOLECULE
ChEBML612224
 36 39 0 0 0
SMALL
USER_CHARGES

@<TRIPOS>ATOM
      1 C         -12.7376   -4.0024    1.1327 C.ar    1  LIG1       -0.0600
      2 C         -12.0234   -4.9645    0.4149 C.ar    1  LIG1       -0.0602
      3 C         -12.0813   -2.9357    1.7597 C.ar    1  LIG1       -0.0344
      4 C         -10.6312   -4.8970    0.2971 C.ar    1  LIG1       -0.0385
      5 C          -4.9357   -0.3743    2.5287 C.ar    1  LIG1       -0.0392
      6 C          -5.7047   -0.8277    3.6004 C.ar    1  LIG1       -0.0409
      7 C          -2.4692   -0.3899   -2.7180 C.ar    1  LIG1       -0.0226
      8 C          -1.9621    0.7260   -3.4257 C.ar    1  LIG1       -0.0212
      9 C          -6.5996   -1.2015    0.9847 C.ar    1  LIG1       -0.0284
     10 C          -7.3687   -1.6550    2.0565 C.ar    1  LIG1        0.0354
     11 C         -10.6828   -2.8524    1.6519 C.ar    1  LIG1        0.0866
     12 C          -9.9988   -3.8263    0.9297 C.ar    1  LIG1        0.0576
     13 C          -5.3832   -0.5611    1.2207 C.ar    1  LIG1        0.0337
     14 C          -6.9211   -1.4680    3.3644 C.ar    1  LIG1        0.0514
     15 C          -3.5853    0.0568   -2.0497 C.ar    1  LIG1        0.1456
     16 C          -2.8046    1.7749   -3.1396 C.ar    1  LIG1        0.1249
     17 C          -8.6201   -2.3124    1.7675 C.ar    1  LIG1        0.1313
     18 C          -4.5293   -0.6352   -1.1554 C.2     1  LIG1        0.2710
     19 N          -9.8100   -1.9203    2.1646 N.ar    1  LIG1       -0.2308
     20 N          -8.6816   -3.4557    1.0205 N.ar    1  LIG1       -0.2973
     21 N          -4.6143   -0.1068    0.1486 N.am    1  LIG1       -0.2796
     22 O          -5.1569   -1.6202   -1.5382 O.2     1  LIG1       -0.2691
     23 O          -3.7968    1.3753   -2.3015 O.2     1  LIG1       -0.2975
     24 CL         -7.8327   -2.0091    4.7312 Cl      1  LIG1       -0.0835
     25 BR         -2.6240    3.5376   -3.8127 Br      1  LIG1       -0.0225
     26 H         -13.8189   -4.0815    1.2063 H       1  LIG1        0.0623
     27 H         -12.5589   -5.7826   -0.0608 H       1  LIG1        0.0623
     28 H         -12.6453   -2.1934    2.3156 H       1  LIG1        0.0646
     29 H         -10.0756   -5.6431   -0.2595 H       1  LIG1        0.0643
     30 H          -3.9897    0.1241    2.7246 H       1  LIG1        0.0643
     31 H          -5.3413   -0.6738    4.6134 H       1  LIG1        0.0639
     32 H          -2.0671   -1.3929   -2.7002 H       1  LIG1        0.0653
     33 H          -1.0899    0.7526   -4.0638 H       1  LIG1        0.0657
     34 H          -6.9432   -1.3440   -0.0386 H       1  LIG1        0.0650
     35 H          -7.8984   -3.9455    0.6077 H       1  LIG1        0.1544
     36 H          -4.0352    0.7202    0.3337 H       1  LIG1        0.1560
@<TRIPOS>BOND
     1     1     2   ar
     2     1     3   ar
     3     2     4   ar
     4     3    11   ar
     5     4    12   ar
     6     5     6   ar
     7     5    13   ar
     8     6    14   ar
     9     7     8   ar
    10     7    15   ar
    11     8    16   ar
    12     9    10   ar
    13     9    13   ar
    14    10    14   ar
    15    10    17    1
    16    11    12   ar
    17    11    19   ar
    18    12    20   ar
    19    13    21    1
    20    14    24    1
    21    15    18    1
    22    15    23   ar
    23    16    23   ar
    24    16    25    1
    25    17    19   ar
    26    17    20   ar
    27    18    21   am
    28    18    22    2
    29     1    26    1
    30     2    27    1
    31     3    28    1
    32     4    29    1
    33     5    30    1
    34     6    31    1
    35     7    32    1
    36     8    33    1
    37     9    34    1
    38    20    35    1
    39    21    36    1
