@<TRIPOS>MOLECULE
ChEBML234168
 45 48 0 0 0
SMALL
USER_CHARGES

@<TRIPOS>ATOM
      1 C         -14.1746   -4.6256    0.7002 C.1     1  LIG1        0.0991
      2 C          -3.3455    1.3682   -3.3761 C.ar    1  LIG1       -0.0603
      3 C          -2.0616    0.8613   -3.5761 C.ar    1  LIG1       -0.0606
      4 C         -11.9022   -5.2174    0.0311 C.ar    1  LIG1       -0.0425
      5 C         -10.5192   -5.0166    0.0627 C.ar    1  LIG1       -0.0389
      6 C          -4.1356    0.8763   -2.3370 C.ar    1  LIG1       -0.0394
      7 C          -1.5677   -0.1378   -2.7373 C.ar    1  LIG1       -0.0416
      8 C         -12.2667   -3.3449    1.5337 C.ar    1  LIG1       -0.0352
      9 C         -10.0447   -2.1790    2.2463 C.ar    1  LIG1       -0.0304
     10 C         -12.7642   -4.3956    0.7544 C.ar    1  LIG1        0.0527
     11 C         -10.8760   -3.1232    1.5811 C.ar    1  LIG1       -0.0012
     12 C         -10.0360   -3.9624    0.8460 C.ar    1  LIG1        0.0377
     13 C          -3.6417   -0.1227   -1.4982 C.ar    1  LIG1        0.0479
     14 C          -2.3578   -0.6298   -1.6983 C.ar    1  LIG1        0.0618
     15 C          -8.7405   -2.4584    1.9088 C.ar    1  LIG1        0.0524
     16 C          -5.3024   -1.7295   -0.8392 C.3     1  LIG1        0.0509
     17 C          -5.0814    0.4540    0.3350 C.3     1  LIG1        0.0509
     18 C          -5.9543   -2.3280    0.4000 C.3     1  LIG1       -0.0177
     19 C          -5.7388   -0.1482    1.5704 C.3     1  LIG1       -0.0177
     20 C          -7.4589   -1.7928    2.3157 C.3     1  LIG1        0.0052
     21 N         -15.3190   -4.8122    0.6562 N.1     1  LIG1       -0.1924
     22 N          -8.7454   -3.5355    1.0636 N.ar    1  LIG1       -0.3135
     23 N          -4.4487   -0.5907   -0.4764 N.pl3   1  LIG1       -0.3191
     24 N          -6.6849   -1.2435    1.1503 N.4     1  LIG1        0.2525
     25 CL         -1.7072   -1.8669   -0.6832 Cl      1  LIG1       -0.0823
     26 H          -3.7299    2.1461   -4.0293 H       1  LIG1        0.0623
     27 H          -1.4466    1.2445   -4.3852 H       1  LIG1        0.0623
     28 H         -12.2951   -6.0330   -0.5732 H       1  LIG1        0.0637
     29 H          -9.8490   -5.6569   -0.5009 H       1  LIG1        0.0643
     30 H          -5.1346    1.2795   -2.1913 H       1  LIG1        0.0643
     31 H          -0.5650   -0.5219   -2.9069 H       1  LIG1        0.0639
     32 H         -12.9375   -2.7024    2.0990 H       1  LIG1        0.0643
     33 H         -10.3690   -1.3816    2.9012 H       1  LIG1        0.0648
     34 H          -4.7066   -2.5076   -1.3322 H       1  LIG1        0.0524
     35 H          -6.0737   -1.4039   -1.5495 H       1  LIG1        0.0524
     36 H          -5.8303    0.9881   -0.2645 H       1  LIG1        0.0524
     37 H          -4.3335    1.1882    0.6592 H       1  LIG1        0.0524
     38 H          -6.6871   -3.0922    0.1217 H       1  LIG1        0.0831
     39 H          -5.2128   -2.7603    1.0818 H       1  LIG1        0.0831
     40 H          -5.0004   -0.5915    2.2485 H       1  LIG1        0.0831
     41 H          -6.3218    0.6081    2.1061 H       1  LIG1        0.0831
     42 H          -7.6466   -0.9526    2.9927 H       1  LIG1        0.0882
     43 H          -6.7950   -2.4950    2.8313 H       1  LIG1        0.0882
     44 H          -7.9227   -3.9584    0.6562 H       1  LIG1        0.1527
     45 H          -7.3748   -0.8300    0.5078 H       1  LIG1        0.2009
@<TRIPOS>BOND
     1     1    10    1
     2     1    21    3
     3     2     3   ar
     4     2     6   ar
     5     3     7   ar
     6     4     5   ar
     7     4    10   ar
     8     5    12   ar
     9     6    13   ar
    10     7    14   ar
    11     8    10   ar
    12     8    11   ar
    13     9    11   ar
    14     9    15   ar
    15    11    12   ar
    16    12    22   ar
    17    13    14   ar
    18    13    23    1
    19    14    25    1
    20    15    20    1
    21    15    22   ar
    22    16    18    1
    23    16    23    1
    24    17    19    1
    25    17    23    1
    26    18    24    1
    27    19    24    1
    28    20    24    1
    29     2    26    1
    30     3    27    1
    31     4    28    1
    32     5    29    1
    33     6    30    1
    34     7    31    1
    35     8    32    1
    36     9    33    1
    37    16    34    1
    38    16    35    1
    39    17    36    1
    40    17    37    1
    41    18    38    1
    42    18    39    1
    43    19    40    1
    44    19    41    1
    45    20    42    1
    46    20    43    1
    47    22    44    1
    48    24    45    1
