@<TRIPOS>MOLECULE
ChEBML208481
 47 50 0 0 0
SMALL
USER_CHARGES

@<TRIPOS>ATOM
      1 C          -0.4229    0.9176   -3.0529 C.ar    1  LIG1       -0.0622
      2 C          -0.9096    1.5702   -1.9203 C.ar    1  LIG1       -0.0620
      3 C          -1.3053    0.2713   -3.9186 C.ar    1  LIG1       -0.0620
      4 C          -2.2788    1.5765   -1.6533 C.ar    1  LIG1       -0.0590
      5 C          -2.6744    0.2776   -3.6517 C.ar    1  LIG1       -0.0590
      6 C         -10.3770   -5.1866    0.4715 C.ar    1  LIG1       -0.0376
      7 C         -11.7171   -5.5284    0.6749 C.ar    1  LIG1       -0.0302
      8 C         -12.0986   -3.5032    1.9595 C.ar    1  LIG1       -0.0229
      9 C          -9.9579   -2.0279    2.1721 C.ar    1  LIG1       -0.0261
     10 C         -10.7513   -3.1378    1.7678 C.ar    1  LIG1        0.0004
     11 C          -3.1611    0.9301   -2.5190 C.ar    1  LIG1       -0.0477
     12 C          -9.9232   -3.9862    1.0297 C.ar    1  LIG1        0.0380
     13 C         -12.5664   -4.7010    1.4070 C.ar    1  LIG1        0.0720
     14 C          -8.6872   -2.2205    1.6811 C.ar    1  LIG1        0.0947
     15 C          -7.5392   -1.3743    1.8274 C.2     1  LIG1        0.2598
     16 C          -6.5508   -0.5483   -1.5249 C.3     1  LIG1       -0.0341
     17 C          -4.6957   -0.0184    0.1027 C.3     1  LIG1       -0.0341
     18 C          -6.9927   -1.6875   -0.6082 C.3     1  LIG1        0.0147
     19 C          -5.1751   -1.1748    0.9766 C.3     1  LIG1        0.0147
     20 C          -5.0489   -0.2580   -1.3740 C.3     1  LIG1       -0.0344
     21 C          -4.6375    0.9363   -2.2315 C.3     1  LIG1       -0.0249
     22 N          -8.6762   -3.4043    0.9933 N.ar    1  LIG1       -0.3101
     23 N          -6.6116   -1.4109    0.7778 N.am    1  LIG1       -0.2967
     24 O          -7.4060   -0.6708    2.8271 O.2     1  LIG1       -0.2702
     25 O         -13.8682   -5.0615    1.5882 O.3     1  LIG1       -0.3609
     26 H           0.6430    0.9140   -3.2613 H       1  LIG1        0.0622
     27 H          -0.2229    2.0745   -1.2467 H       1  LIG1        0.0623
     28 H          -0.9268   -0.2359   -4.8011 H       1  LIG1        0.0623
     29 H          -2.6490    2.0873   -0.7684 H       1  LIG1        0.0625
     30 H          -3.3543   -0.2288   -4.3317 H       1  LIG1        0.0625
     31 H          -9.7166   -5.8311   -0.0989 H       1  LIG1        0.0643
     32 H         -12.0950   -6.4561    0.2516 H       1  LIG1        0.0651
     33 H         -12.7675   -2.8632    2.5286 H       1  LIG1        0.0657
     34 H         -10.2859   -1.1808    2.7600 H       1  LIG1        0.0651
     35 H          -6.7825   -0.8049   -2.5652 H       1  LIG1        0.0285
     36 H          -7.1256    0.3541   -1.2792 H       1  LIG1        0.0285
     37 H          -5.1631    0.9131    0.4476 H       1  LIG1        0.0285
     38 H          -3.6120    0.1019    0.2160 H       1  LIG1        0.0285
     39 H          -8.0741   -1.8328   -0.6939 H       1  LIG1        0.0469
     40 H          -6.5103   -2.6273   -0.9015 H       1  LIG1        0.0469
     41 H          -4.6523   -2.1007    0.7083 H       1  LIG1        0.0469
     42 H          -4.9402   -0.9621    2.0224 H       1  LIG1        0.0469
     43 H          -4.4905   -1.1359   -1.7252 H       1  LIG1        0.0307
     44 H          -4.9147    1.8643   -1.7212 H       1  LIG1        0.0319
     45 H          -5.2006    0.9222   -3.1705 H       1  LIG1        0.0319
     46 H          -7.8711   -3.7971    0.5250 H       1  LIG1        0.1529
     47 H         -14.3309   -4.3908    2.1142 H       1  LIG1        0.2182
@<TRIPOS>BOND
     1     1     2   ar
     2     1     3   ar
     3     2     4   ar
     4     3     5   ar
     5     4    11   ar
     6     5    11   ar
     7     6     7   ar
     8     6    12   ar
     9     7    13   ar
    10     8    10   ar
    11     8    13   ar
    12     9    10   ar
    13     9    14   ar
    14    10    12   ar
    15    11    21    1
    16    12    22   ar
    17    13    25    1
    18    14    15    1
    19    14    22   ar
    20    15    23   am
    21    15    24    2
    22    16    18    1
    23    16    20    1
    24    17    19    1
    25    17    20    1
    26    18    23    1
    27    19    23    1
    28    20    21    1
    29     1    26    1
    30     2    27    1
    31     3    28    1
    32     4    29    1
    33     5    30    1
    34     6    31    1
    35     7    32    1
    36     8    33    1
    37     9    34    1
    38    16    35    1
    39    16    36    1
    40    17    37    1
    41    17    38    1
    42    18    39    1
    43    18    40    1
    44    19    41    1
    45    19    42    1
    46    20    43    1
    47    21    44    1
    48    21    45    1
    49    22    46    1
    50    25    47    1
