@<TRIPOS>MOLECULE
ChEBML1282458
 62 65 0 0 0
SMALL
USER_CHARGES

@<TRIPOS>ATOM
      1 C         -10.4069   -5.0800    0.6992 C.ar    1  LIG1       -0.0316
      2 C          -4.1930   -1.1237    1.3086 C.ar    1  LIG1       -0.0391
      3 C          -5.2100   -2.4707   -0.4053 C.ar    1  LIG1       -0.0391
      4 C         -11.7340   -5.4161    0.8484 C.ar    1  LIG1       -0.0373
      5 C          -5.4404   -0.8499    1.8336 C.ar    1  LIG1       -0.0388
      6 C          -6.4569   -2.2016    0.1231 C.ar    1  LIG1       -0.0388
      7 C         -12.1917   -3.2651    1.8340 C.ar    1  LIG1       -0.0063
      8 C          -9.9569   -3.8268    1.1173 C.ar    1  LIG1        0.0984
      9 C          -4.0740   -1.9369    0.1892 C.ar    1  LIG1        0.0288
     10 C          -6.5758   -1.3883    1.2425 C.ar    1  LIG1        0.0332
     11 C         -12.6286   -4.5121    1.4152 C.ar    1  LIG1        0.0457
     12 C         -10.8590   -2.9168    1.6881 C.ar    1  LIG1        0.1130
     13 C          -8.8667   -2.0201    1.6249 C.ar    1  LIG1        0.2413
     14 C          -1.8335   -1.5124    0.5006 C.3     1  LIG1        0.0377
     15 C          -2.7595   -1.5759   -1.6653 C.3     1  LIG1        0.0377
     16 C          -0.4420   -1.6284   -0.1230 C.3     1  LIG1        0.0708
     17 C          -1.3448   -1.6903   -2.2347 C.3     1  LIG1        0.0708
     18 C           0.5842   -0.9607    0.7946 C.3     1  LIG1       -0.0371
     19 C          -0.9408   -3.1644   -2.3014 C.3     1  LIG1       -0.0371
     20 C         -13.4599   -3.8617   -1.3885 C.3     1  LIG1       -0.0430
     21 C         -15.7126   -4.6589   -2.1184 C.3     1  LIG1       -0.0430
     22 C         -15.5174   -2.9778   -0.2805 C.3     1  LIG1       -0.0430
     23 C         -14.8742   -4.2100   -0.9199 C.3     1  LIG1        0.0475
     24 N          -8.7408   -3.2119    1.1010 N.ar    1  LIG1       -0.2077
     25 N          -2.8098   -2.2140   -0.3432 N.pl3   1  LIG1       -0.3256
     26 N          -7.8413   -1.1113    1.7758 N.pl3   1  LIG1       -0.2790
     27 N         -13.9746   -4.8643    1.5628 N.pl3   1  LIG1       -0.2625
     28 O         -13.9165   -6.5875   -0.1201 O.2     1  LIG1       -0.4806
     29 O         -16.0702   -5.8241    0.8615 O.2     1  LIG1       -0.4806
     30 O         -10.1441   -1.8084    1.9895 O.2     1  LIG1       -0.2770
     31 O          -0.4297   -0.9846   -1.3969 O.3     1  LIG1       -0.3722
     32 S         -14.7943   -5.5514    0.2986 S.O2    1  LIG1       -0.1878
     33 H          -9.7161   -5.7844    0.2597 H       1  LIG1        0.0647
     34 H          -3.3099   -0.7056    1.7687 H       1  LIG1        0.0643
     35 H          -5.1178   -3.0995   -1.2784 H       1  LIG1        0.0643
     36 H         -12.0824   -6.3857    0.5247 H       1  LIG1        0.0643
     37 H          -5.5330   -0.2175    2.7041 H       1  LIG1        0.0643
     38 H          -7.3400   -2.6205   -0.3362 H       1  LIG1        0.0643
     39 H         -12.8887   -2.5669    2.2734 H       1  LIG1        0.0671
     40 H          -1.8244   -1.9599    1.4945 H       1  LIG1        0.0495
     41 H          -2.1100   -0.4609    0.5786 H       1  LIG1        0.0495
     42 H          -3.4619   -2.0722   -2.3350 H       1  LIG1        0.0495
     43 H          -3.0292   -0.5240   -1.5713 H       1  LIG1        0.0495
     44 H          -0.1873   -2.6810   -0.2463 H       1  LIG1        0.0617
     45 H          -1.3219   -1.2632   -3.2373 H       1  LIG1        0.0617
     46 H           0.3313    0.0925    0.9169 H       1  LIG1        0.0257
     47 H           0.5754   -1.4518    1.7676 H       1  LIG1        0.0257
     48 H           1.5771   -1.0470    0.3530 H       1  LIG1        0.0257
     49 H          -1.5438   -3.6728   -3.0539 H       1  LIG1        0.0257
     50 H           0.1133   -3.2405   -2.5683 H       1  LIG1        0.0257
     51 H          -1.1041   -3.6303   -1.3297 H       1  LIG1        0.0257
     52 H         -13.0017   -4.7396   -1.8441 H       1  LIG1        0.0252
     53 H         -13.5080   -3.0557   -2.1207 H       1  LIG1        0.0252
     54 H         -12.8626   -3.5419   -0.5347 H       1  LIG1        0.0252
     55 H         -16.7201   -4.9069   -1.7845 H       1  LIG1        0.0252
     56 H         -15.7606   -3.8529   -2.8506 H       1  LIG1        0.0252
     57 H         -15.2543   -5.5368   -2.5739 H       1  LIG1        0.0252
     58 H         -14.8765   -2.6073    0.5196 H       1  LIG1        0.0252
     59 H         -15.6430   -2.2009   -1.0347 H       1  LIG1        0.0252
     60 H         -16.4909   -3.2473    0.1291 H       1  LIG1        0.0252
     61 H          -7.9959   -0.2801    2.2512 H       1  LIG1        0.1563
     62 H         -14.4277   -4.7059    2.4058 H       1  LIG1        0.1702
@<TRIPOS>BOND
     1     1     4   ar
     2     1     8   ar
     3     2     5   ar
     4     2     9   ar
     5     3     6   ar
     6     3     9   ar
     7     4    11   ar
     8     5    10   ar
     9     6    10   ar
    10     7    11   ar
    11     7    12   ar
    12     8    12   ar
    13     8    24   ar
    14     9    25    1
    15    10    26    1
    16    11    27    1
    17    12    30   ar
    18    13    24   ar
    19    13    26    1
    20    13    30   ar
    21    14    16    1
    22    14    25    1
    23    15    17    1
    24    15    25    1
    25    16    18    1
    26    16    31    1
    27    17    19    1
    28    17    31    1
    29    20    23    1
    30    21    23    1
    31    22    23    1
    32    23    32    1
    33    27    32    1
    34    28    32    2
    35    29    32    2
    36     1    33    1
    37     2    34    1
    38     3    35    1
    39     4    36    1
    40     5    37    1
    41     6    38    1
    42     7    39    1
    43    14    40    1
    44    14    41    1
    45    15    42    1
    46    15    43    1
    47    16    44    1
    48    17    45    1
    49    18    46    1
    50    18    47    1
    51    18    48    1
    52    19    49    1
    53    19    50    1
    54    19    51    1
    55    20    52    1
    56    20    53    1
    57    20    54    1
    58    21    55    1
    59    21    56    1
    60    21    57    1
    61    22    58    1
    62    22    59    1
    63    22    60    1
    64    26    61    1
    65    27    62    1
