@<TRIPOS>MOLECULE
ChEBML970817
 41 44 0 0 0
SMALL
USER_CHARGES

@<TRIPOS>ATOM
      1 C         -12.6531   -4.2701    1.9524 C.ar    1  LIG1       -0.0614
      2 C         -11.9953   -5.3102    1.3052 C.ar    1  LIG1       -0.0601
      3 C          -1.9235   -0.3375   -2.9958 C.ar    1  LIG1       -0.0573
      4 C          -2.3411    0.9523   -3.3045 C.ar    1  LIG1       -0.0437
      5 C         -11.9803   -3.0761    2.1922 C.ar    1  LIG1       -0.0493
      6 C         -10.6668   -5.1541    0.8987 C.ar    1  LIG1       -0.0355
      7 C          -2.6528   -1.1004   -2.0906 C.ar    1  LIG1       -0.0217
      8 C          -3.4855    1.4290   -2.6859 C.ar    1  LIG1        0.0290
      9 C         -10.6445   -2.9270    1.7804 C.ar    1  LIG1        0.0403
     10 C          -9.9695   -3.9702    1.1255 C.ar    1  LIG1        0.0776
     11 C          -3.7832   -0.5318   -1.5261 C.ar    1  LIG1        0.1199
     12 C          -9.9152   -1.7599    1.9891 C.ar    1  LIG1        0.1281
     13 C          -8.0948   -2.6577    0.9879 C.ar    1  LIG1        0.2187
     14 C          -5.2244   -0.6301    0.4418 C.3     1  LIG1        0.0288
     15 C          -4.9640   -2.6090   -1.0760 C.3     1  LIG1        0.0288
     16 C          -5.9114   -1.6529    1.3509 C.3     1  LIG1        0.0302
     17 C          -6.4673   -2.7618   -0.8282 C.3     1  LIG1        0.0302
     18 N          -4.2200    0.7176   -1.8015 N.ar    1  LIG1       -0.2414
     19 N          -8.6921   -3.8382    0.7272 N.ar    1  LIG1       -0.2147
     20 N          -8.6359   -1.5943    1.6038 N.ar    1  LIG1       -0.1995
     21 N          -4.4921   -1.2965   -0.6350 N.pl3   1  LIG1       -0.3127
     22 N          -6.7913   -2.5304    0.5794 N.pl3   1  LIG1       -0.2969
     23 N         -10.5304   -0.6639    2.6439 N.pl3   1  LIG1       -0.3426
     24 H         -13.6849   -4.3898    2.2686 H       1  LIG1        0.0623
     25 H         -12.5135   -6.2457    1.1143 H       1  LIG1        0.0623
     26 H          -1.0306   -0.7470   -3.4589 H       1  LIG1        0.0624
     27 H          -1.7882    1.5655   -4.0070 H       1  LIG1        0.0639
     28 H         -12.5157   -2.2781    2.7002 H       1  LIG1        0.0631
     29 H         -10.1743   -5.9838    0.3948 H       1  LIG1        0.0645
     30 H          -2.3344   -2.1081   -1.8443 H       1  LIG1        0.0659
     31 H          -3.8536    2.4286   -2.8929 H       1  LIG1        0.0840
     32 H          -5.9745    0.0325   -0.0074 H       1  LIG1        0.0485
     33 H          -4.5598    0.0002    1.0459 H       1  LIG1        0.0485
     34 H          -4.4211   -3.3949   -0.5349 H       1  LIG1        0.0485
     35 H          -4.7599   -2.7390   -2.1455 H       1  LIG1        0.0485
     36 H          -5.1511   -2.2554    1.8651 H       1  LIG1        0.0486
     37 H          -6.4907   -1.1231    2.1167 H       1  LIG1        0.0486
     38 H          -7.0208   -2.0348   -1.4352 H       1  LIG1        0.0486
     39 H          -6.7865   -3.7602   -1.1525 H       1  LIG1        0.0486
     40 H         -11.4908   -0.7345    2.9009 H       1  LIG1        0.1442
     41 H         -10.0171    0.1841    2.7475 H       1  LIG1        0.1442
@<TRIPOS>BOND
     1     1     2   ar
     2     1     5   ar
     3     2     6   ar
     4     3     4   ar
     5     3     7   ar
     6     4     8   ar
     7     5     9   ar
     8     6    10   ar
     9     7    11   ar
    10     8    18   ar
    11     9    10   ar
    12     9    12   ar
    13    10    19   ar
    14    11    18   ar
    15    11    21    1
    16    12    20   ar
    17    12    23    1
    18    13    19   ar
    19    13    20   ar
    20    13    22    1
    21    14    16    1
    22    14    21    1
    23    15    17    1
    24    15    21    1
    25    16    22    1
    26    17    22    1
    27     1    24    1
    28     2    25    1
    29     3    26    1
    30     4    27    1
    31     5    28    1
    32     6    29    1
    33     7    30    1
    34     8    31    1
    35    14    32    1
    36    14    33    1
    37    15    34    1
    38    15    35    1
    39    16    36    1
    40    16    37    1
    41    17    38    1
    42    17    39    1
    43    23    40    1
    44    23    41    1
