@<TRIPOS>MOLECULE
ChEBML351622
 54 56 0 0 0
SMALL
USER_CHARGES

@<TRIPOS>ATOM
      1 C         -11.2966   -5.4616    0.0663 C.ar    1  LIG1       -0.0601
      2 C         -12.2830   -4.8136    0.8070 C.ar    1  LIG1       -0.0581
      3 C          -4.2311   -0.0113   -2.6389 C.ar    1  LIG1       -0.0575
      4 C          -2.0786   -0.0840   -1.5441 C.ar    1  LIG1       -0.0575
      5 C          -9.9803   -4.9915    0.0517 C.ar    1  LIG1       -0.0402
      6 C          -3.6430    0.5827   -3.7556 C.ar    1  LIG1       -0.0432
      7 C          -1.4905    0.5099   -2.6608 C.ar    1  LIG1       -0.0432
      8 C         -10.0135   -2.0781    2.1863 C.ar    1  LIG1       -0.0259
      9 C         -10.6605   -3.1792    1.5587 C.ar    1  LIG1        0.0012
     10 C          -3.4489   -0.3446   -1.5331 C.ar    1  LIG1       -0.0478
     11 C         -11.9807   -3.6717    1.5580 C.ar    1  LIG1       -0.0336
     12 C          -9.6928   -3.8491    0.8071 C.ar    1  LIG1        0.0381
     13 C          -2.2729    0.8433   -3.7665 C.ar    1  LIG1        0.0406
     14 C          -8.6900   -2.1006    1.8108 C.ar    1  LIG1        0.0945
     15 C          -7.6468   -1.1990    2.1851 C.2     1  LIG1        0.2572
     16 C         -15.4826   -2.8956    3.9839 C.3     1  LIG1       -0.0457
     17 C         -14.0695   -2.7288    6.0274 C.3     1  LIG1       -0.0457
     18 C          -4.0839   -0.9882   -0.3263 C.3     1  LIG1       -0.0264
     19 C         -13.0807   -3.0185    2.3331 C.3     1  LIG1        0.0123
     20 C          -4.5822    0.0148    0.7225 C.3     1  LIG1       -0.0335
     21 C          -5.1947   -0.6237    1.9677 C.3     1  LIG1        0.0117
     22 C         -13.0277   -3.2877    3.8358 C.3     1  LIG1       -0.0307
     23 N          -8.5063   -3.1722    0.9787 N.ar    1  LIG1       -0.3101
     24 N          -6.3550   -1.4307    1.6657 N.am    1  LIG1       -0.3103
     25 N         -14.1169   -2.5564    4.5290 N.4     1  LIG1        0.2420
     26 O          -7.8580   -0.2388    2.9684 O.2     1  LIG1       -0.2704
     27 CL         -1.5476    1.5759   -5.1443 Cl      1  LIG1       -0.0843
     28 H         -11.5538   -6.3471   -0.5095 H       1  LIG1        0.0623
     29 H         -13.2971   -5.2063    0.7954 H       1  LIG1        0.0626
     30 H          -5.2994   -0.2109   -2.6380 H       1  LIG1        0.0626
     31 H          -1.4622   -0.3409   -0.6866 H       1  LIG1        0.0626
     32 H          -9.2130   -5.4966   -0.5253 H       1  LIG1        0.0642
     33 H          -4.2651    0.8366   -4.6101 H       1  LIG1        0.0638
     34 H          -0.4217    0.7071   -2.6550 H       1  LIG1        0.0638
     35 H         -10.4697   -1.3484    2.8422 H       1  LIG1        0.0651
     36 H         -15.6557   -3.9596    4.1553 H       1  LIG1        0.0777
     37 H         -16.2157   -2.2875    4.5172 H       1  LIG1        0.0777
     38 H         -15.4831   -2.6649    2.9168 H       1  LIG1        0.0777
     39 H         -14.2099   -3.7889    6.2461 H       1  LIG1        0.0777
     40 H         -13.0936   -2.3825    6.3729 H       1  LIG1        0.0777
     41 H         -14.8738   -2.1294    6.4583 H       1  LIG1        0.0777
     42 H          -3.3870   -1.6998    0.1331 H       1  LIG1        0.0316
     43 H          -4.9331   -1.5931   -0.6703 H       1  LIG1        0.0316
     44 H         -13.0259   -1.9308    2.1786 H       1  LIG1        0.0370
     45 H         -14.0626   -3.3191    1.9394 H       1  LIG1        0.0370
     46 H          -5.3329    0.6596    0.2479 H       1  LIG1        0.0286
     47 H          -3.7582    0.6687    1.0331 H       1  LIG1        0.0286
     48 H          -5.5229    0.1569    2.6614 H       1  LIG1        0.0467
     49 H          -4.4732   -1.2559    2.4935 H       1  LIG1        0.0467
     50 H         -12.0902   -2.9228    4.2660 H       1  LIG1        0.0818
     51 H         -13.1501   -4.3473    4.0798 H       1  LIG1        0.0818
     52 H          -7.6281   -3.4324    0.5511 H       1  LIG1        0.1529
     53 H          -6.2083   -2.2517    1.0876 H       1  LIG1        0.1497
     54 H         -13.9816   -1.5461    4.3529 H       1  LIG1        0.1997
@<TRIPOS>BOND
     1     1     2   ar
     2     1     5   ar
     3     2    11   ar
     4     3     6   ar
     5     3    10   ar
     6     4     7   ar
     7     4    10   ar
     8     5    12   ar
     9     6    13   ar
    10     7    13   ar
    11     8     9   ar
    12     8    14   ar
    13     9    11   ar
    14     9    12   ar
    15    10    18    1
    16    11    19    1
    17    12    23   ar
    18    13    27    1
    19    14    15    1
    20    14    23   ar
    21    15    24   am
    22    15    26    2
    23    16    25    1
    24    17    25    1
    25    18    20    1
    26    19    22    1
    27    20    21    1
    28    21    24    1
    29    22    25    1
    30     1    28    1
    31     2    29    1
    32     3    30    1
    33     4    31    1
    34     5    32    1
    35     6    33    1
    36     7    34    1
    37     8    35    1
    38    16    36    1
    39    16    37    1
    40    16    38    1
    41    17    39    1
    42    17    40    1
    43    17    41    1
    44    18    42    1
    45    18    43    1
    46    19    44    1
    47    19    45    1
    48    20    46    1
    49    20    47    1
    50    21    48    1
    51    21    49    1
    52    22    50    1
    53    22    51    1
    54    23    52    1
    55    24    53    1
    56    25    54    1
