@<TRIPOS>MOLECULE
ChEBML300259
 37 39 0 0 0
SMALL
USER_CHARGES

@<TRIPOS>ATOM
      1 C         -10.4297   -5.0909    0.4079 C.ar    1  LIG1       -0.0387
      2 C         -11.7242   -5.4871    0.7558 C.ar    1  LIG1       -0.0416
      3 C         -11.9749   -3.5752    2.2320 C.ar    1  LIG1       -0.0343
      4 C          -9.8554   -2.0557    2.2797 C.ar    1  LIG1       -0.0262
      5 C         -10.6722   -3.1561    1.8965 C.ar    1  LIG1       -0.0007
      6 C          -9.9311   -3.9220    0.9940 C.ar    1  LIG1        0.0379
      7 C         -12.4867   -4.7425    1.6535 C.ar    1  LIG1        0.0413
      8 C          -8.6564   -2.1728    1.6150 C.ar    1  LIG1        0.0945
      9 C          -7.4749   -1.2745    1.6796 C.2     1  LIG1        0.2576
     10 C          -4.5018   -1.0145   -0.4929 C.2     1  LIG1        0.2316
     11 C          -2.0886    0.8845   -2.5691 C.3     1  LIG1       -0.0327
     12 C          -3.1459    0.0210   -3.1925 C.3     1  LIG1       -0.0327
     13 C          -2.5193   -0.3824   -1.8900 C.3     1  LIG1        0.0252
     14 C          -2.6737    0.4227    0.4344 C.3     1  LIG1        0.0031
     15 C          -5.1632   -0.8834    0.8678 C.3     1  LIG1        0.0887
     16 N          -8.7118   -3.3014    0.8419 N.ar    1  LIG1       -0.3101
     17 N          -6.3847   -1.6360    0.8942 N.am    1  LIG1       -0.3013
     18 N          -3.2793   -0.3504   -0.6428 N.am    1  LIG1       -0.3005
     19 O          -7.5066   -0.2936    2.4179 O.2     1  LIG1       -0.2704
     20 O          -5.0313   -1.6739   -1.3914 O.2     1  LIG1       -0.2756
     21 CL        -14.0793   -5.2624    2.0563 Cl      1  LIG1       -0.0843
     22 H          -9.8368   -5.6718   -0.2906 H       1  LIG1        0.0643
     23 H         -12.1281   -6.3938    0.3101 H       1  LIG1        0.0639
     24 H         -12.5684   -2.9938    2.9327 H       1  LIG1        0.0645
     25 H         -10.1205   -1.2645    2.9683 H       1  LIG1        0.0651
     26 H          -1.1109    0.9004   -3.0350 H       1  LIG1        0.0286
     27 H          -2.3985    1.8312   -2.1440 H       1  LIG1        0.0286
     28 H          -4.1645    0.3894   -3.1847 H       1  LIG1        0.0286
     29 H          -2.8794   -0.5438   -4.0772 H       1  LIG1        0.0286
     30 H          -1.8224   -1.2128   -1.9205 H       1  LIG1        0.0506
     31 H          -2.0221   -0.2168    1.0355 H       1  LIG1        0.0433
     32 H          -3.4493    0.8419    1.0811 H       1  LIG1        0.0433
     33 H          -2.0793    1.2431    0.0230 H       1  LIG1        0.0433
     34 H          -4.5107   -1.2848    1.6475 H       1  LIG1        0.0567
     35 H          -5.4152    0.1608    1.0700 H       1  LIG1        0.0567
     36 H          -7.9670   -3.6341    0.2448 H       1  LIG1        0.1529
     37 H          -6.4174   -2.5016    0.3568 H       1  LIG1        0.1503
@<TRIPOS>BOND
     1     1     2   ar
     2     1     6   ar
     3     2     7   ar
     4     3     5   ar
     5     3     7   ar
     6     4     5   ar
     7     4     8   ar
     8     5     6   ar
     9     6    16   ar
    10     7    21    1
    11     8     9    1
    12     8    16   ar
    13     9    17   am
    14     9    19    2
    15    10    15    1
    16    10    18   am
    17    10    20    2
    18    11    12    1
    19    11    13    1
    20    12    13    1
    21    13    18    1
    22    14    18    1
    23    15    17    1
    24     1    22    1
    25     2    23    1
    26     3    24    1
    27     4    25    1
    28    11    26    1
    29    11    27    1
    30    12    28    1
    31    12    29    1
    32    13    30    1
    33    14    31    1
    34    14    32    1
    35    14    33    1
    36    15    34    1
    37    15    35    1
    38    16    36    1
    39    17    37    1
