@<TRIPOS>MOLECULE
ChEBML351374
 49 52 0 0 0
SMALL
USER_CHARGES

@<TRIPOS>ATOM
      1 C         -11.5861   -5.8020    1.2300 C.ar    1  LIG1       -0.0599
      2 C         -12.4510   -4.9624    1.9290 C.ar    1  LIG1       -0.0530
      3 C          -3.6467    1.2223   -2.9080 C.ar    1  LIG1       -0.0575
      4 C          -2.5083   -0.7504   -2.1018 C.ar    1  LIG1       -0.0575
      5 C         -10.3038   -5.3777    0.8700 C.ar    1  LIG1       -0.0402
      6 C          -2.5047    1.5906   -3.6192 C.ar    1  LIG1       -0.0432
      7 C          -1.3663   -0.3820   -2.8130 C.ar    1  LIG1       -0.0432
      8 C         -10.0556   -2.0034    2.1342 C.ar    1  LIG1       -0.0267
      9 C         -10.7693   -3.2188    1.9379 C.ar    1  LIG1        0.0062
     10 C          -3.6485    0.0518   -2.1492 C.ar    1  LIG1       -0.0474
     11 C         -12.0574   -3.6687    2.2899 C.ar    1  LIG1        0.0049
     12 C          -9.9240   -4.0819    1.2375 C.ar    1  LIG1        0.0383
     13 C          -1.3646    0.7885   -3.5717 C.ar    1  LIG1        0.0406
     14 C          -8.8137   -2.1498    1.5603 C.ar    1  LIG1        0.0842
     15 C          -7.7388   -1.2321    1.4857 C.ar    1  LIG1        0.2202
     16 C          -6.0615   -0.1898    0.8695 C.ar    1  LIG1        0.1593
     17 C         -15.0978   -1.4278    2.9530 C.3     1  LIG1       -0.0454
     18 C         -13.5959   -1.5455    0.9703 C.3     1  LIG1       -0.0454
     19 C          -4.8845   -0.3481   -1.3809 C.3     1  LIG1       -0.0207
     20 C         -13.0294   -2.8122    3.0380 C.3     1  LIG1       -0.0082
     21 C          -4.9099    0.2250    0.0608 C.3     1  LIG1        0.0140
     22 N          -6.8775   -1.2192    0.5000 N.ar    1  LIG1       -0.2028
     23 N          -6.3768    0.4186    2.0167 N.ar    1  LIG1       -0.1113
     24 N          -8.7438   -3.4065    1.0217 N.ar    1  LIG1       -0.3108
     25 N         -14.1200   -2.2765    2.1804 N.4     1  LIG1        0.2450
     26 O          -7.5126   -0.2864    2.4348 O.2     1  LIG1       -0.1898
     27 CL          0.0439    1.2430   -4.4492 Cl      1  LIG1       -0.0843
     28 H         -11.9122   -6.8030    0.9592 H       1  LIG1        0.0623
     29 H         -13.4419   -5.3251    2.1925 H       1  LIG1        0.0628
     30 H          -4.5311    1.8526   -2.9499 H       1  LIG1        0.0626
     31 H          -2.5016   -1.6641   -1.5132 H       1  LIG1        0.0626
     32 H          -9.6311   -6.0321    0.3259 H       1  LIG1        0.0642
     33 H          -2.5182    2.5052   -4.2064 H       1  LIG1        0.0638
     34 H          -0.4852   -1.0168   -2.7666 H       1  LIG1        0.0638
     35 H         -10.4165   -1.1183    2.6419 H       1  LIG1        0.0651
     36 H         -14.5543   -0.5669    3.3466 H       1  LIG1        0.0777
     37 H         -15.8846   -1.1140    2.2644 H       1  LIG1        0.0777
     38 H         -15.5041   -2.0384    3.7615 H       1  LIG1        0.0777
     39 H         -13.0205   -0.6872    1.3219 H       1  LIG1        0.0777
     40 H         -12.9651   -2.2377    0.4091 H       1  LIG1        0.0777
     41 H         -14.4536   -1.2260    0.3755 H       1  LIG1        0.0777
     42 H          -5.7636   -0.0081   -1.9438 H       1  LIG1        0.0320
     43 H          -4.9625   -1.4423   -1.3440 H       1  LIG1        0.0320
     44 H         -13.5156   -3.3714    3.8468 H       1  LIG1        0.0869
     45 H         -12.5330   -1.9441    3.4889 H       1  LIG1        0.0869
     46 H          -4.8803    1.3329   -0.0281 H       1  LIG1        0.0353
     47 H          -3.9448   -0.0248    0.5547 H       1  LIG1        0.0353
     48 H          -7.9442   -3.7894    0.5358 H       1  LIG1        0.1529
     49 H         -14.6587   -3.0814    1.8201 H       1  LIG1        0.2001
@<TRIPOS>BOND
     1     1     2   ar
     2     1     5   ar
     3     2    11   ar
     4     3     6   ar
     5     3    10   ar
     6     4     7   ar
     7     4    10   ar
     8     5    12   ar
     9     6    13   ar
    10     7    13   ar
    11     8     9   ar
    12     8    14   ar
    13     9    11   ar
    14     9    12   ar
    15    10    19    1
    16    11    20    1
    17    12    24   ar
    18    13    27    1
    19    14    15    1
    20    14    24   ar
    21    15    22   ar
    22    15    26   ar
    23    16    21    1
    24    16    22   ar
    25    16    23   ar
    26    17    25    1
    27    18    25    1
    28    19    21    1
    29    20    25    1
    30    23    26   ar
    31     1    28    1
    32     2    29    1
    33     3    30    1
    34     4    31    1
    35     5    32    1
    36     6    33    1
    37     7    34    1
    38     8    35    1
    39    17    36    1
    40    17    37    1
    41    17    38    1
    42    18    39    1
    43    18    40    1
    44    18    41    1
    45    19    42    1
    46    19    43    1
    47    20    44    1
    48    20    45    1
    49    21    46    1
    50    21    47    1
    51    24    48    1
    52    25    49    1
