@<TRIPOS>MOLECULE
ChEBML513045
 36 38 0 0 0
SMALL
USER_CHARGES

@<TRIPOS>ATOM
      1 C          -2.9039   -1.0073   -2.5716 C.ar    1  LIG1       -0.0622
      2 C         -12.4214   -4.7481    1.3401 C.ar    1  LIG1       -0.0615
      3 C          -2.7723   -1.8507   -1.4684 C.ar    1  LIG1       -0.0619
      4 C          -3.8308    0.0347   -2.5462 C.ar    1  LIG1       -0.0619
      5 C         -11.5311   -5.5364    0.6137 C.ar    1  LIG1       -0.0603
      6 C         -12.0057   -3.5412    1.9139 C.ar    1  LIG1       -0.0530
      7 C          -3.5678   -1.6522   -0.3400 C.ar    1  LIG1       -0.0572
      8 C          -4.6264    0.2331   -1.4178 C.ar    1  LIG1       -0.0572
      9 C         -10.2006   -5.1456    0.4375 C.ar    1  LIG1       -0.0402
     10 C          -9.9222   -1.9942    2.1802 C.ar    1  LIG1       -0.0262
     11 C         -10.6690   -3.1265    1.7498 C.ar    1  LIG1       -0.0022
     12 C          -4.4950   -0.6103   -0.3146 C.ar    1  LIG1       -0.0280
     13 C          -9.7991   -3.9367    1.0169 C.ar    1  LIG1        0.0378
     14 C          -8.6373   -2.1365    1.7094 C.ar    1  LIG1        0.0945
     15 C          -7.5260   -1.2559    1.8850 C.2     1  LIG1        0.2577
     16 C          -5.7384    1.0713    1.1083 C.3     1  LIG1       -0.0424
     17 C          -5.3587   -0.3946    0.9093 C.3     1  LIG1        0.0452
     18 N          -8.5729   -3.3109    1.0086 N.ar    1  LIG1       -0.3101
     19 N          -6.5480   -1.2146    0.8681 N.am    1  LIG1       -0.3036
     20 O          -7.4034   -0.5512    2.9187 O.2     1  LIG1       -0.2704
     21 H          -2.2833   -1.1611   -3.4496 H       1  LIG1        0.0622
     22 H         -13.4514   -5.0727    1.4627 H       1  LIG1        0.0623
     23 H          -2.0497   -2.6613   -1.4875 H       1  LIG1        0.0623
     24 H          -3.9328    0.6923   -3.4045 H       1  LIG1        0.0623
     25 H         -11.8753   -6.4702    0.1769 H       1  LIG1        0.0623
     26 H         -12.7104   -2.9360    2.4774 H       1  LIG1        0.0629
     27 H          -3.4586   -2.3146    0.5149 H       1  LIG1        0.0626
     28 H          -5.3462    1.0474   -1.4071 H       1  LIG1        0.0626
     29 H          -9.5075   -5.7598   -0.1276 H       1  LIG1        0.0642
     30 H         -10.2901   -1.1661    2.7714 H       1  LIG1        0.0651
     31 H          -6.2937    1.4555    0.2457 H       1  LIG1        0.0253
     32 H          -6.3691    1.1873    1.9969 H       1  LIG1        0.0253
     33 H          -4.8577    1.7069    1.2537 H       1  LIG1        0.0253
     34 H          -4.8081   -0.7216    1.8000 H       1  LIG1        0.0552
     35 H          -7.7462   -3.6703    0.5511 H       1  LIG1        0.1529
     36 H          -6.6477   -1.8437    0.0781 H       1  LIG1        0.1503
@<TRIPOS>BOND
     1     1     3   ar
     2     1     4   ar
     3     2     5   ar
     4     2     6   ar
     5     3     7   ar
     6     4     8   ar
     7     5     9   ar
     8     6    11   ar
     9     7    12   ar
    10     8    12   ar
    11     9    13   ar
    12    10    11   ar
    13    10    14   ar
    14    11    13   ar
    15    12    17    1
    16    13    18   ar
    17    14    15    1
    18    14    18   ar
    19    15    19   am
    20    15    20    2
    21    16    17    1
    22    17    19    1
    23     1    21    1
    24     2    22    1
    25     3    23    1
    26     4    24    1
    27     5    25    1
    28     6    26    1
    29     7    27    1
    30     8    28    1
    31     9    29    1
    32    10    30    1
    33    16    31    1
    34    16    32    1
    35    16    33    1
    36    17    34    1
    37    18    35    1
    38    19    36    1
