@<TRIPOS>MOLECULE
ChEBML233244
 32 34 0 0 0
SMALL
USER_CHARGES

@<TRIPOS>ATOM
      1 C          -5.0877   -2.2638   -0.6995 C.ar    1  LIG1       -0.0586
      2 C          -6.2830   -2.0904   -0.0337 C.ar    1  LIG1       -0.0508
      3 C         -10.3342   -5.1425    0.4426 C.ar    1  LIG1       -0.0376
      4 C         -11.6440   -5.5129    0.6446 C.ar    1  LIG1       -0.0299
      5 C          -3.9117   -1.7785   -0.1556 C.ar    1  LIG1       -0.0263
      6 C         -12.0426   -3.5390    1.9599 C.ar    1  LIG1       -0.0226
      7 C          -9.9520   -2.0354    2.1950 C.ar    1  LIG1       -0.0275
      8 C          -5.1181   -0.9295    1.7350 C.ar    1  LIG1       -0.0151
      9 C         -10.7091   -3.1514    1.7670 C.ar    1  LIG1        0.0003
     10 C          -6.3062   -1.4225    1.1928 C.ar    1  LIG1        0.0267
     11 C          -9.8505   -3.9618    0.9986 C.ar    1  LIG1        0.0379
     12 C         -12.4984   -4.7150    1.4041 C.ar    1  LIG1        0.0753
     13 C          -3.9262   -1.1147    1.0609 C.ar    1  LIG1        0.1235
     14 C          -8.6912   -2.1754    1.7007 C.ar    1  LIG1        0.0797
     15 C          -7.5846   -1.2333    1.9108 C.2     1  LIG1        0.2067
     16 C         -13.9588   -6.3377    0.9057 C.3     1  LIG1        0.0422
     17 N          -8.6192   -3.3456    0.9706 N.ar    1  LIG1       -0.3112
     18 O          -7.7198   -0.2967    2.6757 O.2     1  LIG1       -0.2871
     19 O         -13.7898   -5.0963    1.5930 O.3     1  LIG1       -0.3493
     20 F          -2.7740   -0.6439    1.5861 F       1  LIG1       -0.2069
     21 H          -5.0696   -2.7803   -1.6478 H       1  LIG1        0.0624
     22 H          -7.1997   -2.4707   -0.4598 H       1  LIG1        0.0630
     23 H          -9.6810   -5.7685   -0.1473 H       1  LIG1        0.0643
     24 H         -12.0136   -6.4304    0.2109 H       1  LIG1        0.0651
     25 H          -2.9785   -1.9178   -0.6810 H       1  LIG1        0.0653
     26 H         -12.7083   -2.9210    2.5441 H       1  LIG1        0.0657
     27 H         -10.3099   -1.2191    2.8048 H       1  LIG1        0.0651
     28 H          -5.1299   -0.4083    2.6808 H       1  LIG1        0.0661
     29 H         -14.9847   -6.6848    1.0293 H       1  LIG1        0.0535
     30 H         -13.7478   -6.1976   -0.1545 H       1  LIG1        0.0535
     31 H         -13.2728   -7.0775    1.3180 H       1  LIG1        0.0535
     32 H          -7.8312   -3.6788    0.5136 H       1  LIG1        0.1529
@<TRIPOS>BOND
     1     1     2   ar
     2     1     5   ar
     3     2    10   ar
     4     3     4   ar
     5     3    11   ar
     6     4    12   ar
     7     5    13   ar
     8     6     9   ar
     9     6    12   ar
    10     7     9   ar
    11     7    14   ar
    12     8    10   ar
    13     8    13   ar
    14     9    11   ar
    15    10    15    1
    16    11    17   ar
    17    12    19    1
    18    13    20    1
    19    14    15    1
    20    14    17   ar
    21    15    18    2
    22    16    19    1
    23     1    21    1
    24     2    22    1
    25     3    23    1
    26     4    24    1
    27     5    25    1
    28     6    26    1
    29     7    27    1
    30     8    28    1
    31    16    29    1
    32    16    30    1
    33    16    31    1
    34    17    32    1
