@<TRIPOS>MOLECULE
ChEBML205021
 66 69 0 0 0
SMALL
USER_CHARGES

@<TRIPOS>ATOM
      1 C           0.0650   -1.6743   -3.1730 C.ar    1  LIG1       -0.0418
      2 C         -10.2566   -5.3963    1.1067 C.ar    1  LIG1       -0.0383
      3 C           0.1098   -0.9676   -1.9764 C.ar    1  LIG1       -0.0360
      4 C         -11.6213   -5.6597    0.9584 C.ar    1  LIG1       -0.0377
      5 C         -12.1688   -3.3176    1.2930 C.ar    1  LIG1       -0.0304
      6 C         -10.0584   -1.8382    1.6951 C.ar    1  LIG1       -0.0261
      7 C          -1.1791   -1.9475   -3.7185 C.ar    1  LIG1        0.0292
      8 C         -10.7984   -3.0279    1.4461 C.ar    1  LIG1       -0.0003
      9 C          -9.8758   -4.0718    1.3496 C.ar    1  LIG1        0.0379
     10 C         -12.5644   -4.6379    1.0497 C.ar    1  LIG1        0.0437
     11 C          -1.0739   -0.5615   -1.3704 C.ar    1  LIG1        0.0670
     12 C          -8.7257   -2.1767    1.7444 C.ar    1  LIG1        0.0947
     13 C          -2.2669   -0.8844   -1.9968 C.ar    1  LIG1        0.1413
     14 C          -7.5980   -1.3205    1.9700 C.2     1  LIG1        0.2598
     15 C          -5.5446   -1.7031   -0.9508 C.3     1  LIG1       -0.0185
     16 C          -4.2261   -0.6330    0.9257 C.3     1  LIG1       -0.0185
     17 C          -6.3545   -2.4627    0.0990 C.3     1  LIG1        0.0162
     18 C          -5.0843   -1.4047    1.9294 C.3     1  LIG1        0.0162
     19 C          -4.1476   -1.3292   -0.4394 C.3     1  LIG1        0.0271
     20 C          -0.0670    1.2773    1.7439 C.3     1  LIG1       -0.0497
     21 C          -4.3520    0.9089   -3.1849 C.3     1  LIG1       -0.0494
     22 C         -14.2002   -5.6408   -1.6873 C.3     1  LIG1        0.0225
     23 C           0.1928    0.4961    0.5010 C.3     1  LIG1        0.0056
     24 C          -4.0587    0.8118   -1.7265 C.3     1  LIG1        0.0104
     25 N          -2.3503   -1.5694   -3.1593 N.ar    1  LIG1       -0.2394
     26 N          -8.6255   -3.5259    1.5347 N.ar    1  LIG1       -0.3101
     27 N          -6.3980   -1.7113    1.3609 N.am    1  LIG1       -0.2966
     28 N          -1.0308    0.1541   -0.1593 N.pl3   1  LIG1       -0.3419
     29 N         -13.9520   -4.9397    0.8932 N.pl3   1  LIG1       -0.2633
     30 N          -3.4628   -0.4803   -1.3935 N.pl3   1  LIG1       -0.3114
     31 O          -7.7108   -0.3099    2.6618 O.2     1  LIG1       -0.2702
     32 O         -16.1743   -4.5827   -0.3642 O.2     1  LIG1       -0.4814
     33 O         -14.2137   -3.1233   -0.9734 O.2     1  LIG1       -0.4814
     34 S         -14.7453   -4.3990   -0.5361 S.O2    1  LIG1       -0.1957
     35 H           0.9748   -2.0009   -3.6632 H       1  LIG1        0.0639
     36 H          -9.5231   -6.1924    1.0355 H       1  LIG1        0.0643
     37 H           1.0723   -0.7395   -1.5262 H       1  LIG1        0.0644
     38 H         -11.9400   -6.6826    0.7691 H       1  LIG1        0.0643
     39 H         -12.9066   -2.5227    1.3637 H       1  LIG1        0.0650
     40 H         -10.4623   -0.8428    1.8240 H       1  LIG1        0.0651
     41 H          -1.2691   -2.4961   -4.6504 H       1  LIG1        0.0840
     42 H          -5.4708   -2.3055   -1.8639 H       1  LIG1        0.0302
     43 H          -6.0809   -0.7819   -1.2124 H       1  LIG1        0.0302
     44 H          -4.6668    0.3622    0.7826 H       1  LIG1        0.0302
     45 H          -3.2224   -0.4834    1.3409 H       1  LIG1        0.0302
     46 H          -7.3578   -2.6524   -0.2910 H       1  LIG1        0.0470
     47 H          -5.9075   -3.4398    0.3147 H       1  LIG1        0.0470
     48 H          -4.6111   -2.3566    2.1965 H       1  LIG1        0.0470
     49 H          -5.1852   -0.8224    2.8507 H       1  LIG1        0.0470
     50 H          -3.5567   -2.2463   -0.3331 H       1  LIG1        0.0506
     51 H          -0.5918    2.2114    1.5159 H       1  LIG1        0.0246
     52 H          -0.6615    0.6933    2.4549 H       1  LIG1        0.0246
     53 H           0.8837    1.5332    2.2271 H       1  LIG1        0.0246
     54 H          -3.4354    0.8055   -3.7757 H       1  LIG1        0.0246
     55 H          -5.0678    0.1383   -3.4912 H       1  LIG1        0.0246
     56 H          -4.7911    1.8880   -3.4110 H       1  LIG1        0.0246
     57 H         -14.6363   -5.4210   -2.6631 H       1  LIG1        0.0442
     58 H         -13.1109   -5.6079   -1.7391 H       1  LIG1        0.0442
     59 H         -14.5370   -6.6145   -1.3283 H       1  LIG1        0.0442
     60 H           0.7171   -0.4351    0.7360 H       1  LIG1        0.0463
     61 H           0.7999    1.0749   -0.2013 H       1  LIG1        0.0463
     62 H          -4.9782    0.9158   -1.1427 H       1  LIG1        0.0466
     63 H          -3.3560    1.5919   -1.4193 H       1  LIG1        0.0466
     64 H          -7.7607   -4.0490    1.5178 H       1  LIG1        0.1529
     65 H          -1.9095    0.4258    0.2430 H       1  LIG1        0.1466
     66 H         -14.2154   -5.8909    1.1981 H       1  LIG1        0.1702
@<TRIPOS>BOND
     1     1     3   ar
     2     1     7   ar
     3     2     4   ar
     4     2     9   ar
     5     3    11   ar
     6     4    10   ar
     7     5     8   ar
     8     5    10   ar
     9     6     8   ar
    10     6    12   ar
    11     7    25   ar
    12     8     9   ar
    13     9    26   ar
    14    10    29    1
    15    11    13   ar
    16    11    28    1
    17    12    14    1
    18    12    26   ar
    19    13    25   ar
    20    13    30    1
    21    14    27   am
    22    14    31    2
    23    15    17    1
    24    15    19    1
    25    16    18    1
    26    16    19    1
    27    17    27    1
    28    18    27    1
    29    19    30    1
    30    20    23    1
    31    21    24    1
    32    22    34    1
    33    23    28    1
    34    24    30    1
    35    29    34    1
    36    32    34    2
    37    33    34    2
    38     1    35    1
    39     2    36    1
    40     3    37    1
    41     4    38    1
    42     5    39    1
    43     6    40    1
    44     7    41    1
    45    15    42    1
    46    15    43    1
    47    16    44    1
    48    16    45    1
    49    17    46    1
    50    17    47    1
    51    18    48    1
    52    18    49    1
    53    19    50    1
    54    20    51    1
    55    20    52    1
    56    20    53    1
    57    21    54    1
    58    21    55    1
    59    21    56    1
    60    22    57    1
    61    22    58    1
    62    22    59    1
    63    23    60    1
    64    23    61    1
    65    24    62    1
    66    24    63    1
    67    26    64    1
    68    28    65    1
    69    29    66    1
