@<TRIPOS>MOLECULE
ChEBML725556
 61 64 0 0 0
SMALL
USER_CHARGES

@<TRIPOS>ATOM
      1 C          -3.7468    1.1921   -3.1443 C.ar    1  LIG1       -0.0602
      2 C          -2.5478    0.6886   -3.6136 C.ar    1  LIG1       -0.0595
      3 C          -9.7960   -3.9361    1.5337 C.ar    1  LIG1       -0.0536
      4 C         -11.1656   -1.9447    1.4810 C.ar    1  LIG1       -0.0536
      5 C         -12.1125   -5.5424    0.9526 C.ar    1  LIG1       -0.0518
      6 C         -13.4791   -3.5534    0.8948 C.ar    1  LIG1       -0.0518
      7 C          -8.6886   -3.1684    1.8139 C.ar    1  LIG1       -0.0491
      8 C         -10.0605   -1.1758    1.7678 C.ar    1  LIG1       -0.0491
      9 C          -4.3463    0.6337   -2.0311 C.ar    1  LIG1       -0.0382
     10 C          -1.9420   -0.3761   -2.9718 C.ar    1  LIG1       -0.0299
     11 C         -13.2231   -6.3094    0.6714 C.ar    1  LIG1       -0.0305
     12 C         -14.5845   -4.3255    0.6076 C.ar    1  LIG1       -0.0305
     13 C         -11.0415   -3.3297    1.3654 C.ar    1  LIG1       -0.0183
     14 C         -12.2333   -4.1573    1.0634 C.ar    1  LIG1       -0.0182
     15 C          -8.8118   -1.7814    1.9302 C.ar    1  LIG1        0.0373
     16 C          -3.7472   -0.4380   -1.3852 C.ar    1  LIG1        0.0594
     17 C         -14.4609   -5.7043    0.4986 C.ar    1  LIG1        0.0853
     18 C          -2.5360   -0.9410   -1.8554 C.ar    1  LIG1        0.0961
     19 C          -7.6241   -0.9566    2.2308 C.2     1  LIG1        0.2456
     20 C         -16.1310   -7.1883    1.1928 C.2     1  LIG1        0.2628
     21 C          -4.5856    0.0817    0.6931 C.3     1  LIG1        0.0275
     22 C          -5.6690   -1.4974   -0.6950 C.3     1  LIG1        0.0275
     23 C          -5.2305   -0.4774    1.9654 C.3     1  LIG1        0.0302
     24 C          -6.3856   -2.1607    0.4857 C.3     1  LIG1        0.0302
     25 C         -17.4069   -7.9405    0.9142 C.3     1  LIG1        0.0225
     26 C          -0.0108   -3.4410   -1.2690 C.3     1  LIG1       -0.0410
     27 C          -0.7327   -2.2667   -1.9327 C.3     1  LIG1        0.0506
     28 N          -4.3552   -1.0089   -0.2613 N.pl3   1  LIG1       -0.3255
     29 N          -6.4625   -1.1883    1.5877 N.am    1  LIG1       -0.2947
     30 O          -7.6942   -0.0687    3.0583 O.2     1  LIG1       -0.2716
     31 O         -15.6278   -7.2380    2.2901 O.2     1  LIG1       -0.2664
     32 O         -15.5535   -6.4631    0.2214 O.3     1  LIG1       -0.2784
     33 O          -1.9412   -1.9879   -1.2228 O.3     1  LIG1       -0.3444
     34 H          -4.2160    2.0239   -3.6486 H       1  LIG1        0.0623
     35 H          -2.0827    1.1283   -4.4835 H       1  LIG1        0.0623
     36 H          -9.7010   -5.0081    1.4438 H       1  LIG1        0.0629
     37 H         -12.1298   -1.4763    1.3499 H       1  LIG1        0.0629
     38 H         -11.1500   -6.0135    1.0866 H       1  LIG1        0.0630
     39 H         -13.5768   -2.4816    0.9846 H       1  LIG1        0.0630
     40 H          -7.7246   -3.6377    1.9434 H       1  LIG1        0.0631
     41 H         -10.1578   -0.1044    1.8622 H       1  LIG1        0.0631
     42 H          -5.2828    1.0292   -1.6664 H       1  LIG1        0.0643
     43 H          -1.0055   -0.7670   -3.3409 H       1  LIG1        0.0651
     44 H         -13.1301   -7.3819    0.5852 H       1  LIG1        0.0650
     45 H         -15.5487   -3.8580    0.4722 H       1  LIG1        0.0650
     46 H          -3.6345    0.5512    0.9444 H       1  LIG1        0.0485
     47 H          -5.2484    0.8220    0.2452 H       1  LIG1        0.0485
     48 H          -6.2658   -0.6606   -1.0582 H       1  LIG1        0.0485
     49 H          -5.5394   -2.2251   -1.4962 H       1  LIG1        0.0485
     50 H          -4.5426   -1.1684    2.4526 H       1  LIG1        0.0486
     51 H          -5.4721    0.3405    2.6442 H       1  LIG1        0.0486
     52 H          -5.8256   -3.0382    0.8089 H       1  LIG1        0.0486
     53 H          -7.3910   -2.4561    0.1858 H       1  LIG1        0.0486
     54 H         -17.7064   -7.7769   -0.1210 H       1  LIG1        0.0336
     55 H         -17.2449   -9.0053    1.0817 H       1  LIG1        0.0336
     56 H         -18.1921   -7.5832    1.5804 H       1  LIG1        0.0336
     57 H          -0.6543   -4.3206   -1.2877 H       1  LIG1        0.0254
     58 H           0.9111   -3.6537   -1.8106 H       1  LIG1        0.0254
     59 H           0.2254   -3.1854   -0.2361 H       1  LIG1        0.0254
     60 H          -0.0892   -1.3871   -1.9142 H       1  LIG1        0.0569
     61 H          -0.9688   -2.5224   -2.9657 H       1  LIG1        0.0569
@<TRIPOS>BOND
     1     1     2   ar
     2     1     9   ar
     3     2    10   ar
     4     3     7   ar
     5     3    13   ar
     6     4     8   ar
     7     4    13   ar
     8     5    11   ar
     9     5    14   ar
    10     6    12   ar
    11     6    14   ar
    12     7    15   ar
    13     8    15   ar
    14     9    16   ar
    15    10    18   ar
    16    11    17   ar
    17    12    17   ar
    18    13    14    1
    19    15    19    1
    20    16    18   ar
    21    16    28    1
    22    17    32    1
    23    18    33    1
    24    19    29   am
    25    19    30    2
    26    20    25    1
    27    20    31    2
    28    20    32    1
    29    21    23    1
    30    21    28    1
    31    22    24    1
    32    22    28    1
    33    23    29    1
    34    24    29    1
    35    26    27    1
    36    27    33    1
    37     1    34    1
    38     2    35    1
    39     3    36    1
    40     4    37    1
    41     5    38    1
    42     6    39    1
    43     7    40    1
    44     8    41    1
    45     9    42    1
    46    10    43    1
    47    11    44    1
    48    12    45    1
    49    21    46    1
    50    21    47    1
    51    22    48    1
    52    22    49    1
    53    23    50    1
    54    23    51    1
    55    24    52    1
    56    24    53    1
    57    25    54    1
    58    25    55    1
    59    25    56    1
    60    26    57    1
    61    26    58    1
    62    26    59    1
    63    27    60    1
    64    27    61    1
