@<TRIPOS>MOLECULE
ChEBML866581
 46 49 0 0 0
SMALL
USER_CHARGES

@<TRIPOS>ATOM
      1 C          -3.6260    1.2217   -3.2341 C.ar    1  LIG1       -0.0602
      2 C          -2.3571    0.8346   -3.6232 C.ar    1  LIG1       -0.0595
      3 C          -4.2206    0.6423   -2.1290 C.ar    1  LIG1       -0.0382
      4 C          -1.6762   -0.1340   -2.9087 C.ar    1  LIG1       -0.0299
      5 C          -9.9519   -1.9920    1.9289 C.ar    1  LIG1       -0.0389
      6 C         -10.7639   -3.0609    1.5488 C.ar    1  LIG1       -0.0368
      7 C          -3.5456   -0.3338   -1.4105 C.ar    1  LIG1        0.0594
      8 C          -2.2646   -0.7191   -1.7999 C.ar    1  LIG1        0.0957
      9 C          -8.5919   -2.1023    1.7263 C.ar    1  LIG1        0.0750
     10 C         -10.1398   -4.1393    1.0045 C.ar    1  LIG1       -0.0068
     11 C          -7.5305   -1.1385    2.0315 C.2     1  LIG1        0.2524
     12 C         -12.2669   -3.3508    1.5864 C.3     1  LIG1       -0.0267
     13 C         -11.1133   -5.2268    0.6409 C.3     1  LIG1       -0.0209
     14 C         -12.3986   -4.8772    1.4222 C.3     1  LIG1       -0.0446
     15 C          -4.5431    0.1669    0.6010 C.3     1  LIG1        0.0275
     16 C          -5.3773   -1.5698   -0.7707 C.3     1  LIG1        0.0275
     17 C          -5.1911   -0.4122    1.8629 C.3     1  LIG1        0.0303
     18 C          -6.0804   -2.2635    0.4005 C.3     1  LIG1        0.0303
     19 C          -0.3288   -1.8431   -1.7341 C.3     1  LIG1        0.0423
     20 N          -4.1478   -0.9261   -0.2945 N.pl3   1  LIG1       -0.3255
     21 N          -6.3185   -1.2659    1.4559 N.am    1  LIG1       -0.2942
     22 O          -7.7437   -0.2232    2.8048 O.2     1  LIG1       -0.2710
     23 O          -1.5958   -1.6715   -1.0960 O.3     1  LIG1       -0.3473
     24 S          -8.4633   -3.7207    0.9889 S.2     1  LIG1       -0.0887
     25 H          -4.1540    1.9788   -3.7950 H       1  LIG1        0.0623
     26 H          -1.8963    1.2903   -4.4871 H       1  LIG1        0.0623
     27 H          -5.2119    0.9468   -1.8270 H       1  LIG1        0.0643
     28 H          -0.6850   -0.4340   -3.2153 H       1  LIG1        0.0651
     29 H         -10.3767   -1.1024    2.3701 H       1  LIG1        0.0640
     30 H         -12.6874   -3.0368    2.5417 H       1  LIG1        0.0316
     31 H         -12.7699   -2.8388    0.7660 H       1  LIG1        0.0316
     32 H         -11.3070   -5.2205   -0.4318 H       1  LIG1        0.0322
     33 H         -10.7312   -6.1988    0.9532 H       1  LIG1        0.0322
     34 H         -13.2871   -5.1316    0.8442 H       1  LIG1        0.0273
     35 H         -12.4117   -5.3737    2.3926 H       1  LIG1        0.0273
     36 H          -3.6621    0.7457    0.8784 H       1  LIG1        0.0485
     37 H          -5.2565    0.8142    0.0910 H       1  LIG1        0.0485
     38 H          -6.0398   -0.8165   -1.1971 H       1  LIG1        0.0485
     39 H          -5.1288   -2.3077   -1.5335 H       1  LIG1        0.0485
     40 H          -4.4600   -1.0063    2.4113 H       1  LIG1        0.0486
     41 H          -5.5540    0.3988    2.4944 H       1  LIG1        0.0486
     42 H          -5.4478   -3.0628    0.7869 H       1  LIG1        0.0486
     43 H          -7.0314   -2.6771    0.0648 H       1  LIG1        0.0486
     44 H          -0.4814   -2.1602   -2.7657 H       1  LIG1        0.0535
     45 H           0.2155   -0.8988   -1.7210 H       1  LIG1        0.0535
     46 H           0.2462   -2.6012   -1.2023 H       1  LIG1        0.0535
@<TRIPOS>BOND
     1     1     2   ar
     2     1     3   ar
     3     2     4   ar
     4     3     7   ar
     5     4     8   ar
     6     5     6   ar
     7     5     9   ar
     8     6    10   ar
     9     6    12    1
    10     7     8   ar
    11     7    20    1
    12     8    23    1
    13     9    11    1
    14     9    24   ar
    15    10    13    1
    16    10    24   ar
    17    11    21   am
    18    11    22    2
    19    12    14    1
    20    13    14    1
    21    15    17    1
    22    15    20    1
    23    16    18    1
    24    16    20    1
    25    17    21    1
    26    18    21    1
    27    19    23    1
    28     1    25    1
    29     2    26    1
    30     3    27    1
    31     4    28    1
    32     5    29    1
    33    12    30    1
    34    12    31    1
    35    13    32    1
    36    13    33    1
    37    14    34    1
    38    14    35    1
    39    15    36    1
    40    15    37    1
    41    16    38    1
    42    16    39    1
    43    17    40    1
    44    17    41    1
    45    18    42    1
    46    18    43    1
    47    19    44    1
    48    19    45    1
    49    19    46    1
