@<TRIPOS>MOLECULE
ChEBML715437
 52 55 0 0 0
SMALL
USER_CHARGES

@<TRIPOS>ATOM
      1 C          -2.2077    0.6561   -3.5027 C.ar    1  LIG1       -0.0431
      2 C          -1.9332   -0.5988   -2.9705 C.ar    1  LIG1       -0.0449
      3 C         -12.2842   -3.7616    1.7316 C.ar    1  LIG1       -0.0482
      4 C         -11.4965   -5.7900    0.6817 C.ar    1  LIG1       -0.0482
      5 C         -10.9999   -3.2229    1.6546 C.ar    1  LIG1       -0.0402
      6 C         -10.2122   -5.2512    0.6045 C.ar    1  LIG1       -0.0402
      7 C          -3.2535    1.3793   -2.9523 C.ar    1  LIG1        0.0291
      8 C          -7.0122   -1.6693    1.2440 C.ar    1  LIG1        0.0158
      9 C         -12.5325   -5.0452    1.2453 C.ar    1  LIG1        0.0556
     10 C          -2.7019   -1.0851   -1.9189 C.ar    1  LIG1        0.0957
     11 C          -9.9638   -3.9678    1.0910 C.ar    1  LIG1        0.0314
     12 C          -6.3948   -0.7757    2.1205 C.ar    1  LIG1        0.0508
     13 C          -3.7254   -0.2838   -1.4392 C.ar    1  LIG1        0.1322
     14 C          -7.9738   -2.4937    1.8194 C.ar    1  LIG1        0.1289
     15 C          -7.6468   -1.5879    3.8678 C.ar    1  LIG1        0.1273
     16 C          -6.7261   -1.7678   -0.2310 C.3     1  LIG1       -0.0067
     17 C          -5.3538    0.2248    1.6783 C.3     1  LIG1        0.0059
     18 C          -5.2465   -2.0046   -0.5504 C.3     1  LIG1        0.0171
     19 C          -4.1477   -0.4125    0.9838 C.3     1  LIG1        0.0184
     20 C          -7.9880   -1.5374    5.3181 C.3     1  LIG1       -0.0042
     21 C         -13.9051   -5.6222    1.3276 C.3     1  LIG1        0.4160
     22 C          -2.4040   -2.4311   -1.3509 C.3     1  LIG1        0.4193
     23 N          -4.0222    0.9401   -1.9306 N.ar    1  LIG1       -0.2408
     24 N          -6.7051   -0.7277    3.4412 N.ar    1  LIG1       -0.2377
     25 N          -8.3131   -2.4824    3.1240 N.ar    1  LIG1       -0.2179
     26 N          -4.4843   -0.7584   -0.4033 N.pl3   1  LIG1       -0.3146
     27 N          -8.6710   -3.4250    1.0115 N.pl3   1  LIG1       -0.2993
     28 F         -14.8181   -4.7837    1.9019 F       1  LIG1       -0.1661
     29 F         -14.4358   -5.9467    0.1115 F       1  LIG1       -0.1661
     30 F         -13.9489   -6.7704    2.0643 F       1  LIG1       -0.1661
     31 F          -1.3573   -3.0634   -1.9598 F       1  LIG1       -0.1660
     32 F          -2.0807   -2.4057   -0.0239 F       1  LIG1       -0.1660
     33 F          -3.4598   -3.2902   -1.4537 F       1  LIG1       -0.1660
     34 H          -1.6213    1.0554   -4.3221 H       1  LIG1        0.0639
     35 H          -1.1189   -1.1892   -3.3816 H       1  LIG1        0.0631
     36 H         -13.0851   -3.1748    2.1732 H       1  LIG1        0.0629
     37 H         -11.6801   -6.7913    0.3018 H       1  LIG1        0.0629
     38 H         -10.8170   -2.2225    2.0379 H       1  LIG1        0.0642
     39 H          -9.4122   -5.8408    0.1640 H       1  LIG1        0.0642
     40 H          -3.5093    2.3632   -3.3318 H       1  LIG1        0.0840
     41 H          -7.2779   -2.5916   -0.6955 H       1  LIG1        0.0334
     42 H          -7.0983   -0.8557   -0.7147 H       1  LIG1        0.0334
     43 H          -5.8372    0.9795    1.0466 H       1  LIG1        0.0348
     44 H          -4.9867    0.7551    2.5665 H       1  LIG1        0.0348
     45 H          -4.8249   -2.7952    0.0833 H       1  LIG1        0.0472
     46 H          -5.1510   -2.3535   -1.5866 H       1  LIG1        0.0472
     47 H          -3.3156    0.3028    0.9750 H       1  LIG1        0.0473
     48 H          -3.7942   -1.2957    1.5304 H       1  LIG1        0.0473
     49 H          -8.8035   -0.8249    5.4945 H       1  LIG1        0.0312
     50 H          -8.3010   -2.5222    5.6890 H       1  LIG1        0.0312
     51 H          -7.1229   -1.2317    5.9212 H       1  LIG1        0.0312
     52 H          -8.1266   -3.7603    0.2253 H       1  LIG1        0.1543
@<TRIPOS>BOND
     1     1     2   ar
     2     1     7   ar
     3     2    10   ar
     4     3     5   ar
     5     3     9   ar
     6     4     6   ar
     7     4     9   ar
     8     5    11   ar
     9     6    11   ar
    10     7    23   ar
    11     8    12   ar
    12     8    14   ar
    13     8    16    1
    14     9    21    1
    15    10    13   ar
    16    10    22    1
    17    11    27    1
    18    12    17    1
    19    12    24   ar
    20    13    23   ar
    21    13    26    1
    22    14    25   ar
    23    14    27    1
    24    15    20    1
    25    15    24   ar
    26    15    25   ar
    27    16    18    1
    28    17    19    1
    29    18    26    1
    30    19    26    1
    31    21    28    1
    32    21    29    1
    33    21    30    1
    34    22    31    1
    35    22    32    1
    36    22    33    1
    37     1    34    1
    38     2    35    1
    39     3    36    1
    40     4    37    1
    41     5    38    1
    42     6    39    1
    43     7    40    1
    44    16    41    1
    45    16    42    1
    46    17    43    1
    47    17    44    1
    48    18    45    1
    49    18    46    1
    50    19    47    1
    51    19    48    1
    52    20    49    1
    53    20    50    1
    54    20    51    1
    55    27    52    1
