@<TRIPOS>MOLECULE
ChEBML1137472
 52 55 0 0 0
SMALL
USER_CHARGES

@<TRIPOS>ATOM
      1 C          -3.0810    1.4927   -3.3313 C.ar    1  LIG1       -0.0602
      2 C          -1.8075    0.9339   -3.4384 C.ar    1  LIG1       -0.0595
      3 C         -13.1036   -2.8973    1.6236 C.ar    1  LIG1       -0.0513
      4 C         -12.3059   -5.1744    1.7484 C.ar    1  LIG1       -0.0513
      5 C          -4.0519    0.8705   -2.5465 C.ar    1  LIG1       -0.0382
      6 C          -1.5048   -0.2471   -2.7607 C.ar    1  LIG1       -0.0299
      7 C         -14.4179   -3.3518    1.7316 C.ar    1  LIG1       -0.0428
      8 C         -13.6201   -5.6289    1.8565 C.ar    1  LIG1       -0.0428
      9 C         -10.1897   -2.1024    1.9672 C.ar    1  LIG1       -0.0059
     10 C         -12.0475   -3.8087    1.6319 C.ar    1  LIG1        0.0019
     11 C          -3.7492   -0.3104   -1.8687 C.ar    1  LIG1        0.0594
     12 C          -2.4756   -0.8693   -1.9758 C.ar    1  LIG1        0.0957
     13 C         -14.6761   -4.7176    1.8481 C.ar    1  LIG1        0.0406
     14 C         -10.6912   -3.3397    1.5206 C.ar    1  LIG1        0.0905
     15 C          -8.8575   -2.1313    1.6338 C.ar    1  LIG1        0.1124
     16 C          -7.8433   -1.1392    1.8450 C.2     1  LIG1        0.2616
     17 C          -6.1196   -0.7606   -1.4764 C.3     1  LIG1        0.0275
     18 C          -7.0312   -1.4986   -0.4997 C.3     1  LIG1        0.0306
     19 C          -4.3938   -1.2514    0.2880 C.3     1  LIG1        0.0300
     20 C          -5.4444   -0.6892    1.2601 C.3     1  LIG1        0.0386
     21 C          -5.3506    0.8354    1.3876 C.3     1  LIG1       -0.0449
     22 C          -0.8340   -2.5200   -1.4900 C.3     1  LIG1        0.0423
     23 N          -9.7540   -4.0992    0.9471 N.ar    1  LIG1       -0.1834
     24 N          -8.6503   -3.3371    1.0310 N.ar    1  LIG1       -0.2326
     25 N          -4.7122   -0.9111   -1.1010 N.pl3   1  LIG1       -0.3252
     26 N          -6.8055   -1.1101    0.8970 N.am    1  LIG1       -0.2908
     27 O          -7.8998   -0.3804    2.8111 O.2     1  LIG1       -0.2701
     28 O          -2.1599   -2.0225   -1.3219 O.3     1  LIG1       -0.3473
     29 CL        -16.2975   -5.2794    1.9803 Cl      1  LIG1       -0.0843
     30 H          -3.3169    2.4118   -3.8596 H       1  LIG1        0.0623
     31 H          -1.0516    1.4186   -4.0491 H       1  LIG1        0.0623
     32 H         -12.9197   -1.8291    1.5336 H       1  LIG1        0.0630
     33 H         -11.4933   -5.8972    1.7563 H       1  LIG1        0.0630
     34 H          -5.0410    1.3154   -2.4700 H       1  LIG1        0.0643
     35 H          -0.5104   -0.6770   -2.8478 H       1  LIG1        0.0651
     36 H         -15.2308   -2.6304    1.7237 H       1  LIG1        0.0638
     37 H         -13.8063   -6.6961    1.9453 H       1  LIG1        0.0638
     38 H         -10.7184   -1.2998    2.4623 H       1  LIG1        0.0668
     39 H          -6.2989   -1.1479   -2.4873 H       1  LIG1        0.0485
     40 H          -6.3688    0.3065   -1.4944 H       1  LIG1        0.0485
     41 H          -8.0750   -1.3231   -0.7782 H       1  LIG1        0.0486
     42 H          -6.8533   -2.5797   -0.5575 H       1  LIG1        0.0486
     43 H          -3.4000   -0.8697    0.5531 H       1  LIG1        0.0488
     44 H          -4.3599   -2.3446    0.3850 H       1  LIG1        0.0488
     45 H          -5.2270   -1.1025    2.2536 H       1  LIG1        0.0519
     46 H          -5.5589    1.2944    0.4247 H       1  LIG1        0.0250
     47 H          -4.3504    1.1123    1.7106 H       1  LIG1        0.0250
     48 H          -6.0756    1.1844    2.1184 H       1  LIG1        0.0250
     49 H          -0.7148   -3.4424   -0.9165 H       1  LIG1        0.0535
     50 H          -0.1164   -1.7701   -1.1475 H       1  LIG1        0.0535
     51 H          -0.6637   -2.7274   -2.5490 H       1  LIG1        0.0535
     52 H          -7.7854   -3.7052    0.6546 H       1  LIG1        0.1757
@<TRIPOS>BOND
     1     1     2   ar
     2     1     5   ar
     3     2     6   ar
     4     3     7   ar
     5     3    10   ar
     6     4     8   ar
     7     4    10   ar
     8     5    11   ar
     9     6    12   ar
    10     7    13   ar
    11     8    13   ar
    12     9    14   ar
    13     9    15   ar
    14    10    14    1
    15    11    12   ar
    16    11    25    1
    17    12    28    1
    18    13    29    1
    19    14    23   ar
    20    15    16    1
    21    15    24   ar
    22    16    26   am
    23    16    27    2
    24    17    18    1
    25    17    25    1
    26    18    26    1
    27    19    20    1
    28    19    25    1
    29    20    21    1
    30    20    26    1
    31    22    28    1
    32    23    24   ar
    33     1    30    1
    34     2    31    1
    35     3    32    1
    36     4    33    1
    37     5    34    1
    38     6    35    1
    39     7    36    1
    40     8    37    1
    41     9    38    1
    42    17    39    1
    43    17    40    1
    44    18    41    1
    45    18    42    1
    46    19    43    1
    47    19    44    1
    48    20    45    1
    49    21    46    1
    50    21    47    1
    51    21    48    1
    52    22    49    1
    53    22    50    1
    54    22    51    1
    55    24    52    1
