@<TRIPOS>MOLECULE
ChEBML348370
 46 50 0 0 0
SMALL
USER_CHARGES

@<TRIPOS>ATOM
      1 C         -18.3487   -6.7259    2.0985 C.ar    1  LIG1       -0.0622
      2 C         -18.0353   -5.9332    0.9944 C.ar    1  LIG1       -0.0619
      3 C         -17.4401   -6.8480    3.1499 C.ar    1  LIG1       -0.0619
      4 C         -16.8132   -5.2628    0.9416 C.ar    1  LIG1       -0.0567
      5 C         -16.2180   -6.1777    3.0970 C.ar    1  LIG1       -0.0567
      6 C         -10.0583   -5.3225    0.4711 C.ar    1  LIG1       -0.0376
      7 C          -3.6545   -2.2539   -0.9166 C.ar    1  LIG1       -0.0373
      8 C         -11.3675   -5.7951    0.6001 C.ar    1  LIG1       -0.0299
      9 C          -2.8565   -1.5590   -1.8299 C.ar    1  LIG1       -0.0244
     10 C         -12.0631   -3.7410    1.6926 C.ar    1  LIG1       -0.0226
     11 C          -4.2487    0.4205   -1.6286 C.ar    1  LIG1       -0.0171
     12 C         -10.1132   -2.0273    1.9489 C.ar    1  LIG1       -0.0275
     13 C          -6.2328    0.0907    0.0324 C.ar    1  LIG1       -0.0275
     14 C         -10.7502   -3.2432    1.5738 C.ar    1  LIG1        0.0003
     15 C          -5.0677   -0.2598   -0.7056 C.ar    1  LIG1        0.0007
     16 C         -15.9046   -5.3850    1.9928 C.ar    1  LIG1       -0.0218
     17 C          -9.7801   -4.0439    0.9671 C.ar    1  LIG1        0.0379
     18 C          -4.7524   -1.5787   -0.3716 C.ar    1  LIG1        0.0380
     19 C         -12.3560   -5.0183    1.2010 C.ar    1  LIG1        0.0762
     20 C          -3.1472   -0.2424   -2.1819 C.ar    1  LIG1        0.1235
     21 C          -8.7932   -2.1119    1.5701 C.ar    1  LIG1        0.0811
     22 C          -6.5956   -1.0018    0.7859 C.ar    1  LIG1        0.0811
     23 C          -7.7595   -1.1395    1.7348 C.2     1  LIG1        0.2206
     24 C         -14.5897   -4.6643    1.9365 C.3     1  LIG1        0.0784
     25 N          -8.6019   -3.3317    0.9785 N.ar    1  LIG1       -0.3112
     26 N          -5.6965   -2.0036    0.5358 N.ar    1  LIG1       -0.3112
     27 O          -7.7694   -0.3359    2.6962 O.2     1  LIG1       -0.2856
     28 O         -13.6235   -5.5069    1.3122 O.3     1  LIG1       -0.3413
     29 F          -2.3632    0.3978   -3.0603 F       1  LIG1       -0.2069
     30 H         -19.3007   -7.2468    2.1401 H       1  LIG1        0.0622
     31 H         -18.7430   -5.8371    0.1762 H       1  LIG1        0.0623
     32 H         -17.6842   -7.4643    4.0101 H       1  LIG1        0.0623
     33 H         -16.5774   -4.6476    0.0772 H       1  LIG1        0.0626
     34 H         -15.5163   -6.2788    3.9207 H       1  LIG1        0.0626
     35 H          -9.2895   -5.9279    0.0028 H       1  LIG1        0.0643
     36 H          -3.4278   -3.2792   -0.6432 H       1  LIG1        0.0644
     37 H         -11.6103   -6.7860    0.2229 H       1  LIG1        0.0651
     38 H          -1.9963   -2.0548   -2.2729 H       1  LIG1        0.0654
     39 H         -12.8397   -3.1410    2.1592 H       1  LIG1        0.0657
     40 H          -4.4632    1.4469   -1.9116 H       1  LIG1        0.0660
     41 H         -10.5752   -1.1831    2.4435 H       1  LIG1        0.0651
     42 H          -6.7476    1.0420    0.0113 H       1  LIG1        0.0651
     43 H         -14.6766   -3.7349    1.3635 H       1  LIG1        0.0624
     44 H         -14.2449   -4.4074    2.9439 H       1  LIG1        0.0624
     45 H          -7.7245   -3.6646    0.6031 H       1  LIG1        0.1529
     46 H          -5.7201   -2.9235    0.9540 H       1  LIG1        0.1529
@<TRIPOS>BOND
     1     1     2   ar
     2     1     3   ar
     3     2     4   ar
     4     3     5   ar
     5     4    16   ar
     6     5    16   ar
     7     6     8   ar
     8     6    17   ar
     9     7     9   ar
    10     7    18   ar
    11     8    19   ar
    12     9    20   ar
    13    10    14   ar
    14    10    19   ar
    15    11    15   ar
    16    11    20   ar
    17    12    14   ar
    18    12    21   ar
    19    13    15   ar
    20    13    22   ar
    21    14    17   ar
    22    15    18   ar
    23    16    24    1
    24    17    25   ar
    25    18    26   ar
    26    19    28    1
    27    20    29    1
    28    21    23    1
    29    21    25   ar
    30    22    23    1
    31    22    26   ar
    32    23    27    2
    33    24    28    1
    34     1    30    1
    35     2    31    1
    36     3    32    1
    37     4    33    1
    38     5    34    1
    39     6    35    1
    40     7    36    1
    41     8    37    1
    42     9    38    1
    43    10    39    1
    44    11    40    1
    45    12    41    1
    46    13    42    1
    47    24    43    1
    48    24    44    1
    49    25    45    1
    50    26    46    1
