@<TRIPOS>MOLECULE
ChEBML863795
 32 34 0 0 0
SMALL
USER_CHARGES

@<TRIPOS>ATOM
      1 C         -12.3406   -5.2401    0.8341 C.ar    1  LIG1       -0.0615
      2 C         -11.1853   -5.6208    0.1628 C.ar    1  LIG1       -0.0601
      3 C         -12.3182   -4.1190    1.6587 C.ar    1  LIG1       -0.0528
      4 C         -11.0862   -2.2415    2.6377 C.ar    1  LIG1       -0.0504
      5 C         -10.0109   -4.8801    0.3173 C.ar    1  LIG1       -0.0358
      6 C          -9.9042   -1.5270    2.7701 C.ar    1  LIG1       -0.0295
      7 C          -3.1549   -1.3680   -0.8463 C.ar    1  LIG1       -0.0425
      8 C          -2.3126   -1.1647   -1.9774 C.ar    1  LIG1       -0.0354
      9 C         -11.1367   -3.3741    1.8141 C.ar    1  LIG1        0.0002
     10 C          -9.9602   -3.7547    1.1354 C.ar    1  LIG1        0.0712
     11 C          -8.8050   -1.9760    2.0667 C.ar    1  LIG1        0.1360
     12 C          -4.1082   -0.3808   -0.7269 C.ar    1  LIG1        0.0587
     13 C          -2.6544   -0.0299   -2.6796 C.ar    1  LIG1        0.0784
     14 C          -7.5374   -1.2729    2.1620 C.2     1  LIG1        0.3119
     15 C          -5.1713   -0.2275    0.3078 C.2     1  LIG1        0.1953
     16 C          -5.2724   -1.2658    1.4081 C.3     1  LIG1        0.1205
     17 N          -8.8116   -3.0634    1.2619 N.ar    1  LIG1       -0.2420
     18 O          -7.3467   -0.2600    2.8497 O.2     1  LIG1       -0.2588
     19 O          -5.9410    0.7286    0.2500 O.2     1  LIG1       -0.2908
     20 O          -6.5713   -1.8680    1.3965 O.3     1  LIG1       -0.3025
     21 S          -3.9856    0.7850   -1.9753 S.2     1  LIG1       -0.0739
     22 CL         -1.9155    0.5900   -4.0964 Cl      1  LIG1       -0.0764
     23 H         -13.2551   -5.8134    0.7163 H       1  LIG1        0.0623
     24 H         -11.1941   -6.4945   -0.4824 H       1  LIG1        0.0623
     25 H         -13.2281   -3.8294    2.1797 H       1  LIG1        0.0630
     26 H         -11.9682   -1.9101    3.1811 H       1  LIG1        0.0630
     27 H          -9.1191   -5.1990   -0.2191 H       1  LIG1        0.0645
     28 H          -9.8584   -0.6500    3.4064 H       1  LIG1        0.0648
     29 H          -3.0617   -2.1984   -0.1576 H       1  LIG1        0.0636
     30 H          -1.4981   -1.8210   -2.2571 H       1  LIG1        0.0644
     31 H          -5.1378   -0.7855    2.3810 H       1  LIG1        0.0661
     32 H          -4.5264   -2.0516    1.2622 H       1  LIG1        0.0661
@<TRIPOS>BOND
     1     1     2   ar
     2     1     3   ar
     3     2     5   ar
     4     3     9   ar
     5     4     6   ar
     6     4     9   ar
     7     5    10   ar
     8     6    11   ar
     9     7     8   ar
    10     7    12   ar
    11     8    13   ar
    12     9    10   ar
    13    10    17   ar
    14    11    14    1
    15    11    17   ar
    16    12    15    1
    17    12    21   ar
    18    13    21   ar
    19    13    22    1
    20    14    18    2
    21    14    20    1
    22    15    16    1
    23    15    19    2
    24    16    20    1
    25     1    23    1
    26     2    24    1
    27     3    25    1
    28     4    26    1
    29     5    27    1
    30     6    28    1
    31     7    29    1
    32     8    30    1
    33    16    31    1
    34    16    32    1
