@<TRIPOS>MOLECULE
ChEBML471903
 39 42 0 0 0
SMALL
USER_CHARGES

@<TRIPOS>ATOM
      1 C          -3.4498    1.6188   -2.7558 C.ar    1  LIG1       -0.0603
      2 C          -2.1461    1.3154   -3.1482 C.ar    1  LIG1       -0.0606
      3 C         -11.5833   -6.0712    0.0677 C.ar    1  LIG1       -0.0482
      4 C         -12.5556   -4.1367    1.1399 C.ar    1  LIG1       -0.0482
      5 C          -4.2057    0.6761   -2.0591 C.ar    1  LIG1       -0.0392
      6 C         -10.3131   -5.5136    0.2136 C.ar    1  LIG1       -0.0402
      7 C         -11.2853   -3.5791    1.2857 C.ar    1  LIG1       -0.0402
      8 C          -1.5983    0.0694   -2.8438 C.ar    1  LIG1       -0.0416
      9 C          -8.6396   -0.7653    3.0458 C.ar    1  LIG1        0.1187
     10 C         -12.7046   -5.3827    0.5308 C.ar    1  LIG1        0.0556
     11 C          -7.2752   -1.8759    1.0447 C.ar    1  LIG1        0.1389
     12 C         -10.1641   -4.2677    0.8226 C.ar    1  LIG1        0.0314
     13 C          -3.6579   -0.5701   -1.7547 C.ar    1  LIG1        0.0507
     14 C          -2.3542   -0.8735   -2.1470 C.ar    1  LIG1        0.0619
     15 C          -8.4285   -2.4932    1.5313 C.ar    1  LIG1        0.1523
     16 C          -6.9044   -0.6857    1.6571 C.ar    1  LIG1        0.1347
     17 C          -5.4632   -1.4167   -0.1153 C.ar    1  LIG1        0.1640
     18 C         -14.0631   -5.9778    0.3749 C.3     1  LIG1        0.4160
     19 N          -9.1171   -1.9253    2.5464 N.ar    1  LIG1       -0.2190
     20 N          -7.5466   -0.0740    2.6680 N.ar    1  LIG1       -0.2271
     21 N          -6.4381   -2.2893    0.0238 N.ar    1  LIG1       -0.2199
     22 N          -8.8798   -3.7044    0.9720 N.pl3   1  LIG1       -0.2977
     23 N          -4.4654   -1.5238   -1.0327 N.pl3   1  LIG1       -0.2925
     24 F         -14.0591   -7.1986   -0.2379 F       1  LIG1       -0.1661
     25 F         -14.7122   -6.1767    1.5602 F       1  LIG1       -0.1661
     26 F         -14.8963   -5.1962   -0.3720 F       1  LIG1       -0.1661
     27 S          -5.4835   -0.0678    0.9475 S.2     1  LIG1       -0.0317
     28 CL         -1.6372   -2.4042   -1.7907 Cl      1  LIG1       -0.0823
     29 H          -3.8762    2.5891   -2.9930 H       1  LIG1        0.0623
     30 H          -1.5577    2.0497   -3.6907 H       1  LIG1        0.0623
     31 H         -11.6903   -7.0419   -0.4089 H       1  LIG1        0.0629
     32 H         -13.4234   -3.5923    1.5021 H       1  LIG1        0.0629
     33 H          -5.2205    0.9244   -1.7588 H       1  LIG1        0.0643
     34 H          -9.4462   -6.0579   -0.1522 H       1  LIG1        0.0642
     35 H         -11.1810   -2.6074    1.7612 H       1  LIG1        0.0642
     36 H          -0.5808   -0.1511   -3.1567 H       1  LIG1        0.0639
     37 H          -9.2126   -0.3324    3.8586 H       1  LIG1        0.1063
     38 H          -8.1345   -4.2875    0.6026 H       1  LIG1        0.1543
     39 H          -4.1923   -2.4876   -1.3013 H       1  LIG1        0.1549
@<TRIPOS>BOND
     1     1     2   ar
     2     1     5   ar
     3     2     8   ar
     4     3     6   ar
     5     3    10   ar
     6     4     7   ar
     7     4    10   ar
     8     5    13   ar
     9     6    12   ar
    10     7    12   ar
    11     8    14   ar
    12     9    19   ar
    13     9    20   ar
    14    10    18    1
    15    11    15   ar
    16    11    16   ar
    17    11    21   ar
    18    12    22    1
    19    13    14   ar
    20    13    23    1
    21    14    28    1
    22    15    19   ar
    23    15    22    1
    24    16    20   ar
    25    16    27   ar
    26    17    21   ar
    27    17    23    1
    28    17    27   ar
    29    18    24    1
    30    18    25    1
    31    18    26    1
    32     1    29    1
    33     2    30    1
    34     3    31    1
    35     4    32    1
    36     5    33    1
    37     6    34    1
    38     7    35    1
    39     8    36    1
    40     9    37    1
    41    22    38    1
    42    23    39    1
