@<TRIPOS>MOLECULE
ChEBML418031
 62 66 0 0 0
SMALL
USER_CHARGES

@<TRIPOS>ATOM
      1 C          -3.8997    3.1611   -3.0505 C.ar    1  LIG1       -0.0600
      2 C          -4.9143    2.7626   -2.1772 C.ar    1  LIG1       -0.0602
      3 C          -2.7845    2.3456   -3.2808 C.ar    1  LIG1       -0.0344
      4 C          -4.8529    1.5381   -1.5036 C.ar    1  LIG1       -0.0383
      5 C         -10.2567   -5.3963    1.1067 C.ar    1  LIG1       -0.0376
      6 C         -11.6214   -5.6596    0.9584 C.ar    1  LIG1       -0.0299
      7 C         -12.1688   -3.3175    1.2931 C.ar    1  LIG1       -0.0226
      8 C         -10.0583   -1.8382    1.6952 C.ar    1  LIG1       -0.0261
      9 C         -10.7983   -3.0278    1.4461 C.ar    1  LIG1        0.0004
     10 C          -2.7063    1.1122   -2.6123 C.ar    1  LIG1        0.0864
     11 C          -9.8757   -4.0718    1.3495 C.ar    1  LIG1        0.0380
     12 C          -3.7332    0.7425   -1.7483 C.ar    1  LIG1        0.0602
     13 C         -12.5645   -4.6378    1.0498 C.ar    1  LIG1        0.0753
     14 C          -8.7256   -2.1767    1.7444 C.ar    1  LIG1        0.0947
     15 C          -2.1534   -0.8031   -1.8474 C.ar    1  LIG1        0.1019
     16 C          -7.5979   -1.3205    1.9703 C.2     1  LIG1        0.2598
     17 C          -4.2504   -0.5663    1.0128 C.3     1  LIG1       -0.0181
     18 C          -5.4671   -1.6879   -0.9172 C.3     1  LIG1       -0.0181
     19 C          -5.1157   -1.3731    1.9800 C.3     1  LIG1        0.0162
     20 C          -6.2913   -2.4671    0.1059 C.3     1  LIG1        0.0162
     21 C          -4.0949   -1.3004   -0.3328 C.3     1  LIG1        0.0320
     22 C           0.4380   -1.6992   -3.2280 C.3     1  LIG1       -0.0623
     23 C          -0.0088   -4.0008   -2.3524 C.3     1  LIG1       -0.0623
     24 C         -14.2303   -6.2884    0.6549 C.3     1  LIG1        0.0422
     25 C          -1.4501   -2.0683   -1.5516 C.3     1  LIG1        0.0059
     26 C          -0.6459   -2.6643   -2.7408 C.3     1  LIG1       -0.0403
     27 N          -1.7341    0.1397   -2.6612 N.ar    1  LIG1       -0.2357
     28 N          -8.6255   -3.5259    1.5345 N.ar    1  LIG1       -0.3101
     29 N          -3.3532   -0.4866   -1.2734 N.ar    1  LIG1       -0.2840
     30 N          -6.3974   -1.7112    1.3608 N.am    1  LIG1       -0.2966
     31 O          -7.7109   -0.3100    2.6618 O.2     1  LIG1       -0.2702
     32 O         -13.8881   -4.9262    0.9008 O.3     1  LIG1       -0.3493
     33 H          -3.9764    4.1178   -3.5605 H       1  LIG1        0.0623
     34 H          -5.7685    3.4161   -2.0171 H       1  LIG1        0.0623
     35 H          -2.0021    2.6643   -3.9618 H       1  LIG1        0.0646
     36 H          -5.6414    1.2292   -0.8266 H       1  LIG1        0.0643
     37 H          -9.5231   -6.1923    1.0350 H       1  LIG1        0.0643
     38 H         -11.9441   -6.6808    0.7689 H       1  LIG1        0.0651
     39 H         -12.9103   -2.5263    1.3623 H       1  LIG1        0.0657
     40 H         -10.4619   -0.8427    1.8243 H       1  LIG1        0.0651
     41 H          -4.7126    0.4156    0.8447 H       1  LIG1        0.0302
     42 H          -3.2664   -0.3806    1.4597 H       1  LIG1        0.0302
     43 H          -5.3362   -2.2880   -1.8256 H       1  LIG1        0.0302
     44 H          -6.0126   -0.7812   -1.2108 H       1  LIG1        0.0302
     45 H          -4.6196   -2.3134    2.2473 H       1  LIG1        0.0470
     46 H          -5.2646   -0.8057    2.9038 H       1  LIG1        0.0470
     47 H          -7.2729   -2.6963   -0.3156 H       1  LIG1        0.0470
     48 H          -5.8069   -3.4226    0.3401 H       1  LIG1        0.0470
     49 H          -3.4900   -2.2034   -0.1892 H       1  LIG1        0.0511
     50 H           1.1564   -1.4741   -2.4324 H       1  LIG1        0.0233
     51 H           0.0047   -0.7553   -3.5732 H       1  LIG1        0.0233
     52 H           0.9910   -2.1305   -4.0694 H       1  LIG1        0.0233
     53 H           0.6906   -3.8712   -1.5195 H       1  LIG1        0.0233
     54 H          -0.7678   -4.7294   -2.0474 H       1  LIG1        0.0233
     55 H           0.5504   -4.4246   -3.1932 H       1  LIG1        0.0233
     56 H         -15.3148   -6.3804    0.5561 H       1  LIG1        0.0535
     57 H         -13.8752   -6.9091    1.4814 H       1  LIG1        0.0535
     58 H         -13.7534   -6.6129   -0.2730 H       1  LIG1        0.0535
     59 H          -0.7644   -1.9580   -0.6867 H       1  LIG1        0.0348
     60 H          -2.1871   -2.8253   -1.2162 H       1  LIG1        0.0348
     61 H          -1.3335   -2.8527   -3.5753 H       1  LIG1        0.0301
     62 H          -7.7607   -4.0490    1.5171 H       1  LIG1        0.1529
@<TRIPOS>BOND
     1     1     2   ar
     2     1     3   ar
     3     2     4   ar
     4     3    10   ar
     5     4    12   ar
     6     5     6   ar
     7     5    11   ar
     8     6    13   ar
     9     7     9   ar
    10     7    13   ar
    11     8     9   ar
    12     8    14   ar
    13     9    11   ar
    14    10    12   ar
    15    10    27   ar
    16    11    28   ar
    17    12    29   ar
    18    13    32    1
    19    14    16    1
    20    14    28   ar
    21    15    25    1
    22    15    27   ar
    23    15    29   ar
    24    16    30   am
    25    16    31    2
    26    17    19    1
    27    17    21    1
    28    18    20    1
    29    18    21    1
    30    19    30    1
    31    20    30    1
    32    21    29    1
    33    22    26    1
    34    23    26    1
    35    24    32    1
    36    25    26    1
    37     1    33    1
    38     2    34    1
    39     3    35    1
    40     4    36    1
    41     5    37    1
    42     6    38    1
    43     7    39    1
    44     8    40    1
    45    17    41    1
    46    17    42    1
    47    18    43    1
    48    18    44    1
    49    19    45    1
    50    19    46    1
    51    20    47    1
    52    20    48    1
    53    21    49    1
    54    22    50    1
    55    22    51    1
    56    22    52    1
    57    23    53    1
    58    23    54    1
    59    23    55    1
    60    24    56    1
    61    24    57    1
    62    24    58    1
    63    25    59    1
    64    25    60    1
    65    26    61    1
    66    28    62    1
