@<TRIPOS>MOLECULE
ChEBML198736
 41 43 0 0 0
SMALL
USER_CHARGES

@<TRIPOS>ATOM
      1 C          -1.9977    0.9248   -3.2632 C.ar    1  LIG1       -0.0422
      2 C         -10.7873   -4.6496    0.5839 C.ar    1  LIG1       -0.0339
      3 C         -10.7046   -3.0453    2.3886 C.ar    1  LIG1       -0.0339
      4 C         -12.1266   -4.9082    0.8753 C.ar    1  LIG1        0.0170
      5 C         -12.0440   -3.3039    2.6798 C.ar    1  LIG1        0.0170
      6 C          -1.8309   -0.4374   -3.0405 C.ar    1  LIG1       -0.0384
      7 C          -3.0968    1.5457   -2.6918 C.ar    1  LIG1        0.0292
      8 C         -10.0762   -3.7182    1.3407 C.ar    1  LIG1        0.0344
      9 C         -12.7550   -4.2354    1.9231 C.ar    1  LIG1        0.2632
     10 C          -2.7552   -1.1276   -2.2640 C.ar    1  LIG1        0.0809
     11 C          -3.8202   -0.4148   -1.7372 C.ar    1  LIG1        0.1388
     12 C          -8.1579   -2.2317    1.3627 C.2     1  LIG1        0.3050
     13 C          -4.9452   -0.6539    0.4189 C.3     1  LIG1        0.0289
     14 C          -5.8322   -1.7859   -1.6423 C.3     1  LIG1        0.0289
     15 C          -6.4346   -0.5623    0.7434 C.3     1  LIG1        0.0315
     16 C          -6.6432   -2.6137   -0.6443 C.3     1  LIG1        0.0315
     17 N          -4.0155    0.9086   -1.9318 N.ar    1  LIG1       -0.2398
     18 N          -4.7412   -1.0788   -0.9687 N.pl3   1  LIG1       -0.3115
     19 N          -7.1178   -1.8316    0.5026 N.am    1  LIG1       -0.2824
     20 N          -8.7322   -3.4587    1.0484 N.am    1  LIG1       -0.2690
     21 N         -14.1186   -4.4986    2.2195 N.pl3   1  LIG1        0.1022
     22 O          -8.5270   -1.5518    2.3258 O.2     1  LIG1       -0.2537
     23 O         -14.7399   -5.3401    1.5266 O.2     1  LIG1        0.0314
     24 O         -14.6648   -3.8828    3.1665 O.2     1  LIG1       -0.5803
     25 CL         -2.5332   -2.8147   -1.9979 Cl      1  LIG1       -0.0805
     26 H          -1.2901    1.4830   -3.8654 H       1  LIG1        0.0639
     27 H         -10.3077   -5.1798   -0.2350 H       1  LIG1        0.0645
     28 H         -10.1602   -2.3174    2.9849 H       1  LIG1        0.0645
     29 H         -12.6692   -5.6366    0.2776 H       1  LIG1        0.0695
     30 H         -12.5217   -2.7725    3.4992 H       1  LIG1        0.0695
     31 H          -0.9760   -0.9459   -3.4787 H       1  LIG1        0.0640
     32 H          -3.2726    2.6066   -2.8359 H       1  LIG1        0.0840
     33 H          -4.4786    0.3213    0.6051 H       1  LIG1        0.0485
     34 H          -4.4597   -1.3814    1.0806 H       1  LIG1        0.0485
     35 H          -5.4314   -2.4493   -2.4180 H       1  LIG1        0.0485
     36 H          -6.4876   -1.0561   -2.1348 H       1  LIG1        0.0485
     37 H          -6.5702   -0.2518    1.7847 H       1  LIG1        0.0486
     38 H          -6.9227    0.1893    0.1109 H       1  LIG1        0.0486
     39 H          -7.4993   -3.0606   -1.1605 H       1  LIG1        0.0486
     40 H          -6.0297   -3.4278   -0.2399 H       1  LIG1        0.0486
     41 H          -8.1937   -4.2208    0.6533 H       1  LIG1        0.1573
@<TRIPOS>BOND
     1     1     6   ar
     2     1     7   ar
     3     2     4   ar
     4     2     8   ar
     5     3     5   ar
     6     3     8   ar
     7     4     9   ar
     8     5     9   ar
     9     6    10   ar
    10     7    17   ar
    11     8    20    1
    12     9    21    1
    13    10    11   ar
    14    10    25    1
    15    11    17   ar
    16    11    18    1
    17    12    19   am
    18    12    20   am
    19    12    22    2
    20    13    15    1
    21    13    18    1
    22    14    16    1
    23    14    18    1
    24    15    19    1
    25    16    19    1
    26    21    23    2
    27    21    24    2
    28     1    26    1
    29     2    27    1
    30     3    28    1
    31     4    29    1
    32     5    30    1
    33     6    31    1
    34     7    32    1
    35    13    33    1
    36    13    34    1
    37    14    35    1
    38    14    36    1
    39    15    37    1
    40    15    38    1
    41    16    39    1
    42    16    40    1
    43    20    41    1
