@<TRIPOS>MOLECULE
ChEBML390824
 37 39 0 0 0
SMALL
USER_CHARGES

@<TRIPOS>ATOM
      1 C          -3.6574   -1.6826    0.5497 C.ar    1  LIG1       -0.0622
      2 C          -4.7744   -2.0867   -0.1603 C.ar    1  LIG1       -0.0615
      3 C          -3.7918   -1.1551    1.8219 C.ar    1  LIG1       -0.0615
      4 C          -6.0304   -1.9659    0.3966 C.ar    1  LIG1       -0.0510
      5 C          -5.0424   -1.0237    2.3888 C.ar    1  LIG1       -0.0510
      6 C         -11.4268   -5.3608    0.1472 C.ar    1  LIG1       -0.0531
      7 C         -10.1172   -4.9867    0.1266 C.ar    1  LIG1       -0.0396
      8 C         -11.9649   -3.5240    1.6340 C.ar    1  LIG1       -0.0457
      9 C          -9.9048   -2.0888    2.2413 C.ar    1  LIG1       -0.0276
     10 C         -10.6207   -3.1406    1.6197 C.ar    1  LIG1       -0.0017
     11 C          -6.1734   -1.4344    1.6801 C.ar    1  LIG1        0.0238
     12 C         -12.3664   -4.6378    0.9017 C.ar    1  LIG1       -0.0247
     13 C          -9.6903   -3.8778    0.8569 C.ar    1  LIG1        0.0378
     14 C          -8.6020   -2.1968    1.8630 C.ar    1  LIG1        0.0797
     15 C         -13.7767   -5.0547    0.9127 C.2     1  LIG1       -0.0496
     16 C         -14.1668   -6.1341    0.2033 C.2     1  LIG1        0.0033
     17 C          -7.5165   -1.3015    2.2832 C.2     1  LIG1        0.2066
     18 C         -15.5695   -6.5488    0.2143 C.2     1  LIG1        0.2584
     19 N          -8.4636   -3.2831    1.0206 N.ar    1  LIG1       -0.3112
     20 N         -15.9592   -7.6269   -0.4944 N.am    1  LIG1       -0.1945
     21 O          -7.7224   -0.4503    3.1279 O.2     1  LIG1       -0.2871
     22 O         -16.3850   -5.9200    0.8634 O.2     1  LIG1       -0.2703
     23 O         -17.3171   -8.0283   -0.4837 O.3     1  LIG1       -0.2965
     24 H          -2.6762   -1.7797    0.1089 H       1  LIG1        0.0622
     25 H          -4.6623   -2.4979   -1.1527 H       1  LIG1        0.0623
     26 H          -2.9160   -0.8417    2.3705 H       1  LIG1        0.0623
     27 H          -6.9013   -2.2820   -0.1585 H       1  LIG1        0.0630
     28 H          -5.1463   -0.6082    3.3802 H       1  LIG1        0.0630
     29 H         -11.7461   -6.2217   -0.4214 H       1  LIG1        0.0629
     30 H          -9.4060   -5.5517   -0.4576 H       1  LIG1        0.0643
     31 H         -12.6851   -2.9633    2.2113 H       1  LIG1        0.0636
     32 H         -10.3179   -1.3372    2.8975 H       1  LIG1        0.0651
     33 H         -14.5002   -4.4968    1.4888 H       1  LIG1        0.0631
     34 H         -13.4433   -6.6919   -0.3727 H       1  LIG1        0.0679
     35 H          -7.6349   -3.5777    0.6116 H       1  LIG1        0.1529
     36 H         -15.3094   -8.1279   -1.0117 H       1  LIG1        0.1839
     37 H         -17.3815   -8.8112   -1.0477 H       1  LIG1        0.2427
@<TRIPOS>BOND
     1     1     2   ar
     2     1     3   ar
     3     2     4   ar
     4     3     5   ar
     5     4    11   ar
     6     5    11   ar
     7     6     7   ar
     8     6    12   ar
     9     7    13   ar
    10     8    10   ar
    11     8    12   ar
    12     9    10   ar
    13     9    14   ar
    14    10    13   ar
    15    11    17    1
    16    12    15    1
    17    13    19   ar
    18    14    17    1
    19    14    19   ar
    20    15    16    2
    21    16    18    1
    22    17    21    2
    23    18    20   am
    24    18    22    2
    25    20    23    1
    26     1    24    1
    27     2    25    1
    28     3    26    1
    29     4    27    1
    30     5    28    1
    31     6    29    1
    32     7    30    1
    33     8    31    1
    34     9    32    1
    35    15    33    1
    36    16    34    1
    37    19    35    1
    38    20    36    1
    39    23    37    1
