@<TRIPOS>MOLECULE
ChEBML1027812
 44 46 0 0 0
SMALL
USER_CHARGES

@<TRIPOS>ATOM
      1 C         -12.8856   -5.0506    1.6752 C.ar    1  LIG1       -0.0616
      2 C         -12.1676   -5.7287    0.6947 C.ar    1  LIG1       -0.0616
      3 C          -1.9861   -0.0407   -2.8421 C.ar    1  LIG1       -0.0362
      4 C         -12.3237   -3.9442    2.3130 C.ar    1  LIG1       -0.0544
      5 C         -10.8850   -5.3031    0.3480 C.ar    1  LIG1       -0.0543
      6 C         -10.4528   -2.3901    2.6082 C.ar    1  LIG1       -0.0536
      7 C          -9.1702   -1.9645    2.2616 C.ar    1  LIG1       -0.0490
      8 C          -2.9571   -1.0124   -2.5015 C.ar    1  LIG1       -0.0277
      9 C          -9.0140   -3.7491    0.6432 C.ar    1  LIG1       -0.0418
     10 C          -2.5507    1.1804   -2.5554 C.ar    1  LIG1        0.0458
     11 C         -11.0340   -3.5019    1.9767 C.ar    1  LIG1       -0.0183
     12 C         -10.3039   -4.1914    0.9795 C.ar    1  LIG1       -0.0176
     13 C          -8.4522   -2.6426    1.2811 C.ar    1  LIG1        0.0376
     14 C          -4.0458   -0.3159   -2.0308 C.ar    1  LIG1        0.1069
     15 C          -7.1143   -2.1996    0.9223 C.2     1  LIG1        0.2432
     16 C          -7.0318    0.6373   -2.7892 C.3     1  LIG1       -0.0450
     17 C          -5.9474   -1.3279   -3.8675 C.3     1  LIG1       -0.0450
     18 C          -5.3658   -2.1351   -0.8731 C.3     1  LIG1        0.0597
     19 C          -5.4003   -0.7423   -1.5098 C.3     1  LIG1        0.0401
     20 N          -6.6758   -2.4882   -0.3753 N.am    1  LIG1       -0.3053
     21 N          -6.4478   -0.7325   -2.5806 N.4     1  LIG1        0.2498
     22 O          -6.4004   -1.6106    1.7531 O.2     1  LIG1       -0.2719
     23 O          -3.8060    1.0214   -2.0603 O.2     1  LIG1       -0.3165
     24 H         -13.8835   -5.3835    1.9458 H       1  LIG1        0.0623
     25 H         -12.6058   -6.5897    0.1983 H       1  LIG1        0.0623
     26 H          -0.9984   -0.2092   -3.2463 H       1  LIG1        0.0645
     27 H         -12.9026   -3.4303    3.0776 H       1  LIG1        0.0629
     28 H         -10.3430   -5.8476   -0.4224 H       1  LIG1        0.0629
     29 H         -10.9966   -1.8448    3.3769 H       1  LIG1        0.0629
     30 H          -8.7426   -1.1012    2.7651 H       1  LIG1        0.0631
     31 H          -2.8711   -2.0861   -2.5898 H       1  LIG1        0.0650
     32 H          -8.4430   -4.2729   -0.1219 H       1  LIG1        0.0637
     33 H          -2.2079    2.2010   -2.6421 H       1  LIG1        0.0901
     34 H          -6.2303    1.2930   -3.1343 H       1  LIG1        0.0777
     35 H          -7.8207    0.5535   -3.5392 H       1  LIG1        0.0777
     36 H          -7.4337    0.9784   -1.8332 H       1  LIG1        0.0777
     37 H          -5.1292   -0.7022   -4.2290 H       1  LIG1        0.0777
     38 H          -5.6020   -2.3414   -3.6547 H       1  LIG1        0.0777
     39 H          -6.7773   -1.3367   -4.5765 H       1  LIG1        0.0777
     40 H          -4.6684   -2.1587   -0.0280 H       1  LIG1        0.0530
     41 H          -5.0494   -2.9032   -1.5878 H       1  LIG1        0.0530
     42 H          -5.7578   -0.0124   -0.7730 H       1  LIG1        0.0944
     43 H          -7.2745   -3.0268   -0.9929 H       1  LIG1        0.1499
     44 H          -7.2175   -1.3354   -2.2560 H       1  LIG1        0.2005
@<TRIPOS>BOND
     1     1     2   ar
     2     1     4   ar
     3     2     5   ar
     4     3     8   ar
     5     3    10   ar
     6     4    11   ar
     7     5    12   ar
     8     6     7   ar
     9     6    11   ar
    10     7    13   ar
    11     8    14   ar
    12     9    12   ar
    13     9    13   ar
    14    10    23   ar
    15    11    12   ar
    16    13    15    1
    17    14    19    1
    18    14    23   ar
    19    15    20   am
    20    15    22    2
    21    16    21    1
    22    17    21    1
    23    18    19    1
    24    18    20    1
    25    19    21    1
    26     1    24    1
    27     2    25    1
    28     3    26    1
    29     4    27    1
    30     5    28    1
    31     6    29    1
    32     7    30    1
    33     8    31    1
    34     9    32    1
    35    10    33    1
    36    16    34    1
    37    16    35    1
    38    16    36    1
    39    17    37    1
    40    17    38    1
    41    17    39    1
    42    18    40    1
    43    18    41    1
    44    19    42    1
    45    20    43    1
    46    21    44    1
