@<TRIPOS>MOLECULE
ChEBML369681
 33 34 0 0 0
SMALL
USER_CHARGES

@<TRIPOS>ATOM
      1 C          -2.5420    1.0070   -3.4283 C.ar    1  LIG1       -0.0622
      2 C          -2.1782   -0.3320   -3.2861 C.ar    1  LIG1       -0.0620
      3 C          -3.4261    1.5897   -2.5203 C.ar    1  LIG1       -0.0620
      4 C         -10.7377   -3.0320    1.4413 C.ar    1  LIG1       -0.0463
      5 C          -2.6984   -1.0884   -2.2359 C.ar    1  LIG1       -0.0590
      6 C          -3.9464    0.8333   -1.4701 C.ar    1  LIG1       -0.0590
      7 C          -9.9946   -1.9164    1.9003 C.ar    1  LIG1       -0.0341
      8 C          -9.8344   -4.0015    1.0654 C.ar    1  LIG1       -0.0070
      9 C          -3.5826   -0.5057   -1.3279 C.ar    1  LIG1       -0.0479
     10 C          -8.6598   -2.2383    1.7907 C.ar    1  LIG1        0.0934
     11 C          -7.4787   -1.4076    2.1403 C.2     1  LIG1        0.2572
     12 C          -4.1455   -1.3229   -0.1925 C.3     1  LIG1       -0.0264
     13 C          -4.4644   -0.5027    1.0646 C.3     1  LIG1       -0.0335
     14 C          -5.0009   -1.3230    2.2360 C.3     1  LIG1        0.0117
     15 N          -8.5744   -3.5079    1.2818 N.ar    1  LIG1       -0.3168
     16 N          -6.2349   -1.9903    1.9249 N.am    1  LIG1       -0.3103
     17 O          -7.6518   -0.2857    2.6089 O.2     1  LIG1       -0.2704
     18 H          -2.1358    1.5961   -4.2453 H       1  LIG1        0.0622
     19 H          -1.4889   -0.7857   -3.9924 H       1  LIG1        0.0623
     20 H          -3.7087    2.6324   -2.6300 H       1  LIG1        0.0623
     21 H         -11.8139   -3.1184    1.3891 H       1  LIG1        0.0636
     22 H          -2.4094   -2.1311   -2.1331 H       1  LIG1        0.0625
     23 H          -4.6347    1.2957   -0.7675 H       1  LIG1        0.0625
     24 H         -10.3937   -0.9818    2.2700 H       1  LIG1        0.0645
     25 H          -9.9746   -4.9943    0.6616 H       1  LIG1        0.0789
     26 H          -3.4632   -2.1449    0.0561 H       1  LIG1        0.0316
     27 H          -5.0668   -1.8054   -0.5443 H       1  LIG1        0.0316
     28 H          -5.2065    0.2596    0.7951 H       1  LIG1        0.0286
     29 H          -3.5675    0.0354    1.3951 H       1  LIG1        0.0286
     30 H          -5.2016   -0.6657    3.0880 H       1  LIG1        0.0467
     31 H          -4.2819   -2.0808    2.5610 H       1  LIG1        0.0467
     32 H          -7.7152   -4.0062    1.0939 H       1  LIG1        0.1523
     33 H          -6.1784   -2.9509    1.5910 H       1  LIG1        0.1497
@<TRIPOS>BOND
     1     1     2   ar
     2     1     3   ar
     3     2     5   ar
     4     3     6   ar
     5     4     7   ar
     6     4     8   ar
     7     5     9   ar
     8     6     9   ar
     9     7    10   ar
    10     8    15   ar
    11     9    12    1
    12    10    11    1
    13    10    15   ar
    14    11    16   am
    15    11    17    2
    16    12    13    1
    17    13    14    1
    18    14    16    1
    19     1    18    1
    20     2    19    1
    21     3    20    1
    22     4    21    1
    23     5    22    1
    24     6    23    1
    25     7    24    1
    26     8    25    1
    27    12    26    1
    28    12    27    1
    29    13    28    1
    30    13    29    1
    31    14    30    1
    32    14    31    1
    33    15    32    1
    34    16    33    1
