@<TRIPOS>MOLECULE
ChEBML303105
 58 61 0 0 0
SMALL
USER_CHARGES

@<TRIPOS>ATOM
      1 C          -1.5814    0.1773   -4.0959 C.ar    1  LIG1       -0.0619
      2 C          -2.6202    1.1224   -4.0633 C.ar    1  LIG1       -0.0619
      3 C          -1.4322   -0.7544   -3.0662 C.ar    1  LIG1       -0.0571
      4 C          -3.5257    1.1505   -3.0004 C.ar    1  LIG1       -0.0571
      5 C         -12.1961   -4.1773    2.2167 C.ar    1  LIG1       -0.0255
      6 C         -10.4098   -4.7009    0.1425 C.ar    1  LIG1       -0.0240
      7 C          -2.3341   -0.7187   -2.0176 C.ar    1  LIG1       -0.0258
      8 C          -3.3696    0.2236   -1.9851 C.ar    1  LIG1       -0.0258
      9 C         -11.1263   -3.3016    1.9869 C.ar    1  LIG1       -0.0388
     10 C         -10.2152   -3.5716    0.9511 C.ar    1  LIG1       -0.0246
     11 C         -12.3765   -5.2986    1.4078 C.ar    1  LIG1        0.1051
     12 C         -11.4858   -5.5588    0.3697 C.ar    1  LIG1        0.1051
     13 C          -7.6497   -1.0189    1.9632 C.2     1  LIG1        0.2207
     14 C          -3.9842   -1.6064    1.1394 C.2     1  LIG1        0.2628
     15 C         -10.9260   -2.1074    2.8814 C.3     1  LIG1       -0.0115
     16 C          -2.3915   -1.5947   -0.8111 C.3     1  LIG1        0.0401
     17 C          -4.1946    0.0468   -0.7535 C.3     1  LIG1        0.0401
     18 C          -9.0352   -2.6697    0.6808 C.3     1  LIG1        0.0395
     19 C         -10.1421   -1.0123    2.1692 C.3     1  LIG1        0.0185
     20 C         -14.6485   -5.8452    0.9660 C.3     1  LIG1        0.0424
     21 C         -10.6952   -6.8442   -1.4684 C.3     1  LIG1        0.0424
     22 C          -6.4480   -1.6719    1.3254 C.3     1  LIG1        0.0754
     23 C          -5.1821   -0.9415    1.7324 C.3     1  LIG1        0.0603
     24 N          -3.5495   -1.0845   -0.0670 N.am    1  LIG1       -0.2882
     25 N          -8.8968   -1.5459    1.6186 N.am    1  LIG1       -0.2969
     26 N          -5.0563   -0.9470    3.2147 N.4     1  LIG1        0.2402
     27 O          -7.4842   -0.0785    2.7439 O.2     1  LIG1       -0.2771
     28 O          -3.4452   -2.5531    1.7148 O.2     1  LIG1       -0.2709
     29 O         -13.4272   -6.1328    1.6441 O.3     1  LIG1       -0.3466
     30 O         -11.6516   -6.6503   -0.4282 O.3     1  LIG1       -0.3466
     31 H          -0.8873    0.1724   -4.9321 H       1  LIG1        0.0623
     32 H          -2.7188    1.8386   -4.8747 H       1  LIG1        0.0623
     33 H          -0.6298   -1.4835   -3.0934 H       1  LIG1        0.0626
     34 H          -4.3271    1.8808   -2.9767 H       1  LIG1        0.0626
     35 H         -12.8931   -3.9821    3.0286 H       1  LIG1        0.0654
     36 H          -9.7155   -4.9130   -0.6678 H       1  LIG1        0.0655
     37 H         -11.8939   -1.7034    3.1994 H       1  LIG1        0.0332
     38 H         -10.3841   -2.4354    3.7769 H       1  LIG1        0.0332
     39 H          -2.5691   -2.6434   -1.0676 H       1  LIG1        0.0520
     40 H          -1.4986   -1.4994   -0.1860 H       1  LIG1        0.0520
     41 H          -4.1567    0.9274   -0.1059 H       1  LIG1        0.0520
     42 H          -5.2289   -0.2196   -0.9890 H       1  LIG1        0.0520
     43 H          -8.1231   -3.2735    0.6971 H       1  LIG1        0.0520
     44 H          -9.1406   -2.2298   -0.3180 H       1  LIG1        0.0520
     45 H         -10.7167   -0.6014    1.3298 H       1  LIG1        0.0473
     46 H          -9.9438   -0.1883    2.8622 H       1  LIG1        0.0473
     47 H         -15.4030   -6.5856    1.2429 H       1  LIG1        0.0535
     48 H         -14.4806   -5.8665   -0.1138 H       1  LIG1        0.0535
     49 H         -14.9924   -4.8505    1.2596 H       1  LIG1        0.0535
     50 H         -10.9435   -7.7489   -2.0287 H       1  LIG1        0.0535
     51 H          -9.6964   -6.9344   -1.0340 H       1  LIG1        0.0535
     52 H         -10.7217   -5.9832   -2.1406 H       1  LIG1        0.0535
     53 H          -6.4386   -2.7219    1.6197 H       1  LIG1        0.0428
     54 H          -6.6053   -1.6151    0.2468 H       1  LIG1        0.0428
     55 H          -5.1865    0.1105    1.4287 H       1  LIG1        0.0959
     56 H          -5.8145   -1.4873    3.6412 H       1  LIG1        0.1971
     57 H          -5.0964    0.0071    3.5852 H       1  LIG1        0.1971
     58 H          -4.1660   -1.3641    3.5017 H       1  LIG1        0.1971
@<TRIPOS>BOND
     1     1     2   ar
     2     1     3   ar
     3     2     4   ar
     4     3     7   ar
     5     4     8   ar
     6     5     9   ar
     7     5    11   ar
     8     6    10   ar
     9     6    12   ar
    10     7     8   ar
    11     7    16    1
    12     8    17    1
    13     9    10   ar
    14     9    15    1
    15    10    18    1
    16    11    12   ar
    17    11    29    1
    18    12    30    1
    19    13    22    1
    20    13    25   am
    21    13    27    2
    22    14    23    1
    23    14    24   am
    24    14    28    2
    25    15    19    1
    26    16    24    1
    27    17    24    1
    28    18    25    1
    29    19    25    1
    30    20    29    1
    31    21    30    1
    32    22    23    1
    33    23    26    1
    34     1    31    1
    35     2    32    1
    36     3    33    1
    37     4    34    1
    38     5    35    1
    39     6    36    1
    40    15    37    1
    41    15    38    1
    42    16    39    1
    43    16    40    1
    44    17    41    1
    45    17    42    1
    46    18    43    1
    47    18    44    1
    48    19    45    1
    49    19    46    1
    50    20    47    1
    51    20    48    1
    52    20    49    1
    53    21    50    1
    54    21    51    1
    55    21    52    1
    56    22    53    1
    57    22    54    1
    58    23    55    1
    59    26    56    1
    60    26    57    1
    61    26    58    1
