@<TRIPOS>MOLECULE
ChEBML415762
 46 49 0 0 0
SMALL
USER_CHARGES

@<TRIPOS>ATOM
      1 C         -10.5683   -4.5847   -0.1224 C.ar    1  LIG1       -0.0291
      2 C         -11.7799   -5.1959    0.2140 C.ar    1  LIG1       -0.0409
      3 C         -11.8794   -3.9990    2.3341 C.ar    1  LIG1       -0.0335
      4 C          -9.8108   -2.4265    2.6463 C.ar    1  LIG1       -0.0158
      5 C         -10.6617   -3.3724    2.0162 C.ar    1  LIG1        0.0096
      6 C         -10.0501   -3.6839    0.8061 C.ar    1  LIG1        0.0897
      7 C         -12.4256   -4.9100    1.4196 C.ar    1  LIG1        0.0414
      8 C          -8.7522   -2.2266    1.7908 C.ar    1  LIG1        0.1453
      9 C          -7.5939   -1.3884    1.8949 C.2     1  LIG1        0.2695
     10 C          -3.1300   -1.4734   -0.2499 C.2     1  LIG1        0.2246
     11 C          -1.6397    0.3617   -3.0665 C.3     1  LIG1       -0.0358
     12 C          -3.1046    0.7560   -3.2073 C.3     1  LIG1       -0.0358
     13 C          -1.5585   -0.1285   -1.6292 C.3     1  LIG1        0.0141
     14 C          -3.8255   -0.3164   -2.4026 C.3     1  LIG1        0.0141
     15 C          -5.4278   -1.0116    0.6669 C.3     1  LIG1        0.0316
     16 C          -6.1520   -3.2801    1.0481 C.3     1  LIG1        0.0572
     17 C          -4.5358   -1.9669   -0.1188 C.3     1  LIG1        0.0948
     18 C          -4.6860   -3.2946    0.6283 C.3     1  LIG1        0.0024
     19 N          -6.4620   -1.8616    1.2440 N.am    1  LIG1       -0.2895
     20 N          -2.8740   -0.6908   -1.3611 N.am    1  LIG1       -0.3014
     21 N          -3.8444   -3.3230    1.8590 N.4     1  LIG1        0.2348
     22 O          -7.6224   -0.3281    2.5165 O.2     1  LIG1       -0.2693
     23 O          -2.2856   -1.7618    0.5995 O.2     1  LIG1       -0.2768
     24 O          -8.8879   -2.9849    0.6717 O.2     1  LIG1       -0.3042
     25 CL        -13.9169   -5.6897    1.7916 Cl      1  LIG1       -0.0843
     26 H         -10.0617   -4.8012   -1.0553 H       1  LIG1        0.0651
     27 H         -12.2156   -5.9055   -0.4864 H       1  LIG1        0.0639
     28 H         -12.3814   -3.7773    3.2716 H       1  LIG1        0.0645
     29 H          -9.9562   -1.9514    3.6067 H       1  LIG1        0.0660
     30 H          -1.4098   -0.4592   -3.7567 H       1  LIG1        0.0283
     31 H          -0.9518    1.1862   -3.2712 H       1  LIG1        0.0283
     32 H          -3.2686    1.7407   -2.7530 H       1  LIG1        0.0283
     33 H          -3.4390    0.7980   -4.2477 H       1  LIG1        0.0283
     34 H          -0.7752   -0.8762   -1.4728 H       1  LIG1        0.0469
     35 H          -1.4015    0.6996   -0.9292 H       1  LIG1        0.0469
     36 H          -4.7640    0.0407   -1.9701 H       1  LIG1        0.0469
     37 H          -4.0248   -1.2059   -3.0100 H       1  LIG1        0.0469
     38 H          -4.9014   -0.5060    1.4846 H       1  LIG1        0.0480
     39 H          -5.8843   -0.2457    0.0310 H       1  LIG1        0.0480
     40 H          -6.7948   -3.6416    0.2374 H       1  LIG1        0.0528
     41 H          -6.3647   -3.8595    1.9519 H       1  LIG1        0.0528
     42 H          -4.9377   -2.0829   -1.1336 H       1  LIG1        0.0477
     43 H          -4.4083   -4.1725    0.0388 H       1  LIG1        0.0876
     44 H          -3.6503   -2.3726    2.1835 H       1  LIG1        0.1966
     45 H          -2.9527   -3.7886    1.6730 H       1  LIG1        0.1966
     46 H          -4.3219   -3.8287    2.6092 H       1  LIG1        0.1966
@<TRIPOS>BOND
     1     1     2   ar
     2     1     6   ar
     3     2     7   ar
     4     3     5   ar
     5     3     7   ar
     6     4     5   ar
     7     4     8   ar
     8     5     6   ar
     9     6    24   ar
    10     7    25    1
    11     8     9    1
    12     8    24   ar
    13     9    19   am
    14     9    22    2
    15    10    17    1
    16    10    20   am
    17    10    23    2
    18    11    12    1
    19    11    13    1
    20    12    14    1
    21    13    20    1
    22    14    20    1
    23    15    17    1
    24    15    19    1
    25    16    18    1
    26    16    19    1
    27    17    18    1
    28    18    21    1
    29     1    26    1
    30     2    27    1
    31     3    28    1
    32     4    29    1
    33    11    30    1
    34    11    31    1
    35    12    32    1
    36    12    33    1
    37    13    34    1
    38    13    35    1
    39    14    36    1
    40    14    37    1
    41    15    38    1
    42    15    39    1
    43    16    40    1
    44    16    41    1
    45    17    42    1
    46    18    43    1
    47    21    44    1
    48    21    45    1
    49    21    46    1
