@<TRIPOS>MOLECULE
ChEBML300405
 44 46 0 0 0
SMALL
USER_CHARGES

@<TRIPOS>ATOM
      1 C          -3.9418    1.9903    1.2333 C.1     1  LIG1        0.0815
      2 C         -10.3615   -5.0013    0.3860 C.ar    1  LIG1       -0.0387
      3 C         -11.7304   -5.2266    0.5574 C.ar    1  LIG1       -0.0416
      4 C         -11.9759   -3.1516    1.7948 C.ar    1  LIG1       -0.0343
      5 C          -9.7259   -1.8549    2.0417 C.ar    1  LIG1       -0.0262
      6 C         -10.5981   -2.9031    1.6348 C.ar    1  LIG1       -0.0007
      7 C          -9.8243   -3.8319    0.9355 C.ar    1  LIG1        0.0379
      8 C         -12.5270   -4.3174    1.2505 C.ar    1  LIG1        0.0413
      9 C          -8.4631   -2.1620    1.5902 C.ar    1  LIG1        0.0945
     10 C          -7.2087   -1.3843    1.7606 C.2     1  LIG1        0.2576
     11 C          -4.2366   -1.0041   -0.0904 C.2     1  LIG1        0.2327
     12 C          -1.7996   -0.0834   -3.4976 C.3     1  LIG1       -0.0515
     13 C          -2.9888    0.8461   -3.7558 C.3     1  LIG1       -0.0515
     14 C          -1.9513   -0.5724   -2.0595 C.3     1  LIG1       -0.0344
     15 C          -3.7943    0.8704   -2.4594 C.3     1  LIG1       -0.0344
     16 C          -2.7645    0.5287   -1.3894 C.3     1  LIG1        0.0264
     17 C          -3.0050    0.8854    1.0375 C.3     1  LIG1        0.1021
     18 C          -4.7725   -1.3156    1.2959 C.3     1  LIG1        0.0887
     19 N          -4.6838    2.8682    1.3920 N.1     1  LIG1       -0.1965
     20 N          -8.5325   -3.3561    0.9240 N.ar    1  LIG1       -0.3101
     21 N          -6.0629   -1.9353    1.1954 N.am    1  LIG1       -0.3013
     22 N          -3.3591    0.1040   -0.1554 N.am    1  LIG1       -0.2840
     23 O          -7.2366   -0.3314    2.3922 O.2     1  LIG1       -0.2704
     24 O          -4.5635   -1.6899   -1.0626 O.2     1  LIG1       -0.2755
     25 CL        -14.2109   -4.6292    1.4397 Cl      1  LIG1       -0.0843
     26 H          -9.7423   -5.7104   -0.1534 H       1  LIG1        0.0643
     27 H         -12.1653   -6.1311    0.1373 H       1  LIG1        0.0639
     28 H         -12.5958   -2.4418    2.3361 H       1  LIG1        0.0645
     29 H          -9.9976   -0.9718    2.6045 H       1  LIG1        0.0651
     30 H          -1.7756   -0.9207   -4.2022 H       1  LIG1        0.0267
     31 H          -0.8623    0.4726   -3.6145 H       1  LIG1        0.0267
     32 H          -2.6267    1.8517   -3.9994 H       1  LIG1        0.0267
     33 H          -3.5987    0.5036   -4.5975 H       1  LIG1        0.0267
     34 H          -2.4935   -1.5264   -2.0433 H       1  LIG1        0.0285
     35 H          -0.9847   -0.7336   -1.5721 H       1  LIG1        0.0285
     36 H          -4.2724    1.8396   -2.2862 H       1  LIG1        0.0285
     37 H          -4.5875    0.1130   -2.4984 H       1  LIG1        0.0285
     38 H          -2.1326    1.3984   -1.1740 H       1  LIG1        0.0506
     39 H          -1.9842    1.2535    0.9007 H       1  LIG1        0.0632
     40 H          -3.0142    0.2045    1.8934 H       1  LIG1        0.0632
     41 H          -4.1092   -2.0151    1.8111 H       1  LIG1        0.0567
     42 H          -4.8930   -0.3955    1.8735 H       1  LIG1        0.0567
     43 H          -7.7507   -3.8237    0.4860 H       1  LIG1        0.1529
     44 H          -6.1148   -2.8461    0.7405 H       1  LIG1        0.1503
@<TRIPOS>BOND
     1     1    17    1
     2     1    19    3
     3     2     3   ar
     4     2     7   ar
     5     3     8   ar
     6     4     6   ar
     7     4     8   ar
     8     5     6   ar
     9     5     9   ar
    10     6     7   ar
    11     7    20   ar
    12     8    25    1
    13     9    10    1
    14     9    20   ar
    15    10    21   am
    16    10    23    2
    17    11    18    1
    18    11    22   am
    19    11    24    2
    20    12    13    1
    21    12    14    1
    22    13    15    1
    23    14    16    1
    24    15    16    1
    25    16    22    1
    26    17    22    1
    27    18    21    1
    28     2    26    1
    29     3    27    1
    30     4    28    1
    31     5    29    1
    32    12    30    1
    33    12    31    1
    34    13    32    1
    35    13    33    1
    36    14    34    1
    37    14    35    1
    38    15    36    1
    39    15    37    1
    40    16    38    1
    41    17    39    1
    42    17    40    1
    43    18    41    1
    44    18    42    1
    45    20    43    1
    46    21    44    1
