@<TRIPOS>MOLECULE
ChEBML621634
 56 62 0 0 0
SMALL
USER_CHARGES

@<TRIPOS>ATOM
      1 C          -1.7228   -3.6580    0.4044 C.ar    1  LIG1       -0.0602
      2 C          -2.3226   -3.8296    1.6629 C.ar    1  LIG1       -0.0602
      3 C          -1.5260    0.4426   -3.3793 C.ar    1  LIG1       -0.0572
      4 C          -2.4665    1.1283   -4.1400 C.ar    1  LIG1       -0.0437
      5 C          -2.0659   -2.5782   -0.4188 C.ar    1  LIG1       -0.0381
      6 C          -3.2899   -2.9336    2.1155 C.ar    1  LIG1       -0.0385
      7 C          -1.8974   -0.1117   -2.1594 C.ar    1  LIG1       -0.0208
      8 C         -10.2670   -1.4958    2.0926 C.ar    1  LIG1       -0.0300
      9 C          -8.8696   -3.9528    1.4945 C.ar    1  LIG1       -0.0254
     10 C          -3.7547    1.2309   -3.6404 C.ar    1  LIG1        0.0291
     11 C         -10.9364   -2.6613    1.7229 C.ar    1  LIG1       -0.0397
     12 C         -10.2556   -3.8538    1.4328 C.ar    1  LIG1       -0.0392
     13 C          -8.8671   -1.5751    2.1714 C.ar    1  LIG1        0.0969
     14 C          -2.9976   -1.6670    0.0488 C.ar    1  LIG1        0.0653
     15 C          -3.6147   -1.8734    1.2877 C.ar    1  LIG1        0.0596
     16 C          -8.2307   -2.7766    1.8753 C.ar    1  LIG1        0.1097
     17 C          -3.2110    0.0466   -1.7483 C.ar    1  LIG1        0.1322
     18 C          -6.7903   -1.2758    2.4005 C.ar    1  LIG1        0.1663
     19 C         -12.9616   -4.9157    2.8491 C.2     1  LIG1        0.2440
     20 C         -14.6405   -5.5311    1.4457 C.2     1  LIG1        0.3078
     21 C          -4.5887   -0.0077    0.3514 C.ar    1  LIG1        0.3182
     22 C         -12.4186   -2.8196    1.5451 C.3     1  LIG1        0.0034
     23 C         -11.2082   -4.9419    1.0285 C.3     1  LIG1        0.0034
     24 C         -12.5650   -4.3541    1.4708 C.3     1  LIG1        0.1227
     25 C         -13.8555   -4.5545   -0.7356 C.3     1  LIG1        0.0054
     26 C          -5.4282   -0.7736    2.6376 C.3     1  LIG1        0.0861
     27 N          -4.1527    0.7058   -2.4599 N.ar    1  LIG1       -0.2406
     28 N          -7.9289   -0.6273    2.5046 N.ar    1  LIG1       -0.2241
     29 N         -14.1606   -5.5707    2.7341 N.am    1  LIG1       -0.2373
     30 N          -3.5706   -0.5093   -0.5326 N.ar    1  LIG1       -0.2054
     31 N          -4.5742   -0.8749    1.4718 N.ar    1  LIG1       -0.2447
     32 N         -13.7072   -4.8145    0.6860 N.am    1  LIG1       -0.2732
     33 O         -12.3052   -4.7914    3.8749 O.2     1  LIG1       -0.2746
     34 O         -15.6871   -6.0330    1.0561 O.2     1  LIG1       -0.2535
     35 O          -5.3089    0.9645    0.1663 O.2     1  LIG1       -0.2526
     36 O          -6.8867   -2.5809    2.0236 O.2     1  LIG1       -0.2916
     37 H          -0.9822   -4.3769    0.0634 H       1  LIG1        0.0623
     38 H          -2.0398   -4.6775    2.2809 H       1  LIG1        0.0623
     39 H          -0.5057    0.3411   -3.7365 H       1  LIG1        0.0624
     40 H          -2.1994    1.5679   -5.0942 H       1  LIG1        0.0639
     41 H          -1.5963   -2.4633   -1.3898 H       1  LIG1        0.0643
     42 H          -3.7689   -3.0815    3.0766 H       1  LIG1        0.0643
     43 H          -1.1698   -0.6490   -1.5599 H       1  LIG1        0.0659
     44 H         -10.7998   -0.5766    2.3077 H       1  LIG1        0.0649
     45 H          -8.3309   -4.8627    1.2662 H       1  LIG1        0.0654
     46 H          -4.5261    1.7548   -4.1951 H       1  LIG1        0.0840
     47 H         -12.9679   -2.3857    2.3873 H       1  LIG1        0.0344
     48 H         -12.7210   -2.3202    0.6200 H       1  LIG1        0.0344
     49 H         -11.1424   -5.0875   -0.0536 H       1  LIG1        0.0344
     50 H         -10.9731   -5.8833    1.5360 H       1  LIG1        0.0344
     51 H         -14.3917   -3.6148   -0.8918 H       1  LIG1        0.0434
     52 H         -14.4171   -5.3634   -1.2111 H       1  LIG1        0.0434
     53 H         -12.8737   -4.4828   -1.2112 H       1  LIG1        0.0434
     54 H          -5.4235    0.2909    2.9395 H       1  LIG1        0.0564
     55 H          -4.9120   -1.3179    3.4508 H       1  LIG1        0.0564
     56 H         -14.6354   -6.0284    3.5038 H       1  LIG1        0.1603
@<TRIPOS>BOND
     1     1     2   ar
     2     1     5   ar
     3     2     6   ar
     4     3     4   ar
     5     3     7   ar
     6     4    10   ar
     7     5    14   ar
     8     6    15   ar
     9     7    17   ar
    10     8    11   ar
    11     8    13   ar
    12     9    12   ar
    13     9    16   ar
    14    10    27   ar
    15    11    12   ar
    16    11    22    1
    17    12    23    1
    18    13    16   ar
    19    13    28   ar
    20    14    15   ar
    21    14    30   ar
    22    15    31   ar
    23    16    36   ar
    24    17    27   ar
    25    17    30    1
    26    18    26    1
    27    18    28   ar
    28    18    36   ar
    29    19    24    1
    30    19    29   am
    31    19    33    2
    32    20    29   am
    33    20    32   am
    34    20    34    2
    35    21    30   ar
    36    21    31   ar
    37    21    35    2
    38    22    24    1
    39    23    24    1
    40    24    32    1
    41    25    32    1
    42    26    31    1
    43     1    37    1
    44     2    38    1
    45     3    39    1
    46     4    40    1
    47     5    41    1
    48     6    42    1
    49     7    43    1
    50     8    44    1
    51     9    45    1
    52    10    46    1
    53    22    47    1
    54    22    48    1
    55    23    49    1
    56    23    50    1
    57    25    51    1
    58    25    52    1
    59    25    53    1
    60    26    54    1
    61    26    55    1
    62    29    56    1
