@<TRIPOS>MOLECULE
ChEBML37059
 53 57 0 0 0
SMALL
USER_CHARGES

@<TRIPOS>ATOM
      1 C          -0.8796   -4.3689   -2.1361 C.ar    1  LIG1       -0.0557
      2 C         -10.4784   -5.0765    0.3351 C.ar    1  LIG1       -0.0333
      3 C         -11.7929   -5.4249    0.6577 C.ar    1  LIG1        0.0170
      4 C           0.2986   -4.7112   -2.7995 C.ar    1  LIG1       -0.0230
      5 C         -11.9880   -3.5262    2.1581 C.ar    1  LIG1        0.0265
      6 C           0.0458   -2.1996   -1.6114 C.ar    1  LIG1       -0.0198
      7 C          -8.9816   -0.2551    3.2652 C.ar    1  LIG1        0.1180
      8 C         -10.6639   -3.1549    1.8487 C.ar    1  LIG1        0.0304
      9 C          -1.0061   -3.1131   -1.5420 C.ar    1  LIG1       -0.0397
     10 C          -9.8063   -2.0957    2.2582 C.ar    1  LIG1        0.0991
     11 C          -9.9404   -3.9374    0.9451 C.ar    1  LIG1        0.0405
     12 C          -8.5906   -2.2530    1.6026 C.ar    1  LIG1        0.0981
     13 C         -12.5379   -4.6631    1.5552 C.ar    1  LIG1        0.2638
     14 C           1.3504   -3.7977   -2.8690 C.ar    1  LIG1        0.1583
     15 C           1.2241   -2.5420   -2.2749 C.ar    1  LIG1        0.1586
     16 C          -7.5603   -1.3541    1.8168 C.ar    1  LIG1        0.1460
     17 C          -5.1882   -0.9857    1.9235 C.3     1  LIG1        0.0523
     18 C          -6.3667   -1.1837   -0.2599 C.3     1  LIG1        0.0523
     19 C          -3.8863   -1.4100    1.2573 C.3     1  LIG1       -0.0181
     20 C          -5.0604   -1.6027   -0.9225 C.3     1  LIG1       -0.0181
     21 C          -2.2742   -2.7434   -0.8284 C.3     1  LIG1        0.0117
     22 C          -2.5921   -1.2521   -0.8686 C.3     1  LIG1       -0.0301
     23 N         -10.0412   -1.0763    3.1222 N.ar    1  LIG1       -0.2341
     24 N          -7.7697   -0.3307    2.6724 N.ar    1  LIG1       -0.2194
     25 N          -8.6915   -3.3692    0.8150 N.ar    1  LIG1       -0.3097
     26 N          -6.3247   -1.4967    1.1628 N.pl3   1  LIG1       -0.3037
     27 N         -13.8719   -5.0430    1.8630 N.pl3   1  LIG1        0.1023
     28 N          -3.9031   -0.9777   -0.1869 N.4     1  LIG1        0.2485
     29 O         -14.3542   -6.0637    1.3161 O.2     1  LIG1        0.0314
     30 O         -14.5299   -4.3472    2.6732 O.2     1  LIG1       -0.5803
     31 F           2.4820   -4.1272   -3.5053 F       1  LIG1       -0.2037
     32 F           2.2334   -1.6643   -2.3426 F       1  LIG1       -0.2037
     33 H          -1.6940   -5.0869   -2.0866 H       1  LIG1        0.0626
     34 H          -9.8992   -5.6705   -0.3639 H       1  LIG1        0.0645
     35 H         -12.2273   -6.3076    0.1926 H       1  LIG1        0.0695
     36 H           0.3975   -5.6886   -3.2624 H       1  LIG1        0.0654
     37 H         -12.5698   -2.9321    2.8584 H       1  LIG1        0.0703
     38 H          -0.0436   -1.2184   -1.1532 H       1  LIG1        0.0657
     39 H          -9.1195    0.5772    3.9467 H       1  LIG1        0.1063
     40 H          -5.2007   -1.3760    2.9487 H       1  LIG1        0.0524
     41 H          -5.2390    0.1092    1.9860 H       1  LIG1        0.0524
     42 H          -6.5313   -0.1079   -0.4045 H       1  LIG1        0.0524
     43 H          -7.1933   -1.7129   -0.7500 H       1  LIG1        0.0524
     44 H          -3.0295   -0.9281    1.7394 H       1  LIG1        0.0831
     45 H          -3.7549   -2.4981    1.2759 H       1  LIG1        0.0831
     46 H          -4.9211   -2.6897   -0.8952 H       1  LIG1        0.0831
     47 H          -5.0232   -1.2538   -1.9597 H       1  LIG1        0.0831
     48 H          -3.1074   -3.2871   -1.2931 H       1  LIG1        0.0370
     49 H          -2.2404   -3.0892    0.2129 H       1  LIG1        0.0370
     50 H          -2.7041   -0.9069   -1.9007 H       1  LIG1        0.0818
     51 H          -1.8367   -0.6431   -0.3629 H       1  LIG1        0.0818
     52 H          -7.9560   -3.7281    0.2219 H       1  LIG1        0.1530
     53 H          -4.0364    0.0429   -0.2057 H       1  LIG1        0.2004
@<TRIPOS>BOND
     1     1     4   ar
     2     1     9   ar
     3     2     3   ar
     4     2    11   ar
     5     3    13   ar
     6     4    14   ar
     7     5     8   ar
     8     5    13   ar
     9     6     9   ar
    10     6    15   ar
    11     7    23   ar
    12     7    24   ar
    13     8    10   ar
    14     8    11   ar
    15     9    21    1
    16    10    12   ar
    17    10    23   ar
    18    11    25   ar
    19    12    16   ar
    20    12    25   ar
    21    13    27    1
    22    14    15   ar
    23    14    31    1
    24    15    32    1
    25    16    24   ar
    26    16    26    1
    27    17    19    1
    28    17    26    1
    29    18    20    1
    30    18    26    1
    31    19    28    1
    32    20    28    1
    33    21    22    1
    34    22    28    1
    35    27    29    2
    36    27    30    2
    37     1    33    1
    38     2    34    1
    39     3    35    1
    40     4    36    1
    41     5    37    1
    42     6    38    1
    43     7    39    1
    44    17    40    1
    45    17    41    1
    46    18    42    1
    47    18    43    1
    48    19    44    1
    49    19    45    1
    50    20    46    1
    51    20    47    1
    52    21    48    1
    53    21    49    1
    54    22    50    1
    55    22    51    1
    56    25    52    1
    57    28    53    1
