@<TRIPOS>MOLECULE
ChEBML1066934
 30 32 0 0 0
SMALL
USER_CHARGES

@<TRIPOS>ATOM
      1 C          -4.1706   -0.5911   -1.4165 C.ar    1  LIG1       -0.0435
      2 C          -4.4794   -1.0443   -0.1388 C.ar    1  LIG1       -0.0555
      3 C         -10.2960   -5.2300    0.5645 C.ar    1  LIG1       -0.0373
      4 C         -11.6509   -5.5623    0.6517 C.ar    1  LIG1       -0.0244
      5 C         -12.1403   -3.4994    1.8356 C.ar    1  LIG1       -0.0171
      6 C         -10.0212   -2.0235    2.2042 C.ar    1  LIG1       -0.0279
      7 C          -5.2123   -0.4233   -2.3146 C.ar    1  LIG1        0.0268
      8 C          -6.7706   -1.1119   -0.7732 C.ar    1  LIG1        0.0304
      9 C         -10.7791   -3.1430    1.7600 C.ar    1  LIG1        0.0006
     10 C          -5.8018   -1.3121    0.1970 C.ar    1  LIG1       -0.0218
     11 C          -9.8902   -4.0148    1.1275 C.ar    1  LIG1        0.0380
     12 C         -12.5606   -4.7119    1.2769 C.ar    1  LIG1        0.1235
     13 C          -8.7112   -2.2336    1.8399 C.ar    1  LIG1        0.0750
     14 C          -7.5812   -1.3895    2.0676 C.2     1  LIG1        0.1808
     15 C          -6.1695   -1.8045    1.5753 C.3     1  LIG1        0.0389
     16 N          -6.5090   -0.6729   -2.0248 N.ar    1  LIG1       -0.2644
     17 N          -8.6421   -3.4371    1.1908 N.ar    1  LIG1       -0.3115
     18 O          -7.6900   -0.2879    2.6730 O.2     1  LIG1       -0.2923
     19 F         -13.8535   -5.0578    1.3443 F       1  LIG1       -0.2069
     20 H          -3.1468   -0.3756   -1.7004 H       1  LIG1        0.0639
     21 H          -3.6841   -1.1856    0.5879 H       1  LIG1        0.0627
     22 H          -9.5880   -5.8928    0.0777 H       1  LIG1        0.0644
     23 H         -11.9993   -6.4997    0.2254 H       1  LIG1        0.0654
     24 H         -12.8603   -2.8458    2.3196 H       1  LIG1        0.0660
     25 H         -10.3981   -1.1588    2.7338 H       1  LIG1        0.0651
     26 H          -5.0235   -0.0722   -3.3238 H       1  LIG1        0.0839
     27 H          -7.8194   -1.3039   -0.5692 H       1  LIG1        0.0842
     28 H          -6.1164   -2.8996    1.5845 H       1  LIG1        0.0401
     29 H          -5.4349   -1.4235    2.2945 H       1  LIG1        0.0401
     30 H          -7.7986   -3.8459    0.8124 H       1  LIG1        0.1529
@<TRIPOS>BOND
     1     1     2   ar
     2     1     7   ar
     3     2    10   ar
     4     3     4   ar
     5     3    11   ar
     6     4    12   ar
     7     5     9   ar
     8     5    12   ar
     9     6     9   ar
    10     6    13   ar
    11     7    16   ar
    12     8    10   ar
    13     8    16   ar
    14     9    11   ar
    15    10    15    1
    16    11    17   ar
    17    12    19    1
    18    13    14    1
    19    13    17   ar
    20    14    15    1
    21    14    18    2
    22     1    20    1
    23     2    21    1
    24     3    22    1
    25     4    23    1
    26     5    24    1
    27     6    25    1
    28     7    26    1
    29     8    27    1
    30    15    28    1
    31    15    29    1
    32    17    30    1
