@<TRIPOS>MOLECULE
ChEBML471971
 42 45 0 0 0
SMALL
USER_CHARGES

@<TRIPOS>ATOM
      1 C          -2.1352    1.3088   -3.1509 C.ar    1  LIG1       -0.0615
      2 C          -3.4376    1.6225   -2.7625 C.ar    1  LIG1       -0.0604
      3 C          -1.5972    0.0594   -2.8423 C.ar    1  LIG1       -0.0481
      4 C         -11.5821   -6.0732    0.0685 C.ar    1  LIG1       -0.0482
      5 C         -12.5552   -4.1406    1.1434 C.ar    1  LIG1       -0.0482
      6 C          -4.2020    0.6869   -2.0654 C.ar    1  LIG1       -0.0401
      7 C         -10.3123   -5.5144    0.2136 C.ar    1  LIG1       -0.0402
      8 C         -11.2854   -3.5819    1.2884 C.ar    1  LIG1       -0.0402
      9 C          -8.6406   -0.7671    3.0485 C.ar    1  LIG1        0.1187
     10 C         -12.7037   -5.3861    0.5333 C.ar    1  LIG1        0.0556
     11 C          -2.3615   -0.8762   -2.1452 C.ar    1  LIG1        0.0768
     12 C          -7.2772   -1.8744    1.0450 C.ar    1  LIG1        0.1389
     13 C         -10.1640   -4.2689    0.8236 C.ar    1  LIG1        0.0314
     14 C          -3.6640   -0.5625   -1.7568 C.ar    1  LIG1        0.0441
     15 C          -8.4294   -2.4933    1.5322 C.ar    1  LIG1        0.1523
     16 C          -6.9070   -0.6845    1.6581 C.ar    1  LIG1        0.1347
     17 C          -5.4668   -1.4125   -0.1163 C.ar    1  LIG1        0.1640
     18 C         -14.0617   -5.9824    0.3782 C.3     1  LIG1        0.4160
     19 C          -1.7600   -2.2066   -1.8279 C.3     1  LIG1        0.4178
     20 N          -9.1175   -1.9271    2.5485 N.ar    1  LIG1       -0.2190
     21 N          -7.5487   -0.0743    2.6702 N.ar    1  LIG1       -0.2271
     22 N          -6.4407   -2.2861    0.0228 N.ar    1  LIG1       -0.2199
     23 N          -8.8801   -3.7045    0.9722 N.pl3   1  LIG1       -0.2977
     24 N          -4.4698   -1.5177   -1.0349 N.pl3   1  LIG1       -0.2932
     25 F         -14.0571   -7.2027   -0.2357 F       1  LIG1       -0.1661
     26 F         -14.7094   -6.1831    1.5640 F       1  LIG1       -0.1661
     27 F         -14.8965   -5.2010   -0.3672 F       1  LIG1       -0.1661
     28 F          -0.4798   -2.3473   -2.2800 F       1  LIG1       -0.1660
     29 F          -1.6989   -2.4710   -0.4904 F       1  LIG1       -0.1660
     30 F          -2.4601   -3.2406   -2.3764 F       1  LIG1       -0.1660
     31 S          -5.4873   -0.0645    0.9477 S.2     1  LIG1       -0.0317
     32 H          -1.5401    2.0374   -3.6937 H       1  LIG1        0.0623
     33 H          -3.8564    2.5953   -3.0030 H       1  LIG1        0.0623
     34 H          -0.5814   -0.1752   -3.1495 H       1  LIG1        0.0629
     35 H         -11.6886   -7.0435   -0.4090 H       1  LIG1        0.0629
     36 H         -13.4233   -3.5974    1.5070 H       1  LIG1        0.0629
     37 H          -5.2159    0.9427   -1.7680 H       1  LIG1        0.0642
     38 H          -9.4453   -6.0576   -0.1536 H       1  LIG1        0.0642
     39 H         -11.1815   -2.6105    1.7648 H       1  LIG1        0.0642
     40 H          -9.2133   -0.3355    3.8623 H       1  LIG1        0.1063
     41 H          -8.1346   -4.2865    0.6016 H       1  LIG1        0.1543
     42 H          -4.1961   -2.4810   -1.3047 H       1  LIG1        0.1548
@<TRIPOS>BOND
     1     1     2   ar
     2     1     3   ar
     3     2     6   ar
     4     3    11   ar
     5     4     7   ar
     6     4    10   ar
     7     5     8   ar
     8     5    10   ar
     9     6    14   ar
    10     7    13   ar
    11     8    13   ar
    12     9    20   ar
    13     9    21   ar
    14    10    18    1
    15    11    14   ar
    16    11    19    1
    17    12    15   ar
    18    12    16   ar
    19    12    22   ar
    20    13    23    1
    21    14    24    1
    22    15    20   ar
    23    15    23    1
    24    16    21   ar
    25    16    31   ar
    26    17    22   ar
    27    17    24    1
    28    17    31   ar
    29    18    25    1
    30    18    26    1
    31    18    27    1
    32    19    28    1
    33    19    29    1
    34    19    30    1
    35     1    32    1
    36     2    33    1
    37     3    34    1
    38     4    35    1
    39     5    36    1
    40     6    37    1
    41     7    38    1
    42     8    39    1
    43     9    40    1
    44    23    41    1
    45    24    42    1
