@<TRIPOS>MOLECULE
ChEBML754895
 52 56 0 0 0
SMALL
USER_CHARGES

@<TRIPOS>ATOM
      1 C          -3.7428    1.1469   -3.1250 C.ar    1  LIG1       -0.0394
      2 C          -2.6326   -0.5453   -1.8056 C.ar    1  LIG1       -0.0394
      3 C          -2.5883    1.3072   -3.8909 C.ar    1  LIG1       -0.0417
      4 C          -1.4779   -0.3850   -2.5716 C.ar    1  LIG1       -0.0417
      5 C         -11.6935   -3.7854    2.7679 C.ar    1  LIG1       -0.0177
      6 C         -10.7096   -4.9299    0.3746 C.ar    1  LIG1       -0.0070
      7 C          -8.6511   -0.4396    3.4843 C.ar    1  LIG1        0.1180
      8 C         -10.5358   -3.2577    2.1612 C.ar    1  LIG1        0.0264
      9 C          -9.6465   -2.1917    2.4742 C.ar    1  LIG1        0.0989
     10 C         -10.0710   -3.8412    0.9797 C.ar    1  LIG1        0.0428
     11 C          -8.6685   -2.1482    1.4871 C.ar    1  LIG1        0.0981
     12 C          -3.7650    0.2207   -2.0823 C.ar    1  LIG1        0.0287
     13 C         -12.3415   -4.8740    2.1733 C.ar    1  LIG1        0.1056
     14 C         -11.8555   -5.4358    0.9948 C.ar    1  LIG1        0.1067
     15 C          -1.4558    0.5413   -3.6143 C.ar    1  LIG1        0.0407
     16 C          -7.6636   -1.1981    1.5414 C.ar    1  LIG1        0.1457
     17 C          -5.8993   -0.9169   -1.7494 C.3     1  LIG1        0.0273
     18 C          -4.8383    0.4156    0.0907 C.3     1  LIG1        0.0273
     19 C          -7.1058   -0.9089   -0.8068 C.3     1  LIG1        0.0287
     20 C          -5.3370   -0.7402    0.9625 C.3     1  LIG1        0.0287
     21 C         -14.7110   -4.8214    2.3697 C.3     1  LIG1        0.0424
     22 C         -11.9412   -7.0177   -0.7789 C.3     1  LIG1        0.0424
     23 N          -9.6668   -1.3253    3.5180 N.ar    1  LIG1       -0.2341
     24 N          -7.6621   -0.3243    2.5709 N.ar    1  LIG1       -0.2194
     25 N          -8.9421   -3.1508    0.5948 N.ar    1  LIG1       -0.3096
     26 N          -4.9001    0.0650   -1.3281 N.pl3   1  LIG1       -0.3276
     27 N          -6.6664   -1.1386    0.5529 N.pl3   1  LIG1       -0.3110
     28 O         -13.4610   -5.3799    2.7662 O.3     1  LIG1       -0.3465
     29 O         -12.4974   -6.4970    0.4255 O.3     1  LIG1       -0.3465
     30 CL         -0.0316    0.7394   -4.5597 Cl      1  LIG1       -0.0843
     31 H          -4.6194    1.7495   -3.3480 H       1  LIG1        0.0643
     32 H          -2.6387   -1.2689   -0.9944 H       1  LIG1        0.0643
     33 H          -2.5852    2.0343   -4.6991 H       1  LIG1        0.0639
     34 H          -0.6026   -0.9878   -2.3430 H       1  LIG1        0.0639
     35 H         -12.0788   -3.3523    3.6871 H       1  LIG1        0.0659
     36 H         -10.3275   -5.3647   -0.5435 H       1  LIG1        0.0671
     37 H          -8.6226    0.2754    4.2992 H       1  LIG1        0.1063
     38 H          -5.4320   -1.9093   -1.7484 H       1  LIG1        0.0485
     39 H          -6.2410   -0.7239   -2.7741 H       1  LIG1        0.0485
     40 H          -5.4527    1.3064    0.2757 H       1  LIG1        0.0485
     41 H          -3.8063    0.6588    0.3705 H       1  LIG1        0.0485
     42 H          -7.6208    0.0580   -0.8785 H       1  LIG1        0.0485
     43 H          -7.8127   -1.6869   -1.1191 H       1  LIG1        0.0485
     44 H          -4.6738   -1.6065    0.8479 H       1  LIG1        0.0485
     45 H          -5.2946   -0.4407    2.0172 H       1  LIG1        0.0485
     46 H         -15.5200   -5.3123    2.9161 H       1  LIG1        0.0535
     47 H         -14.8477   -4.9586    1.2941 H       1  LIG1        0.0535
     48 H         -14.7129   -3.7537    2.6019 H       1  LIG1        0.0535
     49 H         -12.5464   -7.8583   -1.1271 H       1  LIG1        0.0535
     50 H         -10.9148   -7.3452   -0.5955 H       1  LIG1        0.0535
     51 H         -11.9407   -6.2326   -1.5387 H       1  LIG1        0.0535
     52 H          -8.3952   -3.3579   -0.2297 H       1  LIG1        0.1530
@<TRIPOS>BOND
     1     1     3   ar
     2     1    12   ar
     3     2     4   ar
     4     2    12   ar
     5     3    15   ar
     6     4    15   ar
     7     5     8   ar
     8     5    13   ar
     9     6    10   ar
    10     6    14   ar
    11     7    23   ar
    12     7    24   ar
    13     8     9   ar
    14     8    10   ar
    15     9    11   ar
    16     9    23   ar
    17    10    25   ar
    18    11    16   ar
    19    11    25   ar
    20    12    26    1
    21    13    14   ar
    22    13    28    1
    23    14    29    1
    24    15    30    1
    25    16    24   ar
    26    16    27    1
    27    17    19    1
    28    17    26    1
    29    18    20    1
    30    18    26    1
    31    19    27    1
    32    20    27    1
    33    21    28    1
    34    22    29    1
    35     1    31    1
    36     2    32    1
    37     3    33    1
    38     4    34    1
    39     5    35    1
    40     6    36    1
    41     7    37    1
    42    17    38    1
    43    17    39    1
    44    18    40    1
    45    18    41    1
    46    19    42    1
    47    19    43    1
    48    20    44    1
    49    20    45    1
    50    21    46    1
    51    21    47    1
    52    21    48    1
    53    22    49    1
    54    22    50    1
    55    22    51    1
    56    25    52    1
