@<TRIPOS>MOLECULE
ChEBML331624
 38 40 0 0 0
SMALL
USER_CHARGES

@<TRIPOS>ATOM
      1 C         -11.4925   -5.4959    0.9209 C.ar    1  LIG1       -0.0480
      2 C         -10.1124   -5.2678    0.9227 C.ar    1  LIG1       -0.0379
      3 C         -11.9484   -3.1889    1.5517 C.ar    1  LIG1       -0.0222
      4 C         -12.3959   -4.4763    1.2294 C.ar    1  LIG1        0.0577
      5 C         -10.5651   -2.9421    1.5585 C.ar    1  LIG1        0.0874
      6 C          -9.6895   -3.9783    1.2467 C.ar    1  LIG1        0.0577
      7 C          -8.6067   -2.1025    1.6978 C.ar    1  LIG1        0.1863
      8 C          -7.5443   -1.1617    1.9021 C.2     1  LIG1        0.2794
      9 C          -6.4016   -1.9944   -0.1848 C.3     1  LIG1        0.0539
     10 C          -5.0514   -0.9910    1.6112 C.3     1  LIG1        0.0539
     11 C          -5.7602   -1.0757   -1.2143 C.3     1  LIG1       -0.0183
     12 C          -4.3779   -0.0595    0.6129 C.3     1  LIG1       -0.0183
     13 C          -3.6356    0.1171   -1.7653 C.3     1  LIG1       -0.0453
     14 C         -13.8615   -4.7611    1.2161 C.3     1  LIG1        0.4161
     15 N          -9.8745   -1.7847    1.8358 N.ar    1  LIG1       -0.2261
     16 N          -8.4439   -3.4128    1.3436 N.ar    1  LIG1       -0.2934
     17 N          -6.3845   -1.3721    1.1452 N.am    1  LIG1       -0.2849
     18 N          -4.3644   -0.7173   -0.7499 N.4     1  LIG1        0.2462
     19 O          -7.6751   -0.2361    2.7011 O.2     1  LIG1       -0.2683
     20 F         -14.1639   -6.0512    0.8869 F       1  LIG1       -0.1661
     21 F         -14.4693   -4.5474    2.4197 F       1  LIG1       -0.1661
     22 F         -14.5374   -3.9853    0.3202 F       1  LIG1       -0.1661
     23 H         -11.8588   -6.4899    0.6730 H       1  LIG1        0.0629
     24 H          -9.4092   -6.0575    0.6835 H       1  LIG1        0.0643
     25 H         -12.6512   -2.3966    1.7914 H       1  LIG1        0.0652
     26 H          -7.4175   -2.2410   -0.5027 H       1  LIG1        0.0525
     27 H          -5.8478   -2.9381   -0.1093 H       1  LIG1        0.0525
     28 H          -4.4706   -1.9130    1.7350 H       1  LIG1        0.0525
     29 H          -5.1056   -0.5046    2.5900 H       1  LIG1        0.0525
     30 H          -5.6672   -1.5772   -2.1829 H       1  LIG1        0.0831
     31 H          -6.3180   -0.1396   -1.3303 H       1  LIG1        0.0831
     32 H          -4.9182    0.8885    0.5128 H       1  LIG1        0.0831
     33 H          -3.3385    0.1330    0.8976 H       1  LIG1        0.0831
     34 H          -4.1793    1.0570   -1.8772 H       1  LIG1        0.0777
     35 H          -2.6246    0.2904   -1.3918 H       1  LIG1        0.0777
     36 H          -3.6172   -0.4397   -2.7042 H       1  LIG1        0.0777
     37 H          -7.5633   -3.8834    1.1814 H       1  LIG1        0.1545
     38 H          -3.8362   -1.5964   -0.6601 H       1  LIG1        0.2001
@<TRIPOS>BOND
     1     1     2   ar
     2     1     4   ar
     3     2     6   ar
     4     3     4   ar
     5     3     5   ar
     6     4    14    1
     7     5     6   ar
     8     5    15   ar
     9     6    16   ar
    10     7     8    1
    11     7    15   ar
    12     7    16   ar
    13     8    17   am
    14     8    19    2
    15     9    11    1
    16     9    17    1
    17    10    12    1
    18    10    17    1
    19    11    18    1
    20    12    18    1
    21    13    18    1
    22    14    20    1
    23    14    21    1
    24    14    22    1
    25     1    23    1
    26     2    24    1
    27     3    25    1
    28     9    26    1
    29     9    27    1
    30    10    28    1
    31    10    29    1
    32    11    30    1
    33    11    31    1
    34    12    32    1
    35    12    33    1
    36    13    34    1
    37    13    35    1
    38    13    36    1
    39    16    37    1
    40    18    38    1
