@<TRIPOS>MOLECULE
ChEBML1140279
 55 59 0 0 0
SMALL
USER_CHARGES

@<TRIPOS>ATOM
      1 C          -2.4544    0.7495   -3.6574 C.ar    1  LIG1       -0.0622
      2 C         -13.2286   -3.4073    1.3648 C.ar    1  LIG1       -0.0615
      3 C          -3.4163    1.4512   -2.9550 C.ar    1  LIG1       -0.0619
      4 C          -2.0673   -0.5075   -3.2320 C.ar    1  LIG1       -0.0619
      5 C         -12.8280   -4.7248    1.1516 C.ar    1  LIG1       -0.0601
      6 C         -12.3130   -2.4317    1.6165 C.ar    1  LIG1       -0.0528
      7 C          -3.9915    0.8957   -1.8275 C.ar    1  LIG1       -0.0561
      8 C          -2.6395   -1.0612   -2.1019 C.ar    1  LIG1       -0.0561
      9 C         -11.5129   -5.0743    1.1881 C.ar    1  LIG1       -0.0358
     10 C          -9.9733   -1.7774    1.9248 C.ar    1  LIG1       -0.0387
     11 C          -8.3156   -3.5218    1.7236 C.ar    1  LIG1        0.0401
     12 C         -10.9465   -2.7566    1.6620 C.ar    1  LIG1        0.0009
     13 C          -8.6408   -2.1725    1.9487 C.ar    1  LIG1        0.0562
     14 C          -3.6051   -0.3617   -1.4025 C.ar    1  LIG1       -0.0161
     15 C         -10.5369   -4.0964    1.4449 C.ar    1  LIG1        0.0702
     16 C          -7.5754   -1.1839    2.2144 C.2     1  LIG1        0.2474
     17 C          -3.8907    2.1135    2.1200 C.3     1  LIG1       -0.0528
     18 C          -4.5174    1.5063    3.3757 C.3     1  LIG1       -0.0515
     19 C          -3.4337    0.9984    1.1751 C.3     1  LIG1       -0.0456
     20 C          -5.7127    0.6304    2.9889 C.3     1  LIG1       -0.0340
     21 C          -5.4745   -1.7692   -0.5732 C.3     1  LIG1       -0.0036
     22 C          -6.1052   -2.3990    0.6718 C.3     1  LIG1        0.0178
     23 C          -4.6413    0.1443    0.7915 C.3     1  LIG1        0.0106
     24 C          -5.2339   -0.4824    2.0579 C.3     1  LIG1        0.0315
     25 C          -4.2321   -0.9673   -0.1733 C.3     1  LIG1        0.0957
     26 N          -9.2385   -4.4176    1.4857 N.ar    1  LIG1       -0.2554
     27 N          -6.3532   -1.3477    1.6705 N.am    1  LIG1       -0.2942
     28 O          -7.8013   -0.2226    2.9234 O.2     1  LIG1       -0.2716
     29 O          -3.2911   -1.8321    0.4661 O.3     1  LIG1       -0.3847
     30 H          -2.0055    1.1832   -4.5388 H       1  LIG1        0.0622
     31 H         -14.2786   -3.1570    1.3296 H       1  LIG1        0.0623
     32 H          -3.7187    2.4333   -3.2874 H       1  LIG1        0.0623
     33 H          -1.3161   -1.0559   -3.7809 H       1  LIG1        0.0623
     34 H         -13.5733   -5.4810    0.9538 H       1  LIG1        0.0623
     35 H         -12.6351   -1.4139    1.7798 H       1  LIG1        0.0630
     36 H          -4.7430    1.4439   -1.2787 H       1  LIG1        0.0626
     37 H          -2.3344   -2.0418   -1.7674 H       1  LIG1        0.0626
     38 H         -11.2203   -6.1002    1.0199 H       1  LIG1        0.0645
     39 H         -10.2519   -0.7485    2.0986 H       1  LIG1        0.0638
     40 H          -7.2795   -3.8256    1.7474 H       1  LIG1        0.0848
     41 H          -3.0325    2.7234    2.4023 H       1  LIG1        0.0267
     42 H          -4.6266    2.7382    1.6138 H       1  LIG1        0.0267
     43 H          -3.7753    0.8985    3.8932 H       1  LIG1        0.0267
     44 H          -4.8531    2.3061    4.0359 H       1  LIG1        0.0267
     45 H          -2.6919    0.3766    1.6764 H       1  LIG1        0.0271
     46 H          -2.9973    1.4369    0.2776 H       1  LIG1        0.0271
     47 H          -6.4595    1.2377    2.4775 H       1  LIG1        0.0286
     48 H          -6.1493    0.1924    3.8865 H       1  LIG1        0.0286
     49 H          -6.1965   -1.1059   -1.0494 H       1  LIG1        0.0316
     50 H          -5.1892   -2.5553   -1.2722 H       1  LIG1        0.0316
     51 H          -7.0480   -2.8746    0.4017 H       1  LIG1        0.0471
     52 H          -5.4261   -3.1434    1.0873 H       1  LIG1        0.0471
     53 H          -5.3906    0.7779    0.3168 H       1  LIG1        0.0355
     54 H          -4.4722   -1.0767    2.5627 H       1  LIG1        0.0510
     55 H          -3.0602   -2.5173   -0.1759 H       1  LIG1        0.2113
@<TRIPOS>BOND
     1     1     3   ar
     2     1     4   ar
     3     2     5   ar
     4     2     6   ar
     5     3     7   ar
     6     4     8   ar
     7     5     9   ar
     8     6    12   ar
     9     7    14   ar
    10     8    14   ar
    11     9    15   ar
    12    10    12   ar
    13    10    13   ar
    14    11    13   ar
    15    11    26   ar
    16    12    15   ar
    17    13    16    1
    18    14    25    1
    19    15    26   ar
    20    16    27   am
    21    16    28    2
    22    17    18    1
    23    17    19    1
    24    18    20    1
    25    19    23    1
    26    20    24    1
    27    21    22    1
    28    21    25    1
    29    22    27    1
    30    23    24    1
    31    23    25    1
    32    24    27    1
    33    25    29    1
    34     1    30    1
    35     2    31    1
    36     3    32    1
    37     4    33    1
    38     5    34    1
    39     6    35    1
    40     7    36    1
    41     8    37    1
    42     9    38    1
    43    10    39    1
    44    11    40    1
    45    17    41    1
    46    17    42    1
    47    18    43    1
    48    18    44    1
    49    19    45    1
    50    19    46    1
    51    20    47    1
    52    20    48    1
    53    21    49    1
    54    21    50    1
    55    22    51    1
    56    22    52    1
    57    23    53    1
    58    24    54    1
    59    29    55    1
