@<TRIPOS>MOLECULE
ChEBML486663
 34 36 0 0 0
SMALL
USER_CHARGES

@<TRIPOS>ATOM
      1 C          -1.7519    0.7587   -3.3380 C.ar    1  LIG1       -0.0621
      2 C          -1.7195   -0.4604   -2.6609 C.ar    1  LIG1       -0.0604
      3 C          -2.8402    1.6165   -3.1782 C.ar    1  LIG1       -0.0604
      4 C         -10.8190   -2.7973    2.5579 C.ar    1  LIG1       -0.0566
      5 C          -2.7753   -0.8216   -1.8241 C.ar    1  LIG1       -0.0407
      6 C          -3.8960    1.2553   -2.3414 C.ar    1  LIG1       -0.0407
      7 C          -9.9245   -1.7609    2.8158 C.ar    1  LIG1       -0.0302
      8 C          -9.3137   -3.6899    0.8805 C.ar    1  LIG1       -0.0494
      9 C          -8.4111   -2.6540    1.1327 C.ar    1  LIG1        0.0067
     10 C         -10.5147   -3.7598    1.5927 C.ar    1  LIG1       -0.0503
     11 C          -3.8636    0.0362   -1.6642 C.ar    1  LIG1        0.0328
     12 C          -8.7314   -1.7041    2.0981 C.ar    1  LIG1        0.0929
     13 C          -7.1487   -2.5350    0.4201 C.ar    1  LIG1       -0.0335
     14 C          -6.3171   -1.5261    0.6959 C.ar    1  LIG1        0.1108
     15 C          -6.6324   -0.5040    1.7162 C.ar    1  LIG1        0.3032
     16 C          -5.0654   -1.4957   -0.0712 C.2     1  LIG1        0.2534
     17 C         -11.4749   -4.8690    1.3220 C.3     1  LIG1       -0.0397
     18 N          -4.9355   -0.3308   -0.8144 N.am    1  LIG1       -0.2811
     19 O          -5.8678    0.4206    1.9685 O.2     1  LIG1       -0.2600
     20 O          -4.2827   -2.4411    0.0017 O.2     1  LIG1       -0.2712
     21 O          -7.8474   -0.6440    2.3816 O.2     1  LIG1       -0.2735
     22 H          -0.9296    1.0407   -3.9891 H       1  LIG1        0.0622
     23 H          -0.8720   -1.1280   -2.7844 H       1  LIG1        0.0623
     24 H          -2.8646    2.5662   -3.7049 H       1  LIG1        0.0623
     25 H         -11.7520   -2.8495    3.1126 H       1  LIG1        0.0626
     26 H          -2.7390   -1.7742   -1.3013 H       1  LIG1        0.0642
     27 H          -4.7390    1.9319   -2.2245 H       1  LIG1        0.0642
     28 H         -10.1596   -1.0117    3.5653 H       1  LIG1        0.0651
     29 H          -9.0877   -4.4454    0.1310 H       1  LIG1        0.0633
     30 H          -6.9190   -3.2872   -0.3283 H       1  LIG1        0.0640
     31 H         -12.1813   -4.5785    0.5351 H       1  LIG1        0.0280
     32 H         -10.9517   -5.7791    1.0018 H       1  LIG1        0.0280
     33 H         -12.0451   -5.1303    2.2229 H       1  LIG1        0.0280
     34 H          -5.6889    0.3512   -0.7539 H       1  LIG1        0.1560
@<TRIPOS>BOND
     1     1     2   ar
     2     1     3   ar
     3     2     5   ar
     4     3     6   ar
     5     4     7   ar
     6     4    10   ar
     7     5    11   ar
     8     6    11   ar
     9     7    12   ar
    10     8     9   ar
    11     8    10   ar
    12     9    12   ar
    13     9    13   ar
    14    10    17    1
    15    11    18    1
    16    12    21   ar
    17    13    14   ar
    18    14    15   ar
    19    14    16    1
    20    15    19    2
    21    15    21   ar
    22    16    18   am
    23    16    20    2
    24     1    22    1
    25     2    23    1
    26     3    24    1
    27     4    25    1
    28     5    26    1
    29     6    27    1
    30     7    28    1
    31     8    29    1
    32    13    30    1
    33    17    31    1
    34    17    32    1
    35    17    33    1
    36    18    34    1
