@<TRIPOS>MOLECULE
ChEBML233320
 44 46 0 0 0
SMALL
USER_CHARGES

@<TRIPOS>ATOM
      1 C          -4.2737   -2.9742    1.1151 C.ar    1  LIG1       -0.0589
      2 C          -5.5307   -2.7435    1.6742 C.ar    1  LIG1       -0.0508
      3 C         -10.2956   -5.1432    0.3934 C.ar    1  LIG1       -0.0376
      4 C          -3.7147   -2.0377    0.2455 C.ar    1  LIG1       -0.0311
      5 C         -11.6243   -5.5382    0.5730 C.ar    1  LIG1       -0.0299
      6 C         -12.0727   -3.6009    1.9670 C.ar    1  LIG1       -0.0226
      7 C          -9.9807   -2.0722    2.2684 C.ar    1  LIG1       -0.0275
      8 C          -5.6696   -0.6401    0.4939 C.ar    1  LIG1       -0.0199
      9 C         -10.7374   -3.1827    1.8004 C.ar    1  LIG1        0.0003
     10 C          -6.2286   -1.5765    1.3636 C.ar    1  LIG1        0.0264
     11 C          -9.8815   -3.9618    1.0190 C.ar    1  LIG1        0.0379
     12 C         -12.5009   -4.7806    1.3472 C.ar    1  LIG1        0.0753
     13 C          -4.4127   -0.8707   -0.0651 C.ar    1  LIG1        0.0860
     14 C          -8.7037   -2.1965    1.7717 C.ar    1  LIG1        0.0797
     15 C          -7.5875   -1.3266    1.9679 C.2     1  LIG1        0.2067
     16 C          -4.1874   -0.1632   -2.2690 C.2     1  LIG1        0.2659
     17 C          -1.4045   -0.4134   -3.3993 C.3     1  LIG1       -0.0649
     18 C         -14.6384   -4.3740    2.3073 C.3     1  LIG1        0.0422
     19 C          -3.5282    0.9085   -3.1088 C.3     1  LIG1        0.0338
     20 C          -2.0102    0.9056   -2.9484 C.3     1  LIG1       -0.0468
     21 N          -8.6537   -3.3391    1.0192 N.ar    1  LIG1       -0.3112
     22 O          -7.6845   -0.2911    2.6670 O.2     1  LIG1       -0.2871
     23 O          -4.8889   -1.0689   -2.6985 O.2     1  LIG1       -0.2661
     24 O          -3.8674    0.0433   -0.9135 O.3     1  LIG1       -0.2782
     25 O         -13.7908   -5.1919    1.5036 O.3     1  LIG1       -0.3493
     26 H          -3.7304   -3.8829    1.3570 H       1  LIG1        0.0624
     27 H          -5.9566   -3.4793    2.3514 H       1  LIG1        0.0630
     28 H          -9.6141   -5.7334   -0.2098 H       1  LIG1        0.0643
     29 H          -2.7352   -2.2230   -0.1867 H       1  LIG1        0.0650
     30 H         -11.9717   -6.4526    0.0975 H       1  LIG1        0.0651
     31 H         -12.7626   -3.0154    2.5686 H       1  LIG1        0.0657
     32 H         -10.3366   -1.2700    2.9013 H       1  LIG1        0.0651
     33 H          -6.2094    0.2719    0.2489 H       1  LIG1        0.0658
     34 H          -1.6529   -0.6220   -4.4450 H       1  LIG1        0.0230
     35 H          -0.3143   -0.3982   -3.3015 H       1  LIG1        0.0230
     36 H          -1.7890   -1.2360   -2.7883 H       1  LIG1        0.0230
     37 H         -15.6374   -4.8145    2.3500 H       1  LIG1        0.0535
     38 H         -14.6893   -3.3696    1.8793 H       1  LIG1        0.0535
     39 H         -14.2243   -4.3170    3.3168 H       1  LIG1        0.0535
     40 H          -3.7896    0.7291   -4.1578 H       1  LIG1        0.0373
     41 H          -3.9310    1.8798   -2.8005 H       1  LIG1        0.0373
     42 H          -1.7445    1.0863   -1.8999 H       1  LIG1        0.0269
     43 H          -1.5708    1.7238   -3.5314 H       1  LIG1        0.0269
     44 H          -7.8356   -3.6794    0.5325 H       1  LIG1        0.1529
@<TRIPOS>BOND
     1     1     2   ar
     2     1     4   ar
     3     2    10   ar
     4     3     5   ar
     5     3    11   ar
     6     4    13   ar
     7     5    12   ar
     8     6     9   ar
     9     6    12   ar
    10     7     9   ar
    11     7    14   ar
    12     8    10   ar
    13     8    13   ar
    14     9    11   ar
    15    10    15    1
    16    11    21   ar
    17    12    25    1
    18    13    24    1
    19    14    15    1
    20    14    21   ar
    21    15    22    2
    22    16    19    1
    23    16    23    2
    24    16    24    1
    25    17    20    1
    26    18    25    1
    27    19    20    1
    28     1    26    1
    29     2    27    1
    30     3    28    1
    31     4    29    1
    32     5    30    1
    33     6    31    1
    34     7    32    1
    35     8    33    1
    36    17    34    1
    37    17    35    1
    38    17    36    1
    39    18    37    1
    40    18    38    1
    41    18    39    1
    42    19    40    1
    43    19    41    1
    44    20    42    1
    45    20    43    1
    46    21    44    1
