@<TRIPOS>MOLECULE
ChEBML622523
 42 45 0 0 0
SMALL
USER_CHARGES

@<TRIPOS>ATOM
      1 C          -1.9719    0.9394   -3.1994 C.ar    1  LIG1       -0.0432
      2 C          -6.4455   -2.6609   -0.4458 C.ar    1  LIG1       -0.0454
      3 C          -1.7228   -0.3734   -2.8146 C.ar    1  LIG1       -0.0462
      4 C         -11.6187   -5.4011    0.7007 C.ar    1  LIG1       -0.0482
      5 C         -12.0685   -3.0754    1.1763 C.ar    1  LIG1       -0.0482
      6 C         -10.2529   -5.1706    0.8653 C.ar    1  LIG1       -0.0402
      7 C         -10.7027   -2.8449    1.3410 C.ar    1  LIG1       -0.0402
      8 C          -5.4778   -2.1361   -1.2843 C.ar    1  LIG1       -0.0332
      9 C          -3.1560    1.5244   -2.7807 C.ar    1  LIG1        0.0276
     10 C          -7.2227   -0.8065    3.0919 C.ar    1  LIG1        0.1197
     11 C          -6.7207   -2.0285    0.7756 C.ar    1  LIG1        0.0598
     12 C         -12.5266   -4.3535    0.8562 C.ar    1  LIG1        0.0556
     13 C          -2.6523   -1.0514   -2.0339 C.ar    1  LIG1        0.0834
     14 C          -9.7949   -3.8925    1.1854 C.ar    1  LIG1        0.0314
     15 C          -4.8281   -0.9974   -0.8579 C.ar    1  LIG1        0.0918
     16 C          -3.8060   -0.3772   -1.6671 C.ar    1  LIG1        0.1009
     17 C          -6.0151   -0.8745    1.1358 C.ar    1  LIG1        0.1646
     18 C          -7.6793   -2.4957    1.6714 C.ar    1  LIG1        0.1346
     19 C         -13.9869   -4.5989    0.6799 C.3     1  LIG1        0.4160
     20 C          -2.3832   -2.4592   -1.6241 C.3     1  LIG1        0.4181
     21 N          -4.0829    0.8977   -2.0218 N.ar    1  LIG1       -0.2539
     22 N          -6.2726   -0.2671    2.2996 N.ar    1  LIG1       -0.2164
     23 N          -7.9544   -1.9020    2.8447 N.ar    1  LIG1       -0.2206
     24 N          -5.0796   -0.3729    0.3180 N.ar    1  LIG1       -0.2262
     25 N          -8.4203   -3.6605    1.3531 N.pl3   1  LIG1       -0.2990
     26 F         -14.2910   -5.8937    0.3687 F       1  LIG1       -0.1661
     27 F         -14.7270   -4.3173    1.7930 F       1  LIG1       -0.1661
     28 F         -14.5292   -3.8451   -0.3205 F       1  LIG1       -0.1661
     29 F          -1.1934   -2.9466   -2.0861 F       1  LIG1       -0.1660
     30 F          -2.3378   -2.6361   -0.2702 F       1  LIG1       -0.1660
     31 F          -3.3340   -3.3289   -2.0748 F       1  LIG1       -0.1660
     32 H          -1.2607    1.4865   -3.8077 H       1  LIG1        0.0639
     33 H          -6.9723   -3.5577   -0.7603 H       1  LIG1        0.0632
     34 H          -0.8017   -0.8581   -3.1267 H       1  LIG1        0.0630
     35 H         -11.9666   -6.3996    0.4503 H       1  LIG1        0.0629
     36 H         -12.7682   -2.2529    1.2977 H       1  LIG1        0.0629
     37 H          -9.5540   -5.9936    0.7404 H       1  LIG1        0.0642
     38 H         -10.3569   -1.8450    1.5897 H       1  LIG1        0.0642
     39 H          -5.2528   -2.6107   -2.2330 H       1  LIG1        0.0646
     40 H          -3.3983    2.5455   -3.0557 H       1  LIG1        0.0840
     41 H          -7.4129   -0.2967    4.0285 H       1  LIG1        0.1064
     42 H          -7.8403   -4.4808    1.2218 H       1  LIG1        0.1543
@<TRIPOS>BOND
     1     1     3   ar
     2     1     9   ar
     3     2     8   ar
     4     2    11   ar
     5     3    13   ar
     6     4     6   ar
     7     4    12   ar
     8     5     7   ar
     9     5    12   ar
    10     6    14   ar
    11     7    14   ar
    12     8    15   ar
    13     9    21   ar
    14    10    22   ar
    15    10    23   ar
    16    11    17   ar
    17    11    18   ar
    18    12    19    1
    19    13    16   ar
    20    13    20    1
    21    14    25    1
    22    15    16    1
    23    15    24   ar
    24    16    21   ar
    25    17    22   ar
    26    17    24   ar
    27    18    23   ar
    28    18    25    1
    29    19    26    1
    30    19    27    1
    31    19    28    1
    32    20    29    1
    33    20    30    1
    34    20    31    1
    35     1    32    1
    36     2    33    1
    37     3    34    1
    38     4    35    1
    39     5    36    1
    40     6    37    1
    41     7    38    1
    42     8    39    1
    43     9    40    1
    44    10    41    1
    45    25    42    1
