@<TRIPOS>MOLECULE
ChEBML513044
 44 46 0 0 0
SMALL
USER_CHARGES

@<TRIPOS>ATOM
      1 C          -2.8569    0.6663   -4.2683 C.ar    1  LIG1       -0.0622
      2 C         -12.4357   -4.7064    0.8409 C.ar    1  LIG1       -0.0615
      3 C          -3.0560   -0.6297   -3.7925 C.ar    1  LIG1       -0.0620
      4 C          -2.2914    1.6346   -3.4388 C.ar    1  LIG1       -0.0620
      5 C         -11.5204   -5.3470    0.0081 C.ar    1  LIG1       -0.0603
      6 C         -12.0386   -3.6395    1.6553 C.ar    1  LIG1       -0.0530
      7 C          -2.6898   -0.9573   -2.4871 C.ar    1  LIG1       -0.0590
      8 C          -1.9251    1.3070   -2.1333 C.ar    1  LIG1       -0.0590
      9 C         -10.1827   -4.9438   -0.0379 C.ar    1  LIG1       -0.0402
     10 C          -9.9620   -2.1975    2.2975 C.ar    1  LIG1       -0.0305
     11 C         -10.6952   -3.2155    1.6259 C.ar    1  LIG1       -0.0025
     12 C          -2.1243    0.0110   -1.6575 C.ar    1  LIG1       -0.0480
     13 C          -9.8001   -3.8761    0.7817 C.ar    1  LIG1        0.0376
     14 C          -8.6603   -2.2589    1.8566 C.ar    1  LIG1        0.0523
     15 C          -1.7283   -0.3424   -0.2460 C.3     1  LIG1       -0.0277
     16 C          -7.4618   -1.4342    2.2234 C.3     1  LIG1        0.0032
     17 C          -2.8438   -0.1263    0.7829 C.3     1  LIG1       -0.0443
     18 C          -4.0653   -1.0178    0.5395 C.3     1  LIG1       -0.0134
     19 C          -5.1538   -0.7407    1.5666 C.3     1  LIG1       -0.0358
     20 N          -8.5725   -3.2742    0.9423 N.ar    1  LIG1       -0.3135
     21 N          -6.3316   -1.5901    1.2670 N.4     1  LIG1        0.2427
     22 H          -3.1410    0.9209   -5.2853 H       1  LIG1        0.0622
     23 H         -13.4701   -5.0386    0.8597 H       1  LIG1        0.0623
     24 H          -3.4953   -1.3841   -4.4387 H       1  LIG1        0.0623
     25 H          -2.1352    2.6435   -3.8092 H       1  LIG1        0.0623
     26 H         -11.8508   -6.1737   -0.6161 H       1  LIG1        0.0623
     27 H         -12.7624   -3.1485    2.2994 H       1  LIG1        0.0629
     28 H          -2.8488   -1.9696   -2.1249 H       1  LIG1        0.0625
     29 H          -1.4854    2.0680   -1.4941 H       1  LIG1        0.0625
     30 H          -9.4709   -5.4436   -0.6862 H       1  LIG1        0.0642
     31 H         -10.3480   -1.4961    3.0250 H       1  LIG1        0.0648
     32 H          -1.3790   -1.3816   -0.2000 H       1  LIG1        0.0316
     33 H          -0.8625    0.2735    0.0299 H       1  LIG1        0.0316
     34 H          -7.7078   -0.3672    2.2481 H       1  LIG1        0.0881
     35 H          -7.0784   -1.7112    3.2113 H       1  LIG1        0.0881
     36 H          -3.1527    0.9262    0.7953 H       1  LIG1        0.0272
     37 H          -2.4371   -0.3471    1.7779 H       1  LIG1        0.0272
     38 H          -3.7664   -2.0721    0.5906 H       1  LIG1        0.0320
     39 H          -4.4628   -0.8437   -0.4673 H       1  LIG1        0.0320
     40 H          -5.4946    0.2981    1.5323 H       1  LIG1        0.0814
     41 H          -4.8329   -0.9903    2.5823 H       1  LIG1        0.0814
     42 H          -7.7299   -3.5459    0.4542 H       1  LIG1        0.1527
     43 H          -6.0431   -2.5794    1.2493 H       1  LIG1        0.1987
     44 H          -6.6685   -1.3831    0.3152 H       1  LIG1        0.1987
@<TRIPOS>BOND
     1     1     3   ar
     2     1     4   ar
     3     2     5   ar
     4     2     6   ar
     5     3     7   ar
     6     4     8   ar
     7     5     9   ar
     8     6    11   ar
     9     7    12   ar
    10     8    12   ar
    11     9    13   ar
    12    10    11   ar
    13    10    14   ar
    14    11    13   ar
    15    12    15    1
    16    13    20   ar
    17    14    16    1
    18    14    20   ar
    19    15    17    1
    20    16    21    1
    21    17    18    1
    22    18    19    1
    23    19    21    1
    24     1    22    1
    25     2    23    1
    26     3    24    1
    27     4    25    1
    28     5    26    1
    29     6    27    1
    30     7    28    1
    31     8    29    1
    32     9    30    1
    33    10    31    1
    34    15    32    1
    35    15    33    1
    36    16    34    1
    37    16    35    1
    38    17    36    1
    39    17    37    1
    40    18    38    1
    41    18    39    1
    42    19    40    1
    43    19    41    1
    44    20    42    1
    45    21    43    1
    46    21    44    1
