@<TRIPOS>MOLECULE
ChEBML311238
 45 47 0 0 0
SMALL
USER_CHARGES

@<TRIPOS>ATOM
      1 C         -10.4814   -5.0188    1.6975 C.ar    1  LIG1       -0.0381
      2 C         -11.0228   -2.6999    1.2893 C.ar    1  LIG1       -0.0381
      3 C         -11.8199   -5.2797    1.9904 C.ar    1  LIG1       -0.0296
      4 C         -12.3614   -2.9609    1.5821 C.ar    1  LIG1       -0.0296
      5 C          -2.7822   -1.1298   -2.2513 C.ar    1  LIG1       -0.0153
      6 C          -2.0427    0.8968   -3.2282 C.ar    1  LIG1        0.0527
      7 C          -1.8547   -0.4557   -3.0259 C.ar    1  LIG1       -0.0274
      8 C         -10.0828   -3.7288    1.3471 C.ar    1  LIG1        0.0341
      9 C         -12.7599   -4.2508    1.9326 C.ar    1  LIG1        0.0848
     10 C          -3.8362   -0.4067   -1.7298 C.ar    1  LIG1        0.1432
     11 C          -8.1659   -2.2404    1.3713 C.2     1  LIG1        0.3050
     12 C          -4.9567   -0.6556    0.4275 C.3     1  LIG1        0.0289
     13 C          -5.8466   -1.7802   -1.6365 C.3     1  LIG1        0.0289
     14 C          -6.4455   -0.5668    0.7552 C.3     1  LIG1        0.0315
     15 C          -6.6548   -2.6128   -0.6403 C.3     1  LIG1        0.0315
     16 C          -0.6919   -1.1658   -3.6222 C.3     1  LIG1       -0.0381
     17 C         -14.9257   -4.8938    1.1527 C.3     1  LIG1        0.5271
     18 N          -3.0838    1.5790   -2.7056 N.ar    1  LIG1       -0.1569
     19 N          -3.9951    0.9166   -1.9438 N.ar    1  LIG1       -0.1352
     20 N          -4.7550   -1.0747   -0.9622 N.pl3   1  LIG1       -0.3112
     21 N          -7.1280   -1.8358    0.5107 N.am    1  LIG1       -0.2824
     22 N          -8.7396   -3.4668    1.0532 N.am    1  LIG1       -0.2690
     23 O          -8.5338   -1.5648    2.3378 O.2     1  LIG1       -0.2537
     24 O         -14.0661   -4.5055    2.2184 O.3     1  LIG1       -0.2541
     25 F         -14.4931   -6.0319    0.5698 F       1  LIG1       -0.1435
     26 F         -14.9247   -3.9192    0.2150 F       1  LIG1       -0.1435
     27 F         -16.1945   -5.0531    1.5853 F       1  LIG1       -0.1435
     28 H          -9.7574   -5.8282    1.7455 H       1  LIG1        0.0643
     29 H         -10.7236   -1.6908    1.0174 H       1  LIG1        0.0643
     30 H         -12.1243   -6.2867    2.2627 H       1  LIG1        0.0651
     31 H         -13.0890   -2.1551    1.5356 H       1  LIG1        0.0651
     32 H          -2.6791   -2.1941   -2.0627 H       1  LIG1        0.0663
     33 H          -1.3561    1.4877   -3.8241 H       1  LIG1        0.0862
     34 H          -4.4907    0.3194    0.6166 H       1  LIG1        0.0485
     35 H          -4.4692   -1.3852    1.0853 H       1  LIG1        0.0485
     36 H          -5.4466   -2.4401   -2.4156 H       1  LIG1        0.0485
     37 H          -6.5037   -1.0491   -2.1248 H       1  LIG1        0.0485
     38 H          -6.5794   -0.2607    1.7980 H       1  LIG1        0.0486
     39 H          -6.9356    0.1868    0.1267 H       1  LIG1        0.0486
     40 H          -7.5114   -3.0585   -1.1565 H       1  LIG1        0.0486
     41 H          -6.0397   -3.4280   -0.2403 H       1  LIG1        0.0486
     42 H          -0.9452   -1.5530   -4.6183 H       1  LIG1        0.0280
     43 H           0.1779   -0.5009   -3.7220 H       1  LIG1        0.0280
     44 H          -0.3714   -2.0102   -2.9955 H       1  LIG1        0.0280
     45 H          -8.2011   -4.2267    0.6540 H       1  LIG1        0.1573
@<TRIPOS>BOND
     1     1     3   ar
     2     1     8   ar
     3     2     4   ar
     4     2     8   ar
     5     3     9   ar
     6     4     9   ar
     7     5     7   ar
     8     5    10   ar
     9     6     7   ar
    10     6    18   ar
    11     7    16    1
    12     8    22    1
    13     9    24    1
    14    10    19   ar
    15    10    20    1
    16    11    21   am
    17    11    22   am
    18    11    23    2
    19    12    14    1
    20    12    20    1
    21    13    15    1
    22    13    20    1
    23    14    21    1
    24    15    21    1
    25    17    24    1
    26    17    25    1
    27    17    26    1
    28    17    27    1
    29    18    19   ar
    30     1    28    1
    31     2    29    1
    32     3    30    1
    33     4    31    1
    34     5    32    1
    35     6    33    1
    36    12    34    1
    37    12    35    1
    38    13    36    1
    39    13    37    1
    40    14    38    1
    41    14    39    1
    42    15    40    1
    43    15    41    1
    44    16    42    1
    45    16    43    1
    46    16    44    1
    47    22    45    1
