@<TRIPOS>MOLECULE
ChEBML367219
 41 43 0 0 0
SMALL
USER_CHARGES

@<TRIPOS>ATOM
      1 C         -13.9914   -5.0872    1.5039 C.1     1  LIG1        0.0998
      2 C          -4.8445    0.9446   -2.9282 C.ar    1  LIG1       -0.0252
      3 C          -2.8482   -0.0412   -1.9899 C.ar    1  LIG1       -0.0252
      4 C          -5.6263    0.0185   -2.2379 C.ar    1  LIG1       -0.0457
      5 C          -3.6301   -0.9674   -1.2995 C.ar    1  LIG1       -0.0457
      6 C         -12.1456   -3.5508    1.8903 C.ar    1  LIG1       -0.0346
      7 C          -9.9958   -2.0971    2.1533 C.ar    1  LIG1       -0.0328
      8 C         -10.3968   -5.2727    0.4801 C.ar    1  LIG1       -0.0266
      9 C         -12.6093   -4.7505    1.3382 C.ar    1  LIG1        0.0649
     10 C         -10.7887   -3.2031    1.7376 C.ar    1  LIG1       -0.0013
     11 C         -11.7466   -5.5966    0.6443 C.ar    1  LIG1        0.0751
     12 C          -9.9473   -4.0703    1.0375 C.ar    1  LIG1        0.0382
     13 C          -3.4554    0.9148   -2.8043 C.ar    1  LIG1        0.1228
     14 C          -5.0192   -0.9375   -1.4236 C.ar    1  LIG1        0.0075
     15 C          -8.7123   -2.3103    1.7062 C.ar    1  LIG1        0.0404
     16 C          -6.3519   -2.2482    2.6043 C.3     1  LIG1       -0.0297
     17 C          -7.0090   -0.9675    0.4614 C.3     1  LIG1        0.0322
     18 C         -12.2350   -6.8814    0.0506 C.3     1  LIG1        0.4173
     19 C          -7.4932   -1.4941    1.8546 C.3     1  LIG1        0.1089
     20 N         -15.1113   -5.3600    1.6382 N.1     1  LIG1       -0.1923
     21 N          -8.6930   -3.5029    1.0340 N.ar    1  LIG1       -0.3154
     22 O          -7.7398   -0.3139    2.6688 O.3     1  LIG1       -0.3832
     23 F          -2.7046    1.8040   -3.4673 F       1  LIG1       -0.2069
     24 F         -11.2606   -7.5858   -0.5926 F       1  LIG1       -0.1661
     25 F         -12.7527   -7.7414    0.9737 F       1  LIG1       -0.1661
     26 F         -13.2210   -6.6866   -0.8694 F       1  LIG1       -0.1661
     27 S          -6.0087   -2.1092   -0.5502 S.3     1  LIG1       -0.1227
     28 H          -5.3166    1.6893   -3.5620 H       1  LIG1        0.0654
     29 H          -1.7667   -0.0644   -1.8942 H       1  LIG1        0.0654
     30 H          -6.7074    0.0577   -2.3470 H       1  LIG1        0.0635
     31 H          -3.1388   -1.7051   -0.6700 H       1  LIG1        0.0635
     32 H         -12.8157   -2.8879    2.4325 H       1  LIG1        0.0644
     33 H         -10.3310   -1.2394    2.7213 H       1  LIG1        0.0647
     34 H          -9.7179   -5.9264   -0.0588 H       1  LIG1        0.0649
     35 H          -5.4375   -1.6568    2.7241 H       1  LIG1        0.0264
     36 H          -6.0880   -3.1849    2.1029 H       1  LIG1        0.0264
     37 H          -6.6836   -2.4898    3.6220 H       1  LIG1        0.0264
     38 H          -7.8689   -0.6658   -0.1464 H       1  LIG1        0.0418
     39 H          -6.3884   -0.0773    0.6186 H       1  LIG1        0.0418
     40 H          -7.8778   -3.9107    0.5970 H       1  LIG1        0.1526
     41 H          -8.0281   -0.6571    3.5196 H       1  LIG1        0.2114
@<TRIPOS>BOND
     1     1     9    1
     2     1    20    3
     3     2     4   ar
     4     2    13   ar
     5     3     5   ar
     6     3    13   ar
     7     4    14   ar
     8     5    14   ar
     9     6     9   ar
    10     6    10   ar
    11     7    10   ar
    12     7    15   ar
    13     8    11   ar
    14     8    12   ar
    15     9    11   ar
    16    10    12   ar
    17    11    18    1
    18    12    21   ar
    19    13    23    1
    20    14    27    1
    21    15    19    1
    22    15    21   ar
    23    16    19    1
    24    17    19    1
    25    17    27    1
    26    18    24    1
    27    18    25    1
    28    18    26    1
    29    19    22    1
    30     2    28    1
    31     3    29    1
    32     4    30    1
    33     5    31    1
    34     6    32    1
    35     7    33    1
    36     8    34    1
    37    16    35    1
    38    16    36    1
    39    16    37    1
    40    17    38    1
    41    17    39    1
    42    21    40    1
    43    22    41    1
