@<TRIPOS>MOLECULE
ChEBML4503
 35 37 0 0 0
SMALL
USER_CHARGES

@<TRIPOS>ATOM
      1 C         -12.4584   -5.1422    1.5306 C.ar    1  LIG1       -0.0615
      2 C         -11.6032   -5.6592    0.5541 C.ar    1  LIG1       -0.0596
      3 C         -12.1034   -4.0098    2.2765 C.ar    1  LIG1       -0.0522
      4 C         -10.3655   -5.0667    0.2867 C.ar    1  LIG1       -0.0306
      5 C         -10.1590   -2.2780    2.5404 C.ar    1  LIG1       -0.0159
      6 C          -1.9839   -0.1328   -3.4825 C.ar    1  LIG1        0.0424
      7 C          -2.3101   -0.6423   -2.2477 C.ar    1  LIG1        0.0150
      8 C          -3.1983    1.3506   -2.5579 C.ar    1  LIG1        0.0865
      9 C         -10.8633   -3.3976    2.0241 C.ar    1  LIG1        0.0081
     10 C         -10.0403   -3.9426    1.0438 C.ar    1  LIG1        0.0896
     11 C          -8.9705   -2.2155    1.8503 C.ar    1  LIG1        0.1451
     12 C          -7.8764   -1.3101    1.9399 C.2     1  LIG1        0.2667
     13 C          -4.9380   -0.6289   -0.3165 C.3     1  LIG1       -0.0213
     14 C          -3.6914    0.2577   -0.3390 C.3     1  LIG1        0.0185
     15 C          -5.5814   -0.6927    1.0642 C.3     1  LIG1        0.0129
     16 N          -2.5396    1.1081   -3.6692 N.ar    1  LIG1       -0.2477
     17 N          -3.0879    0.3195   -1.6669 N.ar    1  LIG1       -0.2967
     18 N          -6.7730   -1.5104    1.0783 N.am    1  LIG1       -0.3096
     19 O          -7.8658   -0.3639    2.7718 O.2     1  LIG1       -0.2695
     20 O          -8.8888   -3.2211    0.9404 O.2     1  LIG1       -0.3042
     21 H         -13.4148   -5.6246    1.7156 H       1  LIG1        0.0623
     22 H         -11.9053   -6.5389   -0.0090 H       1  LIG1        0.0623
     23 H         -12.7785   -3.6191    3.0319 H       1  LIG1        0.0630
     24 H          -9.6979   -5.4619   -0.4696 H       1  LIG1        0.0650
     25 H         -10.4822   -1.6031    3.3207 H       1  LIG1        0.0660
     26 H          -1.3770   -0.5966   -4.2465 H       1  LIG1        0.0854
     27 H          -2.0649   -1.5707   -1.7514 H       1  LIG1        0.0808
     28 H          -3.7667    2.2453   -2.3430 H       1  LIG1        0.1016
     29 H          -4.6805   -1.6408   -0.6545 H       1  LIG1        0.0299
     30 H          -5.6752   -0.2380   -1.0290 H       1  LIG1        0.0299
     31 H          -2.9256   -0.1112    0.3533 H       1  LIG1        0.0473
     32 H          -3.9339    1.2834   -0.0365 H       1  LIG1        0.0473
     33 H          -4.8872   -1.0977    1.8075 H       1  LIG1        0.0467
     34 H          -5.8781    0.3107    1.3860 H       1  LIG1        0.0467
     35 H          -6.7855   -2.3186    0.4647 H       1  LIG1        0.1497
@<TRIPOS>BOND
     1     1     2   ar
     2     1     3   ar
     3     2     4   ar
     4     3     9   ar
     5     4    10   ar
     6     5     9   ar
     7     5    11   ar
     8     6     7   ar
     9     6    16   ar
    10     7    17   ar
    11     8    16   ar
    12     8    17   ar
    13     9    10   ar
    14    10    20   ar
    15    11    12    1
    16    11    20   ar
    17    12    18   am
    18    12    19    2
    19    13    14    1
    20    13    15    1
    21    14    17    1
    22    15    18    1
    23     1    21    1
    24     2    22    1
    25     3    23    1
    26     4    24    1
    27     5    25    1
    28     6    26    1
    29     7    27    1
    30     8    28    1
    31    13    29    1
    32    13    30    1
    33    14    31    1
    34    14    32    1
    35    15    33    1
    36    15    34    1
    37    18    35    1
