@<TRIPOS>MOLECULE
ChEBML199217
 49 51 0 0 0
SMALL
USER_CHARGES

@<TRIPOS>ATOM
      1 C          -2.5239   -2.4876   -2.1247 C.1     1  LIG1        0.1028
      2 C          -2.2341    0.9560   -3.4733 C.ar    1  LIG1       -0.0423
      3 C          -1.9720   -0.3872   -3.2277 C.ar    1  LIG1       -0.0393
      4 C         -11.9794   -2.9646    0.9321 C.ar    1  LIG1       -0.0569
      5 C         -11.6337   -5.3523    0.8032 C.ar    1  LIG1       -0.0569
      6 C         -10.6132   -2.7782    1.1431 C.ar    1  LIG1       -0.0404
      7 C         -10.2676   -5.1659    1.0141 C.ar    1  LIG1       -0.0404
      8 C          -3.3276    1.5290   -2.8442 C.ar    1  LIG1        0.0291
      9 C          -2.7996   -1.1062   -2.3724 C.ar    1  LIG1        0.0923
     10 C         -12.4896   -4.2517    0.7622 C.ar    1  LIG1       -0.0453
     11 C          -9.7573   -3.8789    1.1841 C.ar    1  LIG1        0.0340
     12 C          -3.8677   -0.4409   -1.7925 C.ar    1  LIG1        0.1379
     13 C          -7.8684   -2.4249    1.6402 C.2     1  LIG1        0.3050
     14 C          -4.8288   -0.6860    0.4408 C.3     1  LIG1        0.0289
     15 C          -5.7810   -1.9259   -1.5271 C.3     1  LIG1        0.0289
     16 C          -6.2959   -0.6740    0.8644 C.3     1  LIG1        0.0315
     17 C          -6.4711   -2.7722   -0.4564 C.3     1  LIG1        0.0315
     18 C         -14.6118   -5.2763    1.6565 C.3     1  LIG1       -0.0587
     19 C         -14.2533   -5.0898   -0.8318 C.3     1  LIG1       -0.0587
     20 C         -13.9503   -4.4508    0.5367 C.3     1  LIG1       -0.0219
     21 N          -2.3003   -3.6085   -1.9237 N.1     1  LIG1       -0.1922
     22 N          -4.1540    0.8628   -2.0071 N.ar    1  LIG1       -0.2400
     23 N          -4.6926   -1.1366   -0.9470 N.pl3   1  LIG1       -0.3116
     24 N          -6.9148   -1.9879    0.7015 N.am    1  LIG1       -0.2824
     25 N          -8.3863   -3.6922    1.3954 N.am    1  LIG1       -0.2691
     26 O          -8.2130   -1.7415    2.6099 O.2     1  LIG1       -0.2537
     27 H          -1.6025    1.5362   -4.1362 H       1  LIG1        0.0639
     28 H          -1.1191   -0.8583   -3.7102 H       1  LIG1        0.0638
     29 H         -12.6392   -2.1015    0.9040 H       1  LIG1        0.0626
     30 H         -12.0228   -6.3587    0.6725 H       1  LIG1        0.0626
     31 H         -10.2264   -1.7707    1.2739 H       1  LIG1        0.0642
     32 H          -9.6096   -6.0308    1.0452 H       1  LIG1        0.0642
     33 H          -3.5750    2.5737   -3.0026 H       1  LIG1        0.0840
     34 H          -4.4113    0.3201    0.5711 H       1  LIG1        0.0485
     35 H          -4.2565   -1.3645    1.0847 H       1  LIG1        0.0485
     36 H          -5.3933   -2.5857   -2.3124 H       1  LIG1        0.0485
     37 H          -6.5114   -1.2504   -1.9907 H       1  LIG1        0.0485
     38 H          -6.3801   -0.3432    1.9049 H       1  LIG1        0.0486
     39 H          -6.8703    0.0292    0.2491 H       1  LIG1        0.0486
     40 H          -7.3310   -3.2834   -0.9018 H       1  LIG1        0.0486
     41 H          -5.7832   -3.5368   -0.0757 H       1  LIG1        0.0486
     42 H         -14.1660   -6.2735    1.7394 H       1  LIG1        0.0236
     43 H         -15.6849   -5.4060    1.4781 H       1  LIG1        0.0236
     44 H         -14.4909   -4.7752    2.6234 H       1  LIG1        0.0236
     45 H         -13.7728   -6.0714   -0.9103 H       1  LIG1        0.0236
     46 H         -13.8832   -4.4687   -1.6547 H       1  LIG1        0.0236
     47 H         -15.3293   -5.2318   -0.9811 H       1  LIG1        0.0236
     48 H         -14.4667   -3.4720    0.5356 H       1  LIG1        0.0346
     49 H          -7.8083   -4.5242    1.4165 H       1  LIG1        0.1573
@<TRIPOS>BOND
     1     1     9    1
     2     1    21    3
     3     2     3   ar
     4     2     8   ar
     5     3     9   ar
     6     4     6   ar
     7     4    10   ar
     8     5     7   ar
     9     5    10   ar
    10     6    11   ar
    11     7    11   ar
    12     8    22   ar
    13     9    12   ar
    14    10    20    1
    15    11    25    1
    16    12    22   ar
    17    12    23    1
    18    13    24   am
    19    13    25   am
    20    13    26    2
    21    14    16    1
    22    14    23    1
    23    15    17    1
    24    15    23    1
    25    16    24    1
    26    17    24    1
    27    18    20    1
    28    19    20    1
    29     2    27    1
    30     3    28    1
    31     4    29    1
    32     5    30    1
    33     6    31    1
    34     7    32    1
    35     8    33    1
    36    14    34    1
    37    14    35    1
    38    15    36    1
    39    15    37    1
    40    16    38    1
    41    16    39    1
    42    17    40    1
    43    17    41    1
    44    18    42    1
    45    18    43    1
    46    18    44    1
    47    19    45    1
    48    19    46    1
    49    19    47    1
    50    20    48    1
    51    25    49    1
