@<TRIPOS>MOLECULE
ChEBML232998
 36 38 0 0 0
SMALL
USER_CHARGES

@<TRIPOS>ATOM
      1 C          -4.2732   -2.5361    0.2892 C.ar    1  LIG1       -0.0589
      2 C          -5.4536   -2.3842    1.0167 C.ar    1  LIG1       -0.0508
      3 C         -10.2124   -5.0286    0.3358 C.ar    1  LIG1       -0.0376
      4 C          -3.8880   -1.5576   -0.6273 C.ar    1  LIG1       -0.0318
      5 C         -11.4816   -5.5000    0.6836 C.ar    1  LIG1       -0.0299
      6 C         -11.8405   -3.6107    2.1664 C.ar    1  LIG1       -0.0226
      7 C          -9.8120   -1.9715    2.2171 C.ar    1  LIG1       -0.0275
      8 C          -5.8634   -0.2753   -0.0888 C.ar    1  LIG1       -0.0206
      9 C         -10.5645   -3.1160    1.8311 C.ar    1  LIG1        0.0003
     10 C          -6.2487   -1.2537    0.8277 C.ar    1  LIG1        0.0264
     11 C          -9.7815   -3.8349    0.9254 C.ar    1  LIG1        0.0379
     12 C         -12.2847   -4.8036    1.5845 C.ar    1  LIG1        0.0753
     13 C          -4.6831   -0.4273   -0.8163 C.ar    1  LIG1        0.0753
     14 C          -8.6090   -2.0171    1.5509 C.ar    1  LIG1        0.0797
     15 C          -7.5248   -1.0888    1.6141 C.2     1  LIG1        0.2067
     16 C         -14.2915   -4.5308    2.8313 C.3     1  LIG1        0.0422
     17 C          -3.0890    0.3091   -2.4202 C.3     1  LIG1        0.0422
     18 N          -8.6000   -3.1445    0.7740 N.ar    1  LIG1       -0.3112
     19 O          -7.5818   -0.0704    2.3421 O.2     1  LIG1       -0.2871
     20 O         -13.5178   -5.2888    1.9038 O.3     1  LIG1       -0.3493
     21 O          -4.3073    0.5276   -1.7103 O.3     1  LIG1       -0.3493
     22 H          -3.6543   -3.4162    0.4364 H       1  LIG1        0.0624
     23 H          -5.7440   -3.1519    1.7289 H       1  LIG1        0.0630
     24 H          -9.5880   -5.5712   -0.3660 H       1  LIG1        0.0643
     25 H          -2.9674   -1.6817   -1.1910 H       1  LIG1        0.0650
     26 H         -11.8405   -6.4257    0.2395 H       1  LIG1        0.0651
     27 H         -12.4731   -3.0731    2.8675 H       1  LIG1        0.0657
     28 H         -10.1216   -1.1995    2.9091 H       1  LIG1        0.0651
     29 H          -6.4795    0.6084   -0.2395 H       1  LIG1        0.0658
     30 H         -15.2505   -5.0273    2.9981 H       1  LIG1        0.0535
     31 H         -14.4537   -3.5251    2.4356 H       1  LIG1        0.0535
     32 H         -13.7485   -4.4650    3.7770 H       1  LIG1        0.0535
     33 H          -2.9075    1.1454   -3.0999 H       1  LIG1        0.0535
     34 H          -3.1574   -0.6245   -2.9843 H       1  LIG1        0.0535
     35 H          -2.2674    0.2401   -1.7035 H       1  LIG1        0.0535
     36 H          -7.8383   -3.4314    0.1748 H       1  LIG1        0.1529
@<TRIPOS>BOND
     1     1     2   ar
     2     1     4   ar
     3     2    10   ar
     4     3     5   ar
     5     3    11   ar
     6     4    13   ar
     7     5    12   ar
     8     6     9   ar
     9     6    12   ar
    10     7     9   ar
    11     7    14   ar
    12     8    10   ar
    13     8    13   ar
    14     9    11   ar
    15    10    15    1
    16    11    18   ar
    17    12    20    1
    18    13    21    1
    19    14    15    1
    20    14    18   ar
    21    15    19    2
    22    16    20    1
    23    17    21    1
    24     1    22    1
    25     2    23    1
    26     3    24    1
    27     4    25    1
    28     5    26    1
    29     6    27    1
    30     7    28    1
    31     8    29    1
    32    16    30    1
    33    16    31    1
    34    16    32    1
    35    17    33    1
    36    17    34    1
    37    17    35    1
    38    18    36    1
