@<TRIPOS>MOLECULE
ChEBML1274721
 35 37 0 0 0
SMALL
USER_CHARGES

@<TRIPOS>ATOM
      1 C         -11.5727   -5.5910    0.4173 C.ar    1  LIG1       -0.0511
      2 C         -10.2410   -5.1824    0.3009 C.ar    1  LIG1       -0.0395
      3 C         -12.1064   -3.6583    1.7873 C.ar    1  LIG1       -0.0438
      4 C         -10.0469   -2.1082    2.1869 C.ar    1  LIG1       -0.0254
      5 C         -14.9524   -5.0294    0.4567 C.ar    1  LIG1        0.0505
      6 C         -15.6635   -6.3163    1.9958 C.ar    1  LIG1        0.0867
      7 C         -10.7692   -3.2264    1.6840 C.ar    1  LIG1       -0.0015
      8 C         -12.4927   -4.8423    1.1485 C.ar    1  LIG1       -0.0017
      9 C          -9.8691   -3.9968    0.9448 C.ar    1  LIG1        0.0379
     10 C         -13.8607   -5.2911    1.2506 C.ar    1  LIG1        0.0593
     11 C          -8.7464   -2.2196    1.7515 C.ar    1  LIG1        0.1046
     12 C          -7.6501   -1.3378    1.9994 C.2     1  LIG1        0.3070
     13 C          -5.2350    0.0550    0.4638 C.3     1  LIG1       -0.0409
     14 C         -13.5832   -6.6858    3.3289 C.3     1  LIG1        0.0062
     15 C          -5.3098   -0.9636    1.5812 C.3     1  LIG1        0.0539
     16 N         -16.0715   -5.6703    0.9261 N.ar    1  LIG1       -0.2471
     17 N          -8.6491   -3.3617    1.0029 N.ar    1  LIG1       -0.3094
     18 N         -14.3318   -6.1163    2.2325 N.ar    1  LIG1       -0.2930
     19 O          -7.7036   -0.2856    2.6775 O.2     1  LIG1       -0.2591
     20 O          -6.4831   -1.7647    1.4042 O.3     1  LIG1       -0.3114
     21 H         -11.8781   -6.5112   -0.0773 H       1  LIG1        0.0630
     22 H          -9.5249   -5.7653   -0.2684 H       1  LIG1        0.0643
     23 H         -12.8226   -3.0719    2.3577 H       1  LIG1        0.0636
     24 H         -10.4409   -1.3094    2.8013 H       1  LIG1        0.0652
     25 H         -14.9949   -4.4131   -0.4303 H       1  LIG1        0.0861
     26 H         -16.2800   -6.9370    2.6316 H       1  LIG1        0.1016
     27 H          -5.1771   -0.4382   -0.5106 H       1  LIG1        0.0254
     28 H          -6.1135    0.7084    0.4776 H       1  LIG1        0.0254
     29 H          -4.3576    0.6986    0.5865 H       1  LIG1        0.0254
     30 H         -13.1799   -7.6468    2.9987 H       1  LIG1        0.0436
     31 H         -12.7729   -6.0067    3.6081 H       1  LIG1        0.0436
     32 H         -14.2470   -6.8232    4.1870 H       1  LIG1        0.0436
     33 H          -5.3675   -0.4639    2.5527 H       1  LIG1        0.0570
     34 H          -4.4317   -1.6162    1.5653 H       1  LIG1        0.0570
     35 H          -7.8050   -3.6941    0.5570 H       1  LIG1        0.1530
@<TRIPOS>BOND
     1     1     2   ar
     2     1     8   ar
     3     2     9   ar
     4     3     7   ar
     5     3     8   ar
     6     4     7   ar
     7     4    11   ar
     8     5    10   ar
     9     5    16   ar
    10     6    16   ar
    11     6    18   ar
    12     7     9   ar
    13     8    10    1
    14     9    17   ar
    15    10    18   ar
    16    11    12    1
    17    11    17   ar
    18    12    19    2
    19    12    20    1
    20    13    15    1
    21    14    18    1
    22    15    20    1
    23     1    21    1
    24     2    22    1
    25     3    23    1
    26     4    24    1
    27     5    25    1
    28     6    26    1
    29    13    27    1
    30    13    28    1
    31    13    29    1
    32    14    30    1
    33    14    31    1
    34    14    32    1
    35    15    33    1
    36    15    34    1
    37    17    35    1
