@<TRIPOS>MOLECULE
ChEBML332861
 45 48 0 0 0
SMALL
USER_CHARGES

@<TRIPOS>ATOM
      1 C          -2.4198    1.2945   -2.9674 C.ar    1  LIG1       -0.0622
      2 C         -12.1267   -5.3159    0.3784 C.ar    1  LIG1       -0.0616
      3 C         -10.8910   -5.7594   -0.0766 C.ar    1  LIG1       -0.0615
      4 C          -3.6537    1.4413   -2.3336 C.ar    1  LIG1       -0.0619
      5 C          -1.8596    0.0260   -3.1181 C.ar    1  LIG1       -0.0619
      6 C         -12.2126   -4.1376    1.1180 C.ar    1  LIG1       -0.0543
      7 C          -9.7386   -5.0248    0.2068 C.ar    1  LIG1       -0.0517
      8 C         -11.1565   -2.1998    2.1581 C.ar    1  LIG1       -0.0534
      9 C         -10.0207   -1.4482    2.4550 C.ar    1  LIG1       -0.0477
     10 C          -4.3273    0.3195   -1.8503 C.ar    1  LIG1       -0.0564
     11 C          -2.5332   -1.0958   -2.6348 C.ar    1  LIG1       -0.0564
     12 C         -11.0632   -3.3858    1.4126 C.ar    1  LIG1       -0.0157
     13 C          -9.7976   -3.8280    0.9534 C.ar    1  LIG1        0.0133
     14 C          -8.7741   -1.8787    2.0057 C.ar    1  LIG1        0.0535
     15 C          -3.7671   -0.9491   -2.0009 C.ar    1  LIG1       -0.0180
     16 C          -8.6548   -3.0539    1.2626 C.ar    1  LIG1        0.1026
     17 C          -6.2970   -1.6343    1.7922 C.ar    1  LIG1        0.0319
     18 C          -7.5672   -1.0971    2.3105 C.ar    1  LIG1        0.1920
     19 C          -6.2857   -2.7754    1.0855 C.ar    1  LIG1        0.1440
     20 C          -4.9838   -4.7519    0.4091 C.3     1  LIG1        0.0020
     21 C          -4.1108   -2.4789   -0.0296 C.3     1  LIG1        0.0433
     22 C          -4.4964   -2.1650   -1.4773 C.3     1  LIG1        0.0947
     23 N          -5.1351   -3.3138    0.5831 N.pl3   1  LIG1       -0.3116
     24 O          -7.6034   -0.0594    2.9571 O.2     1  LIG1       -0.2889
     25 O          -7.4354   -3.5019    0.8062 O.2     1  LIG1       -0.2941
     26 O          -5.9005   -1.9196   -1.5606 O.3     1  LIG1       -0.3867
     27 H          -1.8961    2.1680   -3.3448 H       1  LIG1        0.0622
     28 H         -13.0245   -5.8861    0.1588 H       1  LIG1        0.0623
     29 H         -10.8209   -6.6774   -0.6528 H       1  LIG1        0.0623
     30 H          -4.0905    2.4288   -2.2172 H       1  LIG1        0.0623
     31 H          -0.8996   -0.0888   -3.6124 H       1  LIG1        0.0623
     32 H         -13.1910   -3.8096    1.4641 H       1  LIG1        0.0629
     33 H          -8.7878   -5.4014   -0.1651 H       1  LIG1        0.0630
     34 H         -12.1218   -1.8482    2.5173 H       1  LIG1        0.0629
     35 H         -10.1294   -0.5357    3.0344 H       1  LIG1        0.0631
     36 H          -5.2881    0.4434   -1.3577 H       1  LIG1        0.0626
     37 H          -2.0891   -2.0802   -2.7565 H       1  LIG1        0.0626
     38 H          -5.3906   -1.0774    2.0032 H       1  LIG1        0.0706
     39 H          -3.9972   -4.9788   -0.0032 H       1  LIG1        0.0432
     40 H          -5.7472   -5.1321   -0.2753 H       1  LIG1        0.0432
     41 H          -5.0894   -5.2621    1.3702 H       1  LIG1        0.0432
     42 H          -4.0148   -1.5586    0.5570 H       1  LIG1        0.0500
     43 H          -3.1551   -3.0123    0.0182 H       1  LIG1        0.0500
     44 H          -4.2871   -3.0277   -2.1220 H       1  LIG1        0.0669
     45 H          -6.0960   -1.7648   -2.4969 H       1  LIG1        0.2110
@<TRIPOS>BOND
     1     1     4   ar
     2     1     5   ar
     3     2     3   ar
     4     2     6   ar
     5     3     7   ar
     6     4    10   ar
     7     5    11   ar
     8     6    12   ar
     9     7    13   ar
    10     8     9   ar
    11     8    12   ar
    12     9    14   ar
    13    10    15   ar
    14    11    15   ar
    15    12    13   ar
    16    13    16   ar
    17    14    16   ar
    18    14    18   ar
    19    15    22    1
    20    16    25   ar
    21    17    18   ar
    22    17    19   ar
    23    18    24    2
    24    19    23    1
    25    19    25   ar
    26    20    23    1
    27    21    22    1
    28    21    23    1
    29    22    26    1
    30     1    27    1
    31     2    28    1
    32     3    29    1
    33     4    30    1
    34     5    31    1
    35     6    32    1
    36     7    33    1
    37     8    34    1
    38     9    35    1
    39    10    36    1
    40    11    37    1
    41    17    38    1
    42    20    39    1
    43    20    40    1
    44    20    41    1
    45    21    42    1
    46    21    43    1
    47    22    44    1
    48    26    45    1
