@<TRIPOS>MOLECULE
ChEBML954113
 45 48 0 0 0
SMALL
USER_CHARGES

@<TRIPOS>ATOM
      1 C         -11.7622   -5.7003    0.9038 C.ar    1  LIG1       -0.0616
      2 C         -10.4348   -6.1029    0.7907 C.ar    1  LIG1       -0.0616
      3 C         -12.0656   -4.3786    1.2318 C.ar    1  LIG1       -0.0544
      4 C          -9.4058   -5.1856    1.0052 C.ar    1  LIG1       -0.0543
      5 C         -11.3299   -2.1074    1.7821 C.ar    1  LIG1       -0.0536
      6 C         -10.3009   -1.1900    1.9967 C.ar    1  LIG1       -0.0490
      7 C          -3.5923   -1.0136   -2.3735 C.ar    1  LIG1       -0.0383
      8 C          -3.3995    1.3890   -2.2083 C.ar    1  LIG1       -0.0383
      9 C          -2.4623   -1.0482   -3.1905 C.ar    1  LIG1       -0.0302
     10 C          -2.2695    1.3545   -3.0254 C.ar    1  LIG1       -0.0302
     11 C          -8.6699   -2.9143    1.5555 C.ar    1  LIG1       -0.0418
     12 C         -11.0427   -3.4417    1.4512 C.ar    1  LIG1       -0.0183
     13 C          -9.6929   -3.8512    1.3362 C.ar    1  LIG1       -0.0176
     14 C          -8.9734   -1.5927    1.8836 C.ar    1  LIG1        0.0379
     15 C          -4.0610    0.2049   -1.8824 C.ar    1  LIG1        0.0288
     16 C          -1.8009    0.1358   -3.5164 C.ar    1  LIG1        0.0714
     17 C          -7.9017   -0.6362    2.1099 C.2     1  LIG1        0.2456
     18 C          -6.1998   -0.7881   -1.2677 C.3     1  LIG1        0.0274
     19 C          -5.0868    0.9018    0.2249 C.3     1  LIG1        0.0274
     20 C          -7.4031   -0.5210   -0.3633 C.3     1  LIG1        0.0302
     21 C          -5.6519    0.0038    1.3228 C.3     1  LIG1        0.0302
     22 N          -5.1717    0.2388   -1.0794 N.pl3   1  LIG1       -0.3276
     23 N          -7.0265   -0.4055    1.0491 N.am    1  LIG1       -0.2947
     24 O          -7.8611   -0.1016    3.2165 O.2     1  LIG1       -0.2716
     25 O          -0.6982    0.1022   -4.3137 O.3     1  LIG1       -0.3609
     26 H         -12.5628   -6.4154    0.7382 H       1  LIG1        0.0623
     27 H         -10.1993   -7.1319    0.5349 H       1  LIG1        0.0623
     28 H         -13.1104   -4.0864    1.3164 H       1  LIG1        0.0629
     29 H          -8.3756   -5.5224    0.9100 H       1  LIG1        0.0629
     30 H         -12.3604   -1.7708    1.8750 H       1  LIG1        0.0629
     31 H         -10.5494   -0.1629    2.2517 H       1  LIG1        0.0631
     32 H          -4.1000   -1.9423   -2.1257 H       1  LIG1        0.0643
     33 H          -3.7562    2.3440   -1.8311 H       1  LIG1        0.0643
     34 H          -2.1021   -2.0005   -3.5700 H       1  LIG1        0.0651
     35 H          -1.7584    2.2801   -3.2757 H       1  LIG1        0.0651
     36 H          -7.6279   -3.2190    1.4706 H       1  LIG1        0.0637
     37 H          -5.7766   -1.7739   -1.0361 H       1  LIG1        0.0485
     38 H          -6.5292   -0.8021   -2.3134 H       1  LIG1        0.0485
     39 H          -5.6547    1.8388    0.1761 H       1  LIG1        0.0485
     40 H          -4.0496    1.1613    0.4704 H       1  LIG1        0.0485
     41 H          -7.8840    0.4252   -0.6403 H       1  LIG1        0.0486
     42 H          -8.1427   -1.3181   -0.4899 H       1  LIG1        0.0486
     43 H          -5.0590   -0.9153    1.4074 H       1  LIG1        0.0486
     44 H          -5.6025    0.5134    2.2912 H       1  LIG1        0.0486
     45 H          -0.3531    0.9991   -4.4484 H       1  LIG1        0.2182
@<TRIPOS>BOND
     1     1     2   ar
     2     1     3   ar
     3     2     4   ar
     4     3    12   ar
     5     4    13   ar
     6     5     6   ar
     7     5    12   ar
     8     6    14   ar
     9     7     9   ar
    10     7    15   ar
    11     8    10   ar
    12     8    15   ar
    13     9    16   ar
    14    10    16   ar
    15    11    13   ar
    16    11    14   ar
    17    12    13   ar
    18    14    17    1
    19    15    22    1
    20    16    25    1
    21    17    23   am
    22    17    24    2
    23    18    20    1
    24    18    22    1
    25    19    21    1
    26    19    22    1
    27    20    23    1
    28    21    23    1
    29     1    26    1
    30     2    27    1
    31     3    28    1
    32     4    29    1
    33     5    30    1
    34     6    31    1
    35     7    32    1
    36     8    33    1
    37     9    34    1
    38    10    35    1
    39    11    36    1
    40    18    37    1
    41    18    38    1
    42    19    39    1
    43    19    40    1
    44    20    41    1
    45    20    42    1
    46    21    43    1
    47    21    44    1
    48    25    45    1
