@<TRIPOS>MOLECULE
ChEBML890855
 50 55 0 0 0
SMALL
USER_CHARGES

@<TRIPOS>ATOM
      1 C         -16.0559   -5.3455   -0.6437 C.ar    1  LIG1       -0.0600
      2 C         -15.4116   -6.5758   -0.5713 C.ar    1  LIG1       -0.0602
      3 C         -10.7714   -1.8407    1.6211 C.ar    1  LIG1       -0.0485
      4 C          -9.5720   -1.3175    2.1032 C.ar    1  LIG1       -0.0488
      5 C         -15.3915   -4.1765   -0.2703 C.ar    1  LIG1       -0.0344
      6 C         -14.0879   -6.6777   -0.1250 C.ar    1  LIG1       -0.0380
      7 C          -2.5501    0.4557   -3.5575 C.ar    1  LIG1       -0.0252
      8 C          -8.6179   -3.5389    2.1611 C.ar    1  LIG1       -0.0231
      9 C          -3.5877    1.1741   -2.9995 C.ar    1  LIG1        0.0322
     10 C          -2.1363   -0.6493   -2.8418 C.ar    1  LIG1        0.0322
     11 C         -10.8909   -3.2167    1.4097 C.ar    1  LIG1        0.0412
     12 C          -8.4975   -2.1645    2.3729 C.ar    1  LIG1        0.0394
     13 C         -14.0613   -4.2613    0.1804 C.ar    1  LIG1        0.0872
     14 C          -9.8147   -4.0771    1.6779 C.ar    1  LIG1        0.0739
     15 C         -13.4185   -5.5025    0.2511 C.ar    1  LIG1        0.0642
     16 C         -12.1072   -3.8315    0.9114 C.ar    1  LIG1        0.1383
     17 C          -3.6898   -0.2505   -1.2311 C.ar    1  LIG1        0.2162
     18 C         -11.0165   -5.9967    1.0237 C.ar    1  LIG1       -0.0338
     19 C          -7.2488   -1.6146    2.8761 C.2     1  LIG1        0.2457
     20 C          -4.8389    0.4409    0.8036 C.3     1  LIG1        0.0302
     21 C          -4.7866   -1.9757    0.1105 C.3     1  LIG1        0.0302
     22 C          -5.3404   -0.1404    2.1258 C.3     1  LIG1        0.0303
     23 C          -6.2094   -1.9550    0.6639 C.3     1  LIG1        0.0303
     24 N          -4.1832    0.8483   -1.8334 N.ar    1  LIG1       -0.2235
     25 N          -2.6856   -1.0328   -1.6708 N.ar    1  LIG1       -0.2235
     26 N         -13.2383   -3.2491    0.5902 N.ar    1  LIG1       -0.2302
     27 N          -9.9136   -5.4701    1.4717 N.ar    1  LIG1       -0.2643
     28 N         -12.1465   -5.2072    0.7287 N.ar    1  LIG1       -0.2625
     29 N          -4.2726   -0.6118   -0.0440 N.pl3   1  LIG1       -0.2969
     30 N          -6.3000   -1.2316    1.9288 N.am    1  LIG1       -0.2947
     31 O          -7.1361   -1.5236    4.0973 O.2     1  LIG1       -0.2716
     32 S         -10.9542   -7.7767    0.8261 S.3     1  LIG1       -0.7200
     33 H         -17.0832   -5.2925   -0.9936 H       1  LIG1        0.0623
     34 H         -15.9440   -7.4769   -0.8663 H       1  LIG1        0.0623
     35 H         -11.6003   -1.1684    1.4157 H       1  LIG1        0.0631
     36 H          -9.4859   -0.2460    2.2655 H       1  LIG1        0.0631
     37 H         -15.8969   -3.2173   -0.3292 H       1  LIG1        0.0646
     38 H         -13.6270   -7.6554   -0.0844 H       1  LIG1        0.0643
     39 H          -2.0893    0.7402   -4.4939 H       1  LIG1        0.0655
     40 H          -7.7780   -4.1974    2.3725 H       1  LIG1        0.0654
     41 H          -3.9815    2.0582   -3.4896 H       1  LIG1        0.0841
     42 H          -1.3263   -1.2752   -3.2007 H       1  LIG1        0.0841
     43 H          -5.6701    0.9256    0.2758 H       1  LIG1        0.0486
     44 H          -4.0807    1.2057    1.0091 H       1  LIG1        0.0486
     45 H          -4.1250   -2.5210    0.7943 H       1  LIG1        0.0486
     46 H          -4.7802   -2.5118   -0.8465 H       1  LIG1        0.0486
     47 H          -4.5031   -0.5561    2.6999 H       1  LIG1        0.0486
     48 H          -5.7936    0.6531    2.7283 H       1  LIG1        0.0486
     49 H          -6.8851   -1.4509   -0.0381 H       1  LIG1        0.0486
     50 H          -6.5794   -2.9779    0.7942 H       1  LIG1        0.0486
@<TRIPOS>BOND
     1     1     2   ar
     2     1     5   ar
     3     2     6   ar
     4     3     4   ar
     5     3    11   ar
     6     4    12   ar
     7     5    13   ar
     8     6    15   ar
     9     7     9   ar
    10     7    10   ar
    11     8    12   ar
    12     8    14   ar
    13     9    24   ar
    14    10    25   ar
    15    11    14   ar
    16    11    16   ar
    17    12    19    1
    18    13    15   ar
    19    13    26   ar
    20    14    27   ar
    21    15    28   ar
    22    16    26   ar
    23    16    28   ar
    24    17    24   ar
    25    17    25   ar
    26    17    29    1
    27    18    27   ar
    28    18    28   ar
    29    18    32    1
    30    19    30   am
    31    19    31    2
    32    20    22    1
    33    20    29    1
    34    21    23    1
    35    21    29    1
    36    22    30    1
    37    23    30    1
    38     1    33    1
    39     2    34    1
    40     3    35    1
    41     4    36    1
    42     5    37    1
    43     6    38    1
    44     7    39    1
    45     8    40    1
    46     9    41    1
    47    10    42    1
    48    20    43    1
    49    20    44    1
    50    21    45    1
    51    21    46    1
    52    22    47    1
    53    22    48    1
    54    23    49    1
    55    23    50    1
