@<TRIPOS>MOLECULE
ChEBML300414
 47 49 0 0 0
SMALL
USER_CHARGES

@<TRIPOS>ATOM
      1 C          -1.4286    0.8506    2.9159 C.1     1  LIG1        0.0638
      2 C          -9.9419   -5.3695    0.7056 C.ar    1  LIG1       -0.0387
      3 C         -11.2821   -5.7665    0.7005 C.ar    1  LIG1       -0.0416
      4 C         -11.9965   -3.5670    1.4413 C.ar    1  LIG1       -0.0343
      5 C         -10.0014   -1.9200    1.7746 C.ar    1  LIG1       -0.0262
      6 C         -10.6525   -3.1440    1.4542 C.ar    1  LIG1       -0.0007
      7 C          -9.6582   -4.0532    1.0867 C.ar    1  LIG1        0.0379
      8 C         -12.2952   -4.8808    1.0623 C.ar    1  LIG1        0.0413
      9 C          -8.6496   -2.1064    1.5992 C.ar    1  LIG1        0.0945
     10 C          -7.5498   -1.1292    1.8056 C.2     1  LIG1        0.2576
     11 C          -4.5898   -0.3358   -0.2523 C.2     1  LIG1        0.2319
     12 C          -1.7994   -0.2637   -3.5087 C.3     1  LIG1       -0.0515
     13 C          -2.6357    0.9752   -3.8409 C.3     1  LIG1       -0.0515
     14 C          -2.1729   -0.6539   -2.0809 C.3     1  LIG1       -0.0345
     15 C          -3.4686    1.2682   -2.5957 C.3     1  LIG1       -0.0345
     16 C          -2.6524    0.6547   -1.4644 C.3     1  LIG1        0.0254
     17 C          -1.9440    0.2114    1.6959 C.3     1  LIG1        0.0509
     18 C          -5.2725   -0.4423    1.0999 C.3     1  LIG1        0.0887
     19 C          -2.9113    1.1182    0.9424 C.3     1  LIG1        0.0275
     20 N          -1.0207    1.3530    3.8789 N.1     1  LIG1       -0.1982
     21 N          -8.4525   -3.3961    1.1840 N.ar    1  LIG1       -0.3101
     22 N          -6.4254   -1.2909    1.0020 N.am    1  LIG1       -0.3013
     23 N          -3.4165    0.4549   -0.2674 N.am    1  LIG1       -0.2964
     24 O          -7.6720   -0.2612    2.6660 O.2     1  LIG1       -0.2704
     25 O          -5.0528   -0.9116   -1.2405 O.2     1  LIG1       -0.2756
     26 CL        -13.9358   -5.4068    1.0421 Cl      1  LIG1       -0.0843
     27 H          -9.1540   -6.0603    0.4244 H       1  LIG1        0.0643
     28 H         -11.5214   -6.7866    0.4074 H       1  LIG1        0.0639
     29 H         -12.7857   -2.8752    1.7242 H       1  LIG1        0.0645
     30 H         -10.4753   -1.0029    2.0985 H       1  LIG1        0.0651
     31 H          -1.9893   -1.0839   -4.2081 H       1  LIG1        0.0267
     32 H          -0.7328   -0.0184   -3.5703 H       1  LIG1        0.0267
     33 H          -1.9737    1.8197   -4.0651 H       1  LIG1        0.0267
     34 H          -3.2719    0.8147   -4.7170 H       1  LIG1        0.0267
     35 H          -2.9779   -1.3998   -2.0947 H       1  LIG1        0.0285
     36 H          -1.3294   -1.0886   -1.5356 H       1  LIG1        0.0285
     37 H          -3.6407    2.3398   -2.4546 H       1  LIG1        0.0285
     38 H          -4.4498    0.7842   -2.6804 H       1  LIG1        0.0285
     39 H          -1.8007    1.2981   -1.2138 H       1  LIG1        0.0506
     40 H          -2.4657   -0.7120    1.9729 H       1  LIG1        0.0441
     41 H          -1.1072   -0.0745    1.0478 H       1  LIG1        0.0441
     42 H          -4.5953   -0.8879    1.8332 H       1  LIG1        0.0567
     43 H          -5.6145    0.5411    1.4327 H       1  LIG1        0.0567
     44 H          -3.7627    1.3613    1.5864 H       1  LIG1        0.0480
     45 H          -2.4265    2.0605    0.6638 H       1  LIG1        0.0480
     46 H          -7.5533   -3.8094    0.9779 H       1  LIG1        0.1529
     47 H          -6.3791   -2.0771    0.3548 H       1  LIG1        0.1503
@<TRIPOS>BOND
     1     1    17    1
     2     1    20    3
     3     2     3   ar
     4     2     7   ar
     5     3     8   ar
     6     4     6   ar
     7     4     8   ar
     8     5     6   ar
     9     5     9   ar
    10     6     7   ar
    11     7    21   ar
    12     8    26    1
    13     9    10    1
    14     9    21   ar
    15    10    22   am
    16    10    24    2
    17    11    18    1
    18    11    23   am
    19    11    25    2
    20    12    13    1
    21    12    14    1
    22    13    15    1
    23    14    16    1
    24    15    16    1
    25    16    23    1
    26    17    19    1
    27    18    22    1
    28    19    23    1
    29     2    27    1
    30     3    28    1
    31     4    29    1
    32     5    30    1
    33    12    31    1
    34    12    32    1
    35    13    33    1
    36    13    34    1
    37    14    35    1
    38    14    36    1
    39    15    37    1
    40    15    38    1
    41    16    39    1
    42    17    40    1
    43    17    41    1
    44    18    42    1
    45    18    43    1
    46    19    44    1
    47    19    45    1
    48    21    46    1
    49    22    47    1
