@<TRIPOS>MOLECULE
ChEBML367273
 40 42 0 0 0
SMALL
USER_CHARGES

@<TRIPOS>ATOM
      1 C          -4.8245    0.9162   -2.9243 C.ar    1  LIG1       -0.0252
      2 C          -2.8324   -0.0674   -1.9749 C.ar    1  LIG1       -0.0252
      3 C          -5.6096   -0.0059   -2.2324 C.ar    1  LIG1       -0.0457
      4 C          -3.6175   -0.9895   -1.2829 C.ar    1  LIG1       -0.0457
      5 C         -12.1470   -3.5481    1.8852 C.ar    1  LIG1       -0.0337
      6 C          -9.9959   -2.0973    2.1538 C.ar    1  LIG1       -0.0328
      7 C         -10.3954   -5.2755    0.4851 C.ar    1  LIG1       -0.0265
      8 C         -10.7889   -3.2030    1.7371 C.ar    1  LIG1       -0.0011
      9 C         -11.7464   -5.5971    0.6447 C.ar    1  LIG1        0.0759
     10 C          -9.9462   -4.0728    1.0420 C.ar    1  LIG1        0.0382
     11 C          -3.4358    0.8854   -2.7957 C.ar    1  LIG1        0.1228
     12 C          -5.0062   -0.9588   -1.4116 C.ar    1  LIG1        0.0075
     13 C         -12.6104   -4.7481    1.3335 C.ar    1  LIG1        0.0535
     14 C          -8.7110   -2.3135    1.7120 C.ar    1  LIG1        0.0404
     15 C          -6.3535   -2.2497    2.6177 C.3     1  LIG1       -0.0297
     16 C          -7.0021   -0.9782    0.4669 C.3     1  LIG1        0.0322
     17 C         -12.2296   -6.8827    0.0504 C.3     1  LIG1        0.4175
     18 C          -7.4915   -1.4979    1.8608 C.3     1  LIG1        0.1089
     19 N          -8.6909   -3.5074    1.0422 N.ar    1  LIG1       -0.3154
     20 O          -7.7396   -0.3137    2.6688 O.3     1  LIG1       -0.3832
     21 F          -2.6819    1.7710   -3.4602 F       1  LIG1       -0.2069
     22 F         -11.2508   -7.5873   -0.5869 F       1  LIG1       -0.1661
     23 F         -12.7515   -7.7427    0.9713 F       1  LIG1       -0.1661
     24 F         -13.2109   -6.6910   -0.8758 F       1  LIG1       -0.1661
     25 S          -5.9997   -2.1256   -0.5361 S.3     1  LIG1       -0.1227
     26 CL        -14.2809   -5.1449    1.5313 Cl      1  LIG1       -0.0836
     27 H          -5.2938    1.6586   -3.5630 H       1  LIG1        0.0654
     28 H          -1.7512   -0.0912   -1.8755 H       1  LIG1        0.0654
     29 H          -6.6903    0.0339   -2.3451 H       1  LIG1        0.0635
     30 H          -3.1290   -1.7250   -0.6484 H       1  LIG1        0.0635
     31 H         -12.8183   -2.8837    2.4231 H       1  LIG1        0.0645
     32 H         -10.3317   -1.2368    2.7168 H       1  LIG1        0.0647
     33 H          -9.7156   -5.9312   -0.0500 H       1  LIG1        0.0649
     34 H          -5.4389   -1.6588    2.7378 H       1  LIG1        0.0264
     35 H          -6.0889   -3.1890    2.1214 H       1  LIG1        0.0264
     36 H          -6.6888   -2.4865    3.6354 H       1  LIG1        0.0264
     37 H          -7.8598   -0.6783   -0.1452 H       1  LIG1        0.0418
     38 H          -6.3811   -0.0879    0.6221 H       1  LIG1        0.0418
     39 H          -7.8748   -3.9178    0.6095 H       1  LIG1        0.1526
     40 H          -8.0311   -0.6528    3.5202 H       1  LIG1        0.2114
@<TRIPOS>BOND
     1     1     3   ar
     2     1    11   ar
     3     2     4   ar
     4     2    11   ar
     5     3    12   ar
     6     4    12   ar
     7     5     8   ar
     8     5    13   ar
     9     6     8   ar
    10     6    14   ar
    11     7     9   ar
    12     7    10   ar
    13     8    10   ar
    14     9    13   ar
    15     9    17    1
    16    10    19   ar
    17    11    21    1
    18    12    25    1
    19    13    26    1
    20    14    18    1
    21    14    19   ar
    22    15    18    1
    23    16    18    1
    24    16    25    1
    25    17    22    1
    26    17    23    1
    27    17    24    1
    28    18    20    1
    29     1    27    1
    30     2    28    1
    31     3    29    1
    32     4    30    1
    33     5    31    1
    34     6    32    1
    35     7    33    1
    36    15    34    1
    37    15    35    1
    38    15    36    1
    39    16    37    1
    40    16    38    1
    41    19    39    1
    42    20    40    1
