@<TRIPOS>MOLECULE
ChEBML406355
 41 43 0 0 0
SMALL
USER_CHARGES

@<TRIPOS>ATOM
      1 C          -2.3560    0.8325   -3.6246 C.ar    1  LIG1       -0.0621
      2 C          -2.8347    1.6299   -2.6013 C.ar    1  LIG1       -0.0604
      3 C          -2.4677   -0.5434   -3.5433 C.ar    1  LIG1       -0.0604
      4 C          -9.9155   -1.6778    1.6310 C.ar    1  LIG1       -0.0494
      5 C          -8.2749   -3.4457    1.5288 C.ar    1  LIG1       -0.0494
      6 C         -10.9078   -2.5914    1.3416 C.ar    1  LIG1       -0.0585
      7 C          -9.2775   -4.3501    1.2456 C.ar    1  LIG1       -0.0585
      8 C          -3.4266    1.0541   -1.4942 C.ar    1  LIG1       -0.0409
      9 C          -3.0534   -1.1260   -2.4366 C.ar    1  LIG1       -0.0409
     10 C          -8.5886   -2.1001    1.7267 C.ar    1  LIG1        0.0372
     11 C         -10.5901   -3.9239    1.1465 C.ar    1  LIG1       -0.0511
     12 C          -3.5405   -0.3278   -1.4094 C.ar    1  LIG1        0.0286
     13 C          -7.5201   -1.1263    2.0360 C.2     1  LIG1        0.2456
     14 C          -4.5397    0.1844    0.5959 C.3     1  LIG1        0.0274
     15 C          -5.3640   -1.5678   -0.7623 C.3     1  LIG1        0.0274
     16 C          -5.1846   -0.3885    1.8621 C.3     1  LIG1        0.0302
     17 C          -6.0616   -2.2604    0.4187 C.3     1  LIG1        0.0302
     18 C         -11.6793   -4.9164    0.8308 C.3     1  LIG1       -0.0398
     19 N          -4.1381   -0.9135   -0.2911 N.pl3   1  LIG1       -0.3276
     20 N          -6.3072   -1.2517    1.4618 N.am    1  LIG1       -0.2947
     21 O          -7.7353   -0.2127    2.8082 O.2     1  LIG1       -0.2716
     22 H          -1.8942    1.2854   -4.4895 H       1  LIG1        0.0622
     23 H          -2.7459    2.7041   -2.6678 H       1  LIG1        0.0623
     24 H          -2.0928   -1.1633   -4.3444 H       1  LIG1        0.0623
     25 H         -10.1648   -0.6380    1.7827 H       1  LIG1        0.0631
     26 H          -7.2502   -3.7788    1.6014 H       1  LIG1        0.0631
     27 H         -11.9349   -2.2660    1.2669 H       1  LIG1        0.0625
     28 H          -9.0367   -5.3923    1.0966 H       1  LIG1        0.0625
     29 H          -3.8009    1.6775   -0.6957 H       1  LIG1        0.0642
     30 H          -3.1362   -2.2009   -2.3717 H       1  LIG1        0.0642
     31 H          -5.2568    0.8235    0.0807 H       1  LIG1        0.0485
     32 H          -3.6620    0.7703    0.8686 H       1  LIG1        0.0485
     33 H          -6.0306   -0.8217   -1.1946 H       1  LIG1        0.0485
     34 H          -5.1112   -2.3104   -1.5192 H       1  LIG1        0.0485
     35 H          -5.5521    0.4254    2.4872 H       1  LIG1        0.0486
     36 H          -4.4502   -0.9741    2.4153 H       1  LIG1        0.0486
     37 H          -5.4229   -3.0499    0.8146 H       1  LIG1        0.0486
     38 H          -7.0095   -2.6855    0.0886 H       1  LIG1        0.0486
     39 H         -12.0741   -5.3299    1.7588 H       1  LIG1        0.0280
     40 H         -12.4799   -4.4161    0.2861 H       1  LIG1        0.0280
     41 H         -11.2714   -5.7210    0.2190 H       1  LIG1        0.0280
@<TRIPOS>BOND
     1     1     2   ar
     2     1     3   ar
     3     2     8   ar
     4     3     9   ar
     5     4     6   ar
     6     4    10   ar
     7     5     7   ar
     8     5    10   ar
     9     6    11   ar
    10     7    11   ar
    11     8    12   ar
    12     9    12   ar
    13    10    13    1
    14    11    18    1
    15    12    19    1
    16    13    20   am
    17    13    21    2
    18    14    16    1
    19    14    19    1
    20    15    17    1
    21    15    19    1
    22    16    20    1
    23    17    20    1
    24     1    22    1
    25     2    23    1
    26     3    24    1
    27     4    25    1
    28     5    26    1
    29     6    27    1
    30     7    28    1
    31     8    29    1
    32     9    30    1
    33    14    31    1
    34    14    32    1
    35    15    33    1
    36    15    34    1
    37    16    35    1
    38    16    36    1
    39    17    37    1
    40    17    38    1
    41    18    39    1
    42    18    40    1
    43    18    41    1
