@<TRIPOS>MOLECULE
ChEBML1173724
 46 48 0 0 0
SMALL
USER_CHARGES

@<TRIPOS>ATOM
      1 C         -11.3482   -2.0538    2.5765 C.ar    1  LIG1       -0.0520
      2 C         -10.1714   -1.3111    2.4829 C.ar    1  LIG1       -0.0490
      3 C          -2.5787   -1.0290   -2.2716 C.ar    1  LIG1       -0.0582
      4 C          -3.4499    1.0256   -1.3461 C.ar    1  LIG1       -0.0582
      5 C          -2.4538   -0.4148   -3.5177 C.ar    1  LIG1       -0.0497
      6 C          -3.3251    1.6398   -2.5922 C.ar    1  LIG1       -0.0497
      7 C         -10.4003   -5.1543    0.7814 C.ar    1  LIG1       -0.0359
      8 C          -9.1278   -3.1130    1.2559 C.ar    1  LIG1       -0.0417
      9 C         -11.5971   -5.8431    0.9076 C.ar    1  LIG1        0.0274
     10 C         -12.5759   -4.1228    2.0724 C.ar    1  LIG1        0.0346
     11 C         -11.4239   -3.3364    2.0085 C.ar    1  LIG1        0.0000
     12 C         -10.3047   -3.8748    1.3407 C.ar    1  LIG1       -0.0145
     13 C          -9.0638   -1.8395    1.8241 C.ar    1  LIG1        0.0376
     14 C          -3.0768   -0.3088   -1.1858 C.ar    1  LIG1       -0.0424
     15 C          -2.8270    0.9196   -3.6780 C.ar    1  LIG1        0.0555
     16 C          -7.8376   -1.0633    1.7279 C.2     1  LIG1        0.2432
     17 C          -3.2120   -0.9731    0.1642 C.3     1  LIG1        0.0159
     18 C          -5.7421   -0.6559    0.4135 C.3     1  LIG1        0.0535
     19 C          -4.5754   -1.6498    0.3848 C.3     1  LIG1       -0.0069
     20 C          -2.6916    1.5762   -5.0103 C.3     1  LIG1        0.4160
     21 N         -12.6882   -5.3601    1.5390 N.ar    1  LIG1       -0.2640
     22 N          -7.0032   -1.3262    0.6353 N.am    1  LIG1       -0.3058
     23 N          -4.5607   -2.3500    1.7073 N.4     1  LIG1        0.2344
     24 O          -7.5524   -0.2231    2.5995 O.2     1  LIG1       -0.2719
     25 F          -2.1900    0.7528   -5.9780 F       1  LIG1       -0.1661
     26 F          -3.8738    2.0389   -5.5143 F       1  LIG1       -0.1661
     27 F          -1.8582    2.6567   -4.9810 F       1  LIG1       -0.1661
     28 H         -12.2037   -1.6256    3.0938 H       1  LIG1        0.0630
     29 H         -10.1312   -0.3201    2.9280 H       1  LIG1        0.0631
     30 H          -2.2857   -2.0692   -2.1559 H       1  LIG1        0.0626
     31 H          -3.8377    1.5946   -0.5050 H       1  LIG1        0.0626
     32 H          -2.0631   -0.9832   -4.3574 H       1  LIG1        0.0629
     33 H          -3.6181    2.6800   -2.7087 H       1  LIG1        0.0629
     34 H          -9.5650   -5.6095    0.2583 H       1  LIG1        0.0645
     35 H          -8.2561   -3.5157    0.7424 H       1  LIG1        0.0637
     36 H         -11.7103   -6.8371    0.4871 H       1  LIG1        0.0840
     37 H         -13.4733   -3.7683    2.5723 H       1  LIG1        0.0846
     38 H          -3.0209   -0.2413    0.9604 H       1  LIG1        0.0374
     39 H          -2.4045   -1.7120    0.2456 H       1  LIG1        0.0374
     40 H          -5.7980   -0.1129   -0.5372 H       1  LIG1        0.0525
     41 H          -5.5916    0.0878    1.2046 H       1  LIG1        0.0525
     42 H          -4.7601   -2.4314   -0.3616 H       1  LIG1        0.0870
     43 H          -7.2527   -2.0663   -0.0127 H       1  LIG1        0.1499
     44 H          -5.1323   -3.1950    1.6670 H       1  LIG1        0.1966
     45 H          -4.9332   -1.7383    2.4352 H       1  LIG1        0.1966
     46 H          -3.6064   -2.6128    1.9582 H       1  LIG1        0.1966
@<TRIPOS>BOND
     1     1     2   ar
     2     1    11   ar
     3     2    13   ar
     4     3     5   ar
     5     3    14   ar
     6     4     6   ar
     7     4    14   ar
     8     5    15   ar
     9     6    15   ar
    10     7     9   ar
    11     7    12   ar
    12     8    12   ar
    13     8    13   ar
    14     9    21   ar
    15    10    11   ar
    16    10    21   ar
    17    11    12   ar
    18    13    16    1
    19    14    17    1
    20    15    20    1
    21    16    22   am
    22    16    24    2
    23    17    19    1
    24    18    19    1
    25    18    22    1
    26    19    23    1
    27    20    25    1
    28    20    26    1
    29    20    27    1
    30     1    28    1
    31     2    29    1
    32     3    30    1
    33     4    31    1
    34     5    32    1
    35     6    33    1
    36     7    34    1
    37     8    35    1
    38     9    36    1
    39    10    37    1
    40    17    38    1
    41    17    39    1
    42    18    40    1
    43    18    41    1
    44    19    42    1
    45    22    43    1
    46    23    44    1
    47    23    45    1
    48    23    46    1
