@<TRIPOS>MOLECULE
ChEBML511612
 50 53 0 0 0
SMALL
USER_CHARGES

@<TRIPOS>ATOM
      1 C          -1.9894    0.8890   -3.3046 C.ar    1  LIG1       -0.0432
      2 C          -6.4691   -2.6164   -0.3981 C.ar    1  LIG1       -0.0486
      3 C          -5.5007   -2.0658   -1.2318 C.ar    1  LIG1       -0.0519
      4 C          -1.7648   -0.4264   -2.9139 C.ar    1  LIG1       -0.0463
      5 C         -11.6349   -5.3977    0.6582 C.ar    1  LIG1       -0.0482
      6 C         -12.0853   -3.0921    1.2227 C.ar    1  LIG1       -0.0482
      7 C         -10.2689   -5.1725    0.8284 C.ar    1  LIG1       -0.0402
      8 C         -10.7193   -2.8670    1.3928 C.ar    1  LIG1       -0.0402
      9 C          -5.0817   -0.3532    0.4199 C.ar    1  LIG1       -0.0262
     10 C          -3.1369    1.5151   -2.8451 C.ar    1  LIG1        0.0276
     11 C          -6.7402   -2.0274    0.8492 C.ar    1  LIG1        0.0408
     12 C          -4.8063   -0.9331   -0.8220 C.ar    1  LIG1        0.0029
     13 C         -12.5431   -4.3575    0.8553 C.ar    1  LIG1        0.0556
     14 C          -2.6815   -1.0664   -2.0873 C.ar    1  LIG1        0.0818
     15 C          -6.0457   -0.8832    1.2741 C.ar    1  LIG1        0.0767
     16 C          -9.8111   -3.9072    1.1957 C.ar    1  LIG1        0.0314
     17 C          -3.7979   -0.3527   -1.6821 C.ar    1  LIG1        0.0825
     18 C          -7.6955   -2.5277    1.7294 C.ar    1  LIG1        0.1334
     19 C          -7.2463   -0.8913    3.2272 C.ar    1  LIG1        0.1564
     20 C          -9.0504    1.0925    5.7172 C.3     1  LIG1        0.0361
     21 C          -7.5190   -0.2518    4.5463 C.3     1  LIG1        0.1062
     22 C         -14.0037   -4.5971    0.6733 C.3     1  LIG1        0.4160
     23 C          -2.4386   -2.4772   -1.6713 C.3     1  LIG1        0.4181
     24 N          -4.0502    0.9260   -2.0411 N.ar    1  LIG1       -0.2556
     25 N          -6.2970   -0.3115    2.4649 N.ar    1  LIG1       -0.2302
     26 N          -7.9720   -1.9808    2.9282 N.ar    1  LIG1       -0.2147
     27 N          -8.4365   -3.6806    1.3688 N.pl3   1  LIG1       -0.2990
     28 O          -8.7466    0.4638    4.4799 O.3     1  LIG1       -0.3766
     29 F         -14.3075   -5.8795    0.3138 F       1  LIG1       -0.1661
     30 F         -14.7413   -4.3585    1.7979 F       1  LIG1       -0.1661
     31 F         -14.5488   -3.8065   -0.2966 F       1  LIG1       -0.1661
     32 F          -1.2844   -3.0064   -2.1756 F       1  LIG1       -0.1660
     33 F          -2.3427   -2.6401   -0.3183 F       1  LIG1       -0.1660
     34 F          -3.4333   -3.3221   -2.0716 F       1  LIG1       -0.1660
     35 H          -1.2878    1.4069   -3.9483 H       1  LIG1        0.0639
     36 H          -6.9986   -3.5018   -0.7406 H       1  LIG1        0.0631
     37 H          -5.3000   -2.5297   -2.1942 H       1  LIG1        0.0630
     38 H          -0.8727   -0.9428   -3.2575 H       1  LIG1        0.0630
     39 H         -11.9826   -6.3863    0.3710 H       1  LIG1        0.0629
     40 H         -12.7852   -2.2753    1.3767 H       1  LIG1        0.0629
     41 H          -9.5697   -5.9896    0.6708 H       1  LIG1        0.0642
     42 H         -10.3736   -1.8768    1.6784 H       1  LIG1        0.0642
     43 H          -4.5322    0.5348    0.7318 H       1  LIG1        0.0653
     44 H          -3.3590    2.5400   -3.1228 H       1  LIG1        0.0840
     45 H          -9.9969    1.6314    5.6302 H       1  LIG1        0.0530
     46 H          -8.2474    1.7851    5.9818 H       1  LIG1        0.0530
     47 H          -9.1391    0.3276    6.4923 H       1  LIG1        0.0530
     48 H          -7.5923   -1.0003    5.3474 H       1  LIG1        0.0652
     49 H          -6.7176    0.4473    4.8219 H       1  LIG1        0.0652
     50 H          -7.8559   -4.4945    1.2052 H       1  LIG1        0.1543
@<TRIPOS>BOND
     1     1     4   ar
     2     1    10   ar
     3     2     3   ar
     4     2    11   ar
     5     3    12   ar
     6     4    14   ar
     7     5     7   ar
     8     5    13   ar
     9     6     8   ar
    10     6    13   ar
    11     7    16   ar
    12     8    16   ar
    13     9    12   ar
    14     9    15   ar
    15    10    24   ar
    16    11    15   ar
    17    11    18   ar
    18    12    17    1
    19    13    22    1
    20    14    17   ar
    21    14    23    1
    22    15    25   ar
    23    16    27    1
    24    17    24   ar
    25    18    26   ar
    26    18    27    1
    27    19    21    1
    28    19    25   ar
    29    19    26   ar
    30    20    28    1
    31    21    28    1
    32    22    29    1
    33    22    30    1
    34    22    31    1
    35    23    32    1
    36    23    33    1
    37    23    34    1
    38     1    35    1
    39     2    36    1
    40     3    37    1
    41     4    38    1
    42     5    39    1
    43     6    40    1
    44     7    41    1
    45     8    42    1
    46     9    43    1
    47    10    44    1
    48    20    45    1
    49    20    46    1
    50    20    47    1
    51    21    48    1
    52    21    49    1
    53    27    50    1
