@<TRIPOS>MOLECULE
ChEBML571177
 42 45 0 0 0
SMALL
USER_CHARGES

@<TRIPOS>ATOM
      1 C          -3.3506    1.4034   -3.2266 C.ar    1  LIG1       -0.0622
      2 C          -2.5407    0.3908   -3.7406 C.ar    1  LIG1       -0.0620
      3 C          -3.7349    1.3766   -1.8860 C.ar    1  LIG1       -0.0620
      4 C          -2.1151   -0.6489   -2.9139 C.ar    1  LIG1       -0.0588
      5 C          -3.3092    0.3368   -1.0593 C.ar    1  LIG1       -0.0588
      6 C         -12.3297   -3.7575    2.0284 C.ar    1  LIG1       -0.0464
      7 C         -12.7205   -4.9875    1.4961 C.ar    1  LIG1       -0.0468
      8 C         -10.4888   -5.3654    0.6498 C.ar    1  LIG1       -0.0373
      9 C         -10.0590   -4.1231    1.1770 C.ar    1  LIG1        0.0166
     10 C          -2.4992   -0.6759   -1.5732 C.ar    1  LIG1       -0.0428
     11 C          -8.7901   -3.4700    1.1512 C.ar    1  LIG1        0.0928
     12 C         -10.9957   -3.3362    1.8622 C.ar    1  LIG1        0.0220
     13 C         -11.8118   -5.7843    0.8142 C.ar    1  LIG1        0.0182
     14 C          -8.7840   -2.2567    1.7865 C.ar    1  LIG1        0.1016
     15 C          -7.6179   -1.4210    1.8865 C.ar    1  LIG1        0.2573
     16 C          -6.5904   -3.2567    0.6258 C.ar    1  LIG1        0.1457
     17 C          -2.0417   -1.7948   -0.6828 C.3     1  LIG1        0.0116
     18 C          -5.2884   -3.6943    0.0183 C.3     1  LIG1        0.0215
     19 C          -2.9895   -2.9898   -0.6577 C.3     1  LIG1       -0.0316
     20 N          -7.6462   -4.0138    0.5336 N.ar    1  LIG1       -0.2301
     21 N          -6.5259   -2.0162    1.2576 N.ar    1  LIG1       -0.2645
     22 N          -4.3170   -2.5882   -0.1113 N.4     1  LIG1        0.2442
     23 O          -7.5649   -0.3288    2.4447 O.2     1  LIG1       -0.2707
     24 S         -10.2926   -1.8602    2.4328 S.2     1  LIG1       -0.0816
     25 BR        -12.3649   -7.4452    0.0989 Br      1  LIG1       -0.0508
     26 H          -3.6809    2.2137   -3.8702 H       1  LIG1        0.0622
     27 H          -2.2406    0.4122   -4.7842 H       1  LIG1        0.0623
     28 H          -4.3645    2.1654   -1.4853 H       1  LIG1        0.0623
     29 H          -1.4844   -1.4338   -3.3230 H       1  LIG1        0.0625
     30 H          -3.6136    0.3239   -0.0160 H       1  LIG1        0.0625
     31 H         -13.0480   -3.1409    2.5610 H       1  LIG1        0.0635
     32 H         -13.7516   -5.3073    1.6276 H       1  LIG1        0.0635
     33 H          -9.7774   -5.9906    0.1141 H       1  LIG1        0.0642
     34 H          -1.0596   -2.1398   -1.0326 H       1  LIG1        0.0370
     35 H          -1.8787   -1.4270    0.3386 H       1  LIG1        0.0370
     36 H          -5.4632   -4.0857   -0.9815 H       1  LIG1        0.0898
     37 H          -4.8301   -4.4572    0.6435 H       1  LIG1        0.0898
     38 H          -2.6087   -3.7731    0.0044 H       1  LIG1        0.0817
     39 H          -3.1683   -3.4109   -1.6516 H       1  LIG1        0.0817
     40 H          -5.6438   -1.5119    1.2658 H       1  LIG1        0.1574
     41 H          -4.7122   -1.8491   -0.7140 H       1  LIG1        0.1987
     42 H          -4.1746   -2.1429    0.8090 H       1  LIG1        0.1987
@<TRIPOS>BOND
     1     1     2   ar
     2     1     3   ar
     3     2     4   ar
     4     3     5   ar
     5     4    10   ar
     6     5    10   ar
     7     6     7   ar
     8     6    12   ar
     9     7    13   ar
    10     8     9   ar
    11     8    13   ar
    12     9    11   ar
    13     9    12   ar
    14    10    17    1
    15    11    14   ar
    16    11    20   ar
    17    12    24   ar
    18    13    25    1
    19    14    15   ar
    20    14    24   ar
    21    15    21   ar
    22    15    23    2
    23    16    18    1
    24    16    20   ar
    25    16    21   ar
    26    17    19    1
    27    18    22    1
    28    19    22    1
    29     1    26    1
    30     2    27    1
    31     3    28    1
    32     4    29    1
    33     5    30    1
    34     6    31    1
    35     7    32    1
    36     8    33    1
    37    17    34    1
    38    17    35    1
    39    18    36    1
    40    18    37    1
    41    19    38    1
    42    19    39    1
    43    21    40    1
    44    22    41    1
    45    22    42    1
