@<TRIPOS>MOLECULE
ChEBML1026924
 46 49 0 0 0
SMALL
USER_CHARGES

@<TRIPOS>ATOM
      1 C         -10.3238   -5.1843    0.5966 C.ar    1  LIG1       -0.0375
      2 C         -11.6941   -5.4227    0.7342 C.ar    1  LIG1       -0.0299
      3 C         -12.0009   -3.3170    1.9028 C.ar    1  LIG1       -0.0204
      4 C          -8.9987   -0.0549    3.0469 C.ar    1  LIG1        0.1180
      5 C         -10.6219   -3.0542    1.7765 C.ar    1  LIG1        0.0262
      6 C          -9.7722   -1.9852    2.1770 C.ar    1  LIG1        0.0989
      7 C          -9.8158   -3.9927    1.1269 C.ar    1  LIG1        0.0402
      8 C          -8.4794   -2.2912    1.7673 C.ar    1  LIG1        0.0979
      9 C         -12.5217   -4.5049    1.3771 C.ar    1  LIG1        0.0754
     10 C          -7.4388   -1.4171    2.0289 C.ar    1  LIG1        0.1430
     11 C          -3.7990   -1.2908   -0.3765 C.2     1  LIG1       -0.0852
     12 C          -4.3160   -0.1127    0.0136 C.2     1  LIG1       -0.0726
     13 C          -3.4541   -1.6175   -1.7997 C.3     1  LIG1       -0.0348
     14 C          -4.6304    0.9855   -0.9719 C.3     1  LIG1       -0.0319
     15 C          -3.4339   -0.3912   -2.7125 C.3     1  LIG1       -0.0495
     16 C          -4.6221    0.5206   -2.4306 C.3     1  LIG1       -0.0493
     17 C         -14.3267   -5.9911    0.9428 C.3     1  LIG1        0.0422
     18 C          -4.6107    0.1849    1.4475 C.3     1  LIG1       -0.0164
     19 C          -4.9716   -1.0866    2.2008 C.3     1  LIG1        0.0135
     20 N         -10.0745   -0.8403    2.8391 N.ar    1  LIG1       -0.2341
     21 N          -7.7144   -0.2705    2.6868 N.ar    1  LIG1       -0.2197
     22 N          -8.5266   -3.5058    1.1357 N.ar    1  LIG1       -0.3097
     23 N          -6.1256   -1.7092    1.6227 N.pl3   1  LIG1       -0.3275
     24 O         -13.8541   -4.7652    1.4970 O.3     1  LIG1       -0.3493
     25 H          -9.6812   -5.9003    0.0955 H       1  LIG1        0.0643
     26 H         -12.1133   -6.3415    0.3306 H       1  LIG1        0.0651
     27 H         -12.6532   -2.6062    2.4032 H       1  LIG1        0.0658
     28 H          -9.1886    0.8741    3.5735 H       1  LIG1        0.1063
     29 H          -3.6042   -2.0665    0.3595 H       1  LIG1        0.0575
     30 H          -2.4719   -2.1024   -1.8335 H       1  LIG1        0.0310
     31 H          -4.1842   -2.3454   -2.1730 H       1  LIG1        0.0310
     32 H          -5.6155    1.4140   -0.7516 H       1  LIG1        0.0312
     33 H          -3.8939    1.7882   -0.8421 H       1  LIG1        0.0312
     34 H          -2.5020    0.1676   -2.5575 H       1  LIG1        0.0270
     35 H          -3.4426   -0.7105   -3.7607 H       1  LIG1        0.0270
     36 H          -5.5532   -0.0175   -2.6495 H       1  LIG1        0.0270
     37 H          -4.5950    1.3918   -3.0948 H       1  LIG1        0.0270
     38 H         -15.4038   -6.0745    1.1066 H       1  LIG1        0.0535
     39 H         -13.8093   -6.8294    1.4160 H       1  LIG1        0.0535
     40 H         -14.1221   -5.9983   -0.1304 H       1  LIG1        0.0535
     41 H          -5.4562    0.8800    1.4702 H       1  LIG1        0.0328
     42 H          -3.7375    0.6770    1.8881 H       1  LIG1        0.0328
     43 H          -4.1335   -1.7894    2.1508 H       1  LIG1        0.0469
     44 H          -5.1695   -0.8760    3.2571 H       1  LIG1        0.0469
     45 H          -7.7307   -3.9807    0.7324 H       1  LIG1        0.1530
     46 H          -6.0113   -2.3881    0.8907 H       1  LIG1        0.1480
@<TRIPOS>BOND
     1     1     2   ar
     2     1     7   ar
     3     2     9   ar
     4     3     5   ar
     5     3     9   ar
     6     4    20   ar
     7     4    21   ar
     8     5     6   ar
     9     5     7   ar
    10     6     8   ar
    11     6    20   ar
    12     7    22   ar
    13     8    10   ar
    14     8    22   ar
    15     9    24    1
    16    10    21   ar
    17    10    23    1
    18    11    12    2
    19    11    13    1
    20    12    14    1
    21    12    18    1
    22    13    15    1
    23    14    16    1
    24    15    16    1
    25    17    24    1
    26    18    19    1
    27    19    23    1
    28     1    25    1
    29     2    26    1
    30     3    27    1
    31     4    28    1
    32    11    29    1
    33    13    30    1
    34    13    31    1
    35    14    32    1
    36    14    33    1
    37    15    34    1
    38    15    35    1
    39    16    36    1
    40    16    37    1
    41    17    38    1
    42    17    39    1
    43    17    40    1
    44    18    41    1
    45    18    42    1
    46    19    43    1
    47    19    44    1
    48    22    45    1
    49    23    46    1
