@<TRIPOS>MOLECULE
ChEBML369967
 46 49 0 0 0
SMALL
USER_CHARGES

@<TRIPOS>ATOM
      1 C          -1.6855    0.1653   -3.9242 C.ar    1  LIG1       -0.0621
      2 C          -2.2203   -0.8478   -3.1496 C.ar    1  LIG1       -0.0604
      3 C          -1.9572    1.4873   -3.6227 C.ar    1  LIG1       -0.0604
      4 C         -12.0284   -4.0257    1.7604 C.ar    1  LIG1       -0.0504
      5 C          -3.0274   -0.5421   -2.0715 C.ar    1  LIG1       -0.0411
      6 C          -2.7682    1.7998   -2.5495 C.ar    1  LIG1       -0.0411
      7 C         -12.3341   -5.0884    0.9635 C.ar    1  LIG1       -0.0313
      8 C         -10.1374   -2.3764    2.3861 C.ar    1  LIG1       -0.0262
      9 C         -10.1136   -5.0750    0.0241 C.ar    1  LIG1       -0.0100
     10 C         -10.7484   -3.4565    1.7057 C.ar    1  LIG1       -0.0020
     11 C          -9.7841   -3.9871    0.8258 C.ar    1  LIG1        0.0404
     12 C          -3.3023    0.7847   -1.7658 C.ar    1  LIG1        0.0262
     13 C         -11.3833   -5.6169    0.0907 C.ar    1  LIG1        0.0732
     14 C          -8.8615   -2.2680    1.9303 C.ar    1  LIG1        0.0947
     15 C          -7.8788   -1.2714    2.3773 C.2     1  LIG1        0.2598
     16 C          -4.9790    0.5642    1.5501 C.3     1  LIG1       -0.0188
     17 C          -5.9754   -0.4836   -0.4896 C.3     1  LIG1       -0.0188
     18 C          -5.5345   -0.5677    2.4203 C.3     1  LIG1        0.0162
     19 C          -6.5407   -1.6324    0.3593 C.3     1  LIG1        0.0162
     20 C          -4.6811    0.0257    0.1488 C.3     1  LIG1        0.0227
     21 N          -8.6359   -3.2457    0.9784 N.ar    1  LIG1       -0.3100
     22 N          -6.6957   -1.1595    1.7419 N.am    1  LIG1       -0.2966
     23 N          -4.1186    1.0975   -0.6765 N.pl3   1  LIG1       -0.3414
     24 O          -8.1333   -0.5472    3.3213 O.2     1  LIG1       -0.2702
     25 O         -11.7059   -6.6763   -0.6960 O.3     1  LIG1       -0.3608
     26 H          -1.0540   -0.0765   -4.7663 H       1  LIG1        0.0622
     27 H          -2.0061   -1.8792   -3.3878 H       1  LIG1        0.0623
     28 H          -1.5379    2.2760   -4.2297 H       1  LIG1        0.0623
     29 H         -12.7713   -3.6226    2.4327 H       1  LIG1        0.0630
     30 H          -3.4441   -1.3337   -1.4665 H       1  LIG1        0.0642
     31 H          -2.9836    2.8324   -2.3172 H       1  LIG1        0.0642
     32 H         -13.3211   -5.5246    1.0080 H       1  LIG1        0.0650
     33 H         -10.6020   -1.7500    3.1332 H       1  LIG1        0.0651
     34 H          -9.3809   -5.4922   -0.6509 H       1  LIG1        0.0670
     35 H          -5.7143    1.3659    1.4830 H       1  LIG1        0.0302
     36 H          -4.0610    0.9481    1.9950 H       1  LIG1        0.0302
     37 H          -6.7014    0.3280   -0.5373 H       1  LIG1        0.0302
     38 H          -5.7666   -0.8455   -1.4963 H       1  LIG1        0.0302
     39 H          -5.8406   -0.1686    3.3873 H       1  LIG1        0.0470
     40 H          -4.7676   -1.3289    2.5630 H       1  LIG1        0.0470
     41 H          -5.8542   -2.4787    0.3375 H       1  LIG1        0.0470
     42 H          -7.5109   -1.9360   -0.0338 H       1  LIG1        0.0470
     43 H          -3.9644   -0.7926    0.2190 H       1  LIG1        0.0503
     44 H          -7.8049   -3.3857    0.4980 H       1  LIG1        0.1529
     45 H          -4.3132    2.0242   -0.4664 H       1  LIG1        0.1468
     46 H         -11.4900   -7.4737   -0.1933 H       1  LIG1        0.2182
@<TRIPOS>BOND
     1     1     2   ar
     2     1     3   ar
     3     2     5   ar
     4     3     6   ar
     5     4     7   ar
     6     4    10   ar
     7     5    12   ar
     8     6    12   ar
     9     7    13   ar
    10     8    10   ar
    11     8    14   ar
    12     9    11   ar
    13     9    13   ar
    14    10    11   ar
    15    11    21   ar
    16    12    23    1
    17    13    25    1
    18    14    15    1
    19    14    21   ar
    20    15    22   am
    21    15    24    2
    22    16    18    1
    23    16    20    1
    24    17    19    1
    25    17    20    1
    26    18    22    1
    27    19    22    1
    28    20    23    1
    29     1    26    1
    30     2    27    1
    31     3    28    1
    32     4    29    1
    33     5    30    1
    34     6    31    1
    35     7    32    1
    36     8    33    1
    37     9    34    1
    38    16    35    1
    39    16    36    1
    40    17    37    1
    41    17    38    1
    42    18    39    1
    43    18    40    1
    44    19    41    1
    45    19    42    1
    46    20    43    1
    47    21    44    1
    48    23    45    1
    49    25    46    1
