@<TRIPOS>MOLECULE
ChEBML188730
 51 55 0 0 0
SMALL
USER_CHARGES

@<TRIPOS>ATOM
      1 C          -1.7856    0.3943   -4.2299 C.ar    1  LIG1       -0.0622
      2 C         -12.3301   -4.9906    1.4354 C.ar    1  LIG1       -0.0615
      3 C          -1.0510    0.1998   -3.0602 C.ar    1  LIG1       -0.0616
      4 C          -3.1658    0.5847   -4.1632 C.ar    1  LIG1       -0.0616
      5 C          -2.6704    3.6998    0.9477 C.ar    1  LIG1       -0.0614
      6 C         -11.5310   -5.5648    0.4485 C.ar    1  LIG1       -0.0603
      7 C          -2.3729    3.3808    2.2653 C.ar    1  LIG1       -0.0603
      8 C         -11.8974   -3.8615    2.1403 C.ar    1  LIG1       -0.0530
      9 C          -1.6967    0.1954   -1.8238 C.ar    1  LIG1       -0.0528
     10 C          -3.8115    0.5803   -2.9268 C.ar    1  LIG1       -0.0528
     11 C          -3.1533    2.7139    0.0931 C.ar    1  LIG1       -0.0509
     12 C         -10.2778   -5.0311    0.1349 C.ar    1  LIG1       -0.0402
     13 C          -2.5813    2.0817    2.7355 C.ar    1  LIG1       -0.0398
     14 C          -9.8994   -2.1966    2.3412 C.ar    1  LIG1       -0.0262
     15 C         -10.6374   -3.3059    1.8416 C.ar    1  LIG1       -0.0022
     16 C          -3.0769    0.3857   -1.7571 C.ar    1  LIG1        0.0005
     17 C          -3.3462    1.3988    0.5540 C.ar    1  LIG1        0.0220
     18 C          -9.8583   -3.9023    0.8478 C.ar    1  LIG1        0.0378
     19 C          -3.0988    1.0697    1.9027 C.ar    1  LIG1        0.0446
     20 C          -8.7086   -2.1422    1.6543 C.ar    1  LIG1        0.0945
     21 C          -3.7548    0.3810   -0.4588 C.2     1  LIG1        0.0767
     22 C          -4.3479   -1.1048    2.0077 C.2     1  LIG1        0.2615
     23 C          -7.5980   -1.1677    1.8100 C.2     1  LIG1        0.2592
     24 C          -5.3396   -0.5063    1.0239 C.3     1  LIG1        0.1932
     25 C          -2.4597   -0.7005    3.5273 C.3     1  LIG1        0.0081
     26 N          -4.6787   -0.4981   -0.2642 N.2     1  LIG1       -0.2514
     27 N          -8.6932   -3.1748    0.7555 N.ar    1  LIG1       -0.3101
     28 N          -3.3333   -0.2401    2.4472 N.am    1  LIG1       -0.2707
     29 N          -6.5020   -1.3518    0.9758 N.am    1  LIG1       -0.2807
     30 O          -4.4653   -2.2703    2.3959 O.2     1  LIG1       -0.2726
     31 O          -7.6897   -0.2840    2.6580 O.2     1  LIG1       -0.2703
     32 H          -1.2829    0.3978   -5.1926 H       1  LIG1        0.0622
     33 H         -13.3013   -5.4232    1.6608 H       1  LIG1        0.0623
     34 H           0.0235    0.0514   -3.1125 H       1  LIG1        0.0623
     35 H          -3.7378    0.7365   -5.0739 H       1  LIG1        0.0623
     36 H          -2.5180    4.7110    0.5830 H       1  LIG1        0.0623
     37 H         -11.8868   -6.4415   -0.0862 H       1  LIG1        0.0623
     38 H          -1.9889    4.1437    2.9364 H       1  LIG1        0.0623
     39 H         -12.5306   -3.4236    2.9069 H       1  LIG1        0.0629
     40 H          -1.1145    0.0430   -0.9186 H       1  LIG1        0.0630
     41 H          -4.8874    0.7294   -2.8867 H       1  LIG1        0.0630
     42 H          -3.3656    2.9835   -0.9389 H       1  LIG1        0.0630
     43 H          -9.6557   -5.4785   -0.6330 H       1  LIG1        0.0642
     44 H          -2.3608    1.8942    3.7835 H       1  LIG1        0.0643
     45 H         -10.2107   -1.5136    3.1206 H       1  LIG1        0.0651
     46 H          -5.6966    0.4773    1.3468 H       1  LIG1        0.0868
     47 H          -2.8782   -0.4161    4.4961 H       1  LIG1        0.0437
     48 H          -1.4672   -0.2527    3.4274 H       1  LIG1        0.0437
     49 H          -2.3583   -1.7886    3.4934 H       1  LIG1        0.0437
     50 H          -7.9369   -3.3775    0.1159 H       1  LIG1        0.1529
     51 H          -6.4767   -2.1477    0.3416 H       1  LIG1        0.1524
@<TRIPOS>BOND
     1     1     3   ar
     2     1     4   ar
     3     2     6   ar
     4     2     8   ar
     5     3     9   ar
     6     4    10   ar
     7     5     7   ar
     8     5    11   ar
     9     6    12   ar
    10     7    13   ar
    11     8    15   ar
    12     9    16   ar
    13    10    16   ar
    14    11    17   ar
    15    12    18   ar
    16    13    19   ar
    17    14    15   ar
    18    14    20   ar
    19    15    18   ar
    20    16    21    1
    21    17    19   ar
    22    17    21    1
    23    18    27   ar
    24    19    28    1
    25    20    23    1
    26    20    27   ar
    27    21    26    2
    28    22    24    1
    29    22    28   am
    30    22    30    2
    31    23    29   am
    32    23    31    2
    33    24    26    1
    34    24    29    1
    35    25    28    1
    36     1    32    1
    37     2    33    1
    38     3    34    1
    39     4    35    1
    40     5    36    1
    41     6    37    1
    42     7    38    1
    43     8    39    1
    44     9    40    1
    45    10    41    1
    46    11    42    1
    47    12    43    1
    48    13    44    1
    49    14    45    1
    50    24    46    1
    51    25    47    1
    52    25    48    1
    53    25    49    1
    54    27    50    1
    55    29    51    1
