@<TRIPOS>MOLECULE
ChEBML369963
 46 49 0 0 0
SMALL
USER_CHARGES

@<TRIPOS>ATOM
      1 C          -1.2572   -1.6874   -4.5419 C.ar    1  LIG1       -0.0622
      2 C          -1.8738   -2.4719   -3.5829 C.ar    1  LIG1       -0.0615
      3 C          -1.4131   -0.3122   -4.5266 C.ar    1  LIG1       -0.0615
      4 C         -11.9696   -3.7177    1.8087 C.ar    1  LIG1       -0.0504
      5 C          -2.6496   -1.8879   -2.6039 C.ar    1  LIG1       -0.0514
      6 C          -2.1904    0.2862   -3.5575 C.ar    1  LIG1       -0.0514
      7 C         -12.3662   -4.8933    1.2442 C.ar    1  LIG1       -0.0313
      8 C          -9.9439   -2.1385    2.1091 C.ar    1  LIG1       -0.0262
      9 C         -10.1545   -5.2608    0.3573 C.ar    1  LIG1       -0.0100
     10 C         -10.6460   -3.2813    1.6574 C.ar    1  LIG1       -0.0020
     11 C          -2.8124   -0.4991   -2.5818 C.ar    1  LIG1        0.0178
     12 C          -9.7321   -4.0617    0.9217 C.ar    1  LIG1        0.0404
     13 C         -11.4655   -5.6690    0.5147 C.ar    1  LIG1        0.0732
     14 C          -8.6643   -2.2341    1.6608 C.ar    1  LIG1        0.0947
     15 C          -3.6391    0.1321   -1.5406 C.2     1  LIG1        0.1656
     16 C          -7.5996   -1.2522    1.9073 C.2     1  LIG1        0.2598
     17 C          -4.5557    0.1227    0.7637 C.3     1  LIG1       -0.0271
     18 C          -5.6418   -1.2385   -1.0304 C.3     1  LIG1       -0.0271
     19 C          -5.2038   -0.7535    1.8404 C.3     1  LIG1        0.0152
     20 C          -6.3011   -2.1347    0.0289 C.3     1  LIG1        0.0152
     21 C          -4.3076   -0.7179   -0.4910 C.3     1  LIG1        0.0253
     22 N          -8.5246   -3.4035    0.9355 N.ar    1  LIG1       -0.3100
     23 N          -6.4124   -1.3739    1.2810 N.am    1  LIG1       -0.2967
     24 O          -3.7822    1.3361   -1.5272 O.2     1  LIG1       -0.2938
     25 O          -7.7896   -0.3291    2.6768 O.2     1  LIG1       -0.2702
     26 O         -11.8786   -6.8379   -0.0406 O.3     1  LIG1       -0.3608
     27 H          -0.6508   -2.1507   -5.3062 H       1  LIG1        0.0622
     28 H          -1.7468   -3.5443   -3.6012 H       1  LIG1        0.0623
     29 H          -0.9285    0.2932   -5.2781 H       1  LIG1        0.0623
     30 H         -12.6741   -3.1232    2.3713 H       1  LIG1        0.0630
     31 H          -3.1298   -2.5014   -1.8559 H       1  LIG1        0.0630
     32 H          -2.3147    1.3590   -3.5493 H       1  LIG1        0.0630
     33 H         -13.3866   -5.2266    1.3626 H       1  LIG1        0.0650
     34 H         -10.3520   -1.3341    2.7030 H       1  LIG1        0.0651
     35 H          -9.4613   -5.8688   -0.2051 H       1  LIG1        0.0670
     36 H          -5.2203    0.9516    0.5206 H       1  LIG1        0.0290
     37 H          -3.6075    0.5124    1.1338 H       1  LIG1        0.0290
     38 H          -6.2962   -0.3966   -1.2565 H       1  LIG1        0.0290
     39 H          -5.4666   -1.8176   -1.9371 H       1  LIG1        0.0290
     40 H          -5.4729   -0.1382    2.6989 H       1  LIG1        0.0470
     41 H          -4.5041   -1.5299    2.1496 H       1  LIG1        0.0470
     42 H          -5.6891   -3.0215    0.1935 H       1  LIG1        0.0470
     43 H          -7.2944   -2.4311   -0.3081 H       1  LIG1        0.0470
     44 H          -3.6629   -1.5607   -0.2418 H       1  LIG1        0.0388
     45 H          -7.7096   -3.7091    0.5075 H       1  LIG1        0.1529
     46 H         -11.7304   -7.5287    0.6195 H       1  LIG1        0.2182
@<TRIPOS>BOND
     1     1     2   ar
     2     1     3   ar
     3     2     5   ar
     4     3     6   ar
     5     4     7   ar
     6     4    10   ar
     7     5    11   ar
     8     6    11   ar
     9     7    13   ar
    10     8    10   ar
    11     8    14   ar
    12     9    12   ar
    13     9    13   ar
    14    10    12   ar
    15    11    15    1
    16    12    22   ar
    17    13    26    1
    18    14    16    1
    19    14    22   ar
    20    15    21    1
    21    15    24    2
    22    16    23   am
    23    16    25    2
    24    17    19    1
    25    17    21    1
    26    18    20    1
    27    18    21    1
    28    19    23    1
    29    20    23    1
    30     1    27    1
    31     2    28    1
    32     3    29    1
    33     4    30    1
    34     5    31    1
    35     6    32    1
    36     7    33    1
    37     8    34    1
    38     9    35    1
    39    17    36    1
    40    17    37    1
    41    18    38    1
    42    18    39    1
    43    19    40    1
    44    19    41    1
    45    20    42    1
    46    20    43    1
    47    21    44    1
    48    22    45    1
    49    26    46    1
