@<TRIPOS>MOLECULE
ChEBML512689
 33 35 0 0 0
SMALL
USER_CHARGES

@<TRIPOS>ATOM
      1 C          -4.0427    1.6655    0.0176 C.ar    1  LIG1       -0.0621
      2 C         -12.5410   -4.6842    1.4095 C.ar    1  LIG1       -0.0615
      3 C         -11.6942   -5.5089    0.6793 C.ar    1  LIG1       -0.0603
      4 C          -5.1978    1.9190    0.7345 C.ar    1  LIG1       -0.0604
      5 C          -3.6694    0.3632   -0.2599 C.ar    1  LIG1       -0.0604
      6 C         -12.0814   -3.5173    1.9468 C.ar    1  LIG1       -0.0530
      7 C         -10.3756   -5.1644    0.4840 C.ar    1  LIG1       -0.0402
      8 C          -5.9827    0.8717    1.1753 C.ar    1  LIG1       -0.0405
      9 C          -4.4468   -0.6890    0.1829 C.ar    1  LIG1       -0.0405
     10 C          -9.9791   -2.0278    2.1786 C.ar    1  LIG1       -0.0262
     11 C         -10.7437   -3.1442    1.7618 C.ar    1  LIG1       -0.0022
     12 C          -9.8832   -3.9783    1.0215 C.ar    1  LIG1        0.0378
     13 C          -5.6105   -0.4376    0.8983 C.ar    1  LIG1        0.0354
     14 C          -8.7158   -2.1917    1.7053 C.ar    1  LIG1        0.0950
     15 C          -7.6005   -1.2563    1.9113 C.2     1  LIG1        0.2638
     16 C          -5.9308   -2.8790    1.1929 C.3     1  LIG1        0.0083
     17 N          -8.6483   -3.3745    0.9946 N.ar    1  LIG1       -0.3101
     18 N          -6.4027   -1.5003    1.3435 N.am    1  LIG1       -0.2696
     19 O          -7.7586   -0.2619    2.5942 O.2     1  LIG1       -0.2698
     20 H          -3.4311    2.4863   -0.3266 H       1  LIG1        0.0622
     21 H         -13.5727   -4.9697    1.5534 H       1  LIG1        0.0623
     22 H         -12.0740   -6.4293    0.2611 H       1  LIG1        0.0623
     23 H          -5.4866    2.9372    0.9495 H       1  LIG1        0.0623
     24 H          -2.7668    0.1685   -0.8200 H       1  LIG1        0.0623
     25 H         -12.7470   -2.8831    2.5135 H       1  LIG1        0.0629
     26 H          -9.7253   -5.8121   -0.0851 H       1  LIG1        0.0642
     27 H          -6.8850    1.0703    1.7345 H       1  LIG1        0.0642
     28 H          -4.1524   -1.7059   -0.0303 H       1  LIG1        0.0642
     29 H         -10.3358   -1.1954    2.7669 H       1  LIG1        0.0651
     30 H          -6.2389   -3.4651    2.0586 H       1  LIG1        0.0437
     31 H          -6.3588   -3.3128    0.2893 H       1  LIG1        0.0437
     32 H          -4.8432   -2.8847    1.1188 H       1  LIG1        0.0437
     33 H          -7.8589   -3.7228    0.5516 H       1  LIG1        0.1529
@<TRIPOS>BOND
     1     1     4   ar
     2     1     5   ar
     3     2     3   ar
     4     2     6   ar
     5     3     7   ar
     6     4     8   ar
     7     5     9   ar
     8     6    11   ar
     9     7    12   ar
    10     8    13   ar
    11     9    13   ar
    12    10    11   ar
    13    10    14   ar
    14    11    12   ar
    15    12    17   ar
    16    13    18    1
    17    14    15    1
    18    14    17   ar
    19    15    18   am
    20    15    19    2
    21    16    18    1
    22     1    20    1
    23     2    21    1
    24     3    22    1
    25     4    23    1
    26     5    24    1
    27     6    25    1
    28     7    26    1
    29     8    27    1
    30     9    28    1
    31    10    29    1
    32    16    30    1
    33    16    31    1
    34    16    32    1
    35    17    33    1
