@<TRIPOS>MOLECULE
ChEBML767465
 49 52 0 0 0
SMALL
USER_CHARGES

@<TRIPOS>ATOM
      1 C          -2.4042    0.7918   -3.6102 C.ar    1  LIG1       -0.0622
      2 C          -3.7823    0.6897   -3.5711 C.ar    1  LIG1       -0.0619
      3 C          -1.6450    0.3035   -2.5633 C.ar    1  LIG1       -0.0619
      4 C          -4.4010    0.0990   -2.4852 C.ar    1  LIG1       -0.0561
      5 C          -2.2640   -0.2834   -1.4755 C.ar    1  LIG1       -0.0561
      6 C         -12.1678   -3.4053    1.6921 C.ar    1  LIG1       -0.0489
      7 C         -11.6382   -5.3592    0.4200 C.ar    1  LIG1       -0.0378
      8 C         -10.8233   -3.0262    1.6556 C.ar    1  LIG1        0.0128
      9 C          -3.6417   -0.3901   -1.4387 C.ar    1  LIG1       -0.0164
     10 C         -12.5621   -4.5629    1.0832 C.ar    1  LIG1       -0.0488
     11 C         -10.0698   -1.8906    2.1860 C.ar    1  LIG1       -0.0048
     12 C          -9.8821   -3.8288    0.9853 C.ar    1  LIG1        0.1085
     13 C         -10.3077   -5.0007    0.3678 C.ar    1  LIG1        0.0723
     14 C          -8.7796   -2.0864    1.8097 C.ar    1  LIG1        0.1483
     15 C          -7.6607   -1.1869    2.1250 C.2     1  LIG1        0.2696
     16 C          -5.6186   -1.6975   -0.7089 C.3     1  LIG1       -0.0039
     17 C          -4.6250    0.0322    0.7984 C.3     1  LIG1       -0.0039
     18 C          -6.2840   -2.3805    0.4901 C.3     1  LIG1        0.0176
     19 C          -5.2804   -0.6268    2.0102 C.3     1  LIG1        0.0176
     20 C          -4.3162   -1.0342   -0.2550 C.3     1  LIG1        0.0927
     21 C         -14.0109   -4.9752    1.1263 C.3     1  LIG1       -0.0397
     22 C         -10.6146   -0.7366    2.9878 C.3     1  LIG1       -0.0363
     23 N          -6.4526   -1.3920    1.5639 N.am    1  LIG1       -0.2958
     24 O          -7.8251   -0.2574    2.8925 O.2     1  LIG1       -0.2693
     25 O          -8.6801   -3.2314    1.1026 O.2     1  LIG1       -0.3024
     26 O          -3.4498   -2.0217    0.3072 O.3     1  LIG1       -0.3850
     27 CL         -9.1667   -6.0092   -0.4655 Cl      1  LIG1       -0.0814
     28 H          -1.9208    1.2526   -4.4589 H       1  LIG1        0.0622
     29 H          -4.3754    1.0712   -4.3890 H       1  LIG1        0.0623
     30 H          -0.5683    0.3829   -2.5940 H       1  LIG1        0.0623
     31 H          -5.4777    0.0192   -2.4546 H       1  LIG1        0.0626
     32 H          -1.6709   -0.6616   -0.6559 H       1  LIG1        0.0626
     33 H         -12.8916   -2.7876    2.2027 H       1  LIG1        0.0633
     34 H         -11.9651   -6.2698   -0.0600 H       1  LIG1        0.0642
     35 H          -5.4004   -2.4405   -1.4759 H       1  LIG1        0.0316
     36 H          -6.2899   -0.9408   -1.1152 H       1  LIG1        0.0316
     37 H          -3.6996    0.5203    1.1041 H       1  LIG1        0.0316
     38 H          -5.3056    0.7726    0.3778 H       1  LIG1        0.0316
     39 H          -5.6538   -3.1975    0.8412 H       1  LIG1        0.0471
     40 H          -7.2586   -2.7691    0.1947 H       1  LIG1        0.0471
     41 H          -5.5931    0.1413    2.7175 H       1  LIG1        0.0471
     42 H          -4.5665   -1.2977    2.4882 H       1  LIG1        0.0471
     43 H         -14.5333   -4.5574    0.2658 H       1  LIG1        0.0280
     44 H         -14.0801   -6.0626    1.1007 H       1  LIG1        0.0280
     45 H         -14.4672   -4.6036    2.0438 H       1  LIG1        0.0280
     46 H         -10.9206    0.0626    2.3126 H       1  LIG1        0.0281
     47 H         -11.4745   -1.0712    3.5680 H       1  LIG1        0.0281
     48 H          -9.8428   -0.3666    3.6626 H       1  LIG1        0.0281
     49 H          -2.6432   -1.5634    0.5797 H       1  LIG1        0.2113
@<TRIPOS>BOND
     1     1     2   ar
     2     1     3   ar
     3     2     4   ar
     4     3     5   ar
     5     4     9   ar
     6     5     9   ar
     7     6     8   ar
     8     6    10   ar
     9     7    10   ar
    10     7    13   ar
    11     8    11   ar
    12     8    12   ar
    13     9    20    1
    14    10    21    1
    15    11    14   ar
    16    11    22    1
    17    12    13   ar
    18    12    25   ar
    19    13    27    1
    20    14    15    1
    21    14    25   ar
    22    15    23   am
    23    15    24    2
    24    16    18    1
    25    16    20    1
    26    17    19    1
    27    17    20    1
    28    18    23    1
    29    19    23    1
    30    20    26    1
    31     1    28    1
    32     2    29    1
    33     3    30    1
    34     4    31    1
    35     5    32    1
    36     6    33    1
    37     7    34    1
    38    16    35    1
    39    16    36    1
    40    17    37    1
    41    17    38    1
    42    18    39    1
    43    18    40    1
    44    19    41    1
    45    19    42    1
    46    21    43    1
    47    21    44    1
    48    21    45    1
    49    22    46    1
    50    22    47    1
    51    22    48    1
    52    26    49    1
