@<TRIPOS>MOLECULE
ChEBML17360
 35 36 0 0 0
SMALL
USER_CHARGES

@<TRIPOS>ATOM
      1 C         -11.5363   -5.3766    0.4529 C.ar    1  LIG1       -0.0395
      2 C         -12.1064   -3.4477    1.7912 C.ar    1  LIG1       -0.0395
      3 C         -10.2062   -4.9583    0.4164 C.ar    1  LIG1       -0.0388
      4 C         -10.7763   -3.0293    1.7548 C.ar    1  LIG1       -0.0388
      5 C          -2.4018   -0.6236   -1.8061 C.ar    1  LIG1        0.0153
      6 C          -3.4515    1.0789   -2.7311 C.ar    1  LIG1        0.0842
      7 C         -12.4865   -4.6213    1.1402 C.ar    1  LIG1        0.0235
      8 C          -9.8261   -3.7846    1.0674 C.ar    1  LIG1        0.0348
      9 C          -3.6366   -0.4238   -1.2352 C.ar    1  LIG1        0.0558
     10 C          -7.9238   -2.2367    1.6113 C.2     1  LIG1        0.3550
     11 C          -4.2869   -1.2042   -0.1209 C.3     1  LIG1       -0.0069
     12 C          -5.2279   -0.3260    0.7041 C.3     1  LIG1       -0.0233
     13 C          -5.8506   -1.1007    1.8573 C.3     1  LIG1        0.0584
     14 N          -4.2851    0.6373   -1.8156 N.ar    1  LIG1       -0.2445
     15 N          -2.2976    0.3462   -2.7629 N.ar    1  LIG1       -0.3103
     16 N         -13.8319   -5.0432    1.1755 N.pl3   1  LIG1       -0.3583
     17 N          -8.4957   -3.3663    1.0310 N.am    1  LIG1       -0.2610
     18 O          -8.4915   -1.3788    2.2763 O.2     1  LIG1       -0.2421
     19 O          -6.5845   -2.2105    1.3268 O.3     1  LIG1       -0.3001
     20 H         -11.8214   -6.2923   -0.0588 H       1  LIG1        0.0643
     21 H         -12.8385   -2.8514    2.3297 H       1  LIG1        0.0643
     22 H          -9.4740   -5.5539   -0.1232 H       1  LIG1        0.0643
     23 H         -10.4903   -2.1127    2.2644 H       1  LIG1        0.0643
     24 H          -1.6136   -1.3411   -1.6281 H       1  LIG1        0.0809
     25 H          -3.6199    1.9144   -3.3959 H       1  LIG1        0.1013
     26 H          -3.5149   -1.6351    0.5297 H       1  LIG1        0.0333
     27 H          -4.8425   -2.0537   -0.5387 H       1  LIG1        0.0333
     28 H          -6.0251    0.0853    0.0712 H       1  LIG1        0.0294
     29 H          -4.6916    0.5462    1.1008 H       1  LIG1        0.0294
     30 H          -5.0785   -1.4845    2.5319 H       1  LIG1        0.0574
     31 H          -6.5391   -0.4678    2.4262 H       1  LIG1        0.0574
     32 H          -1.5111    0.4956   -3.3807 H       1  LIG1        0.1531
     33 H         -14.1006   -5.8598    0.6647 H       1  LIG1        0.1426
     34 H         -14.5112   -4.4684    1.6315 H       1  LIG1        0.1426
     35 H          -7.8537   -3.9706    0.5076 H       1  LIG1        0.1581
@<TRIPOS>BOND
     1     1     3   ar
     2     1     7   ar
     3     2     4   ar
     4     2     7   ar
     5     3     8   ar
     6     4     8   ar
     7     5     9   ar
     8     5    15   ar
     9     6    14   ar
    10     6    15   ar
    11     7    16    1
    12     8    17    1
    13     9    11    1
    14     9    14   ar
    15    10    17   am
    16    10    18    2
    17    10    19    1
    18    11    12    1
    19    12    13    1
    20    13    19    1
    21     1    20    1
    22     2    21    1
    23     3    22    1
    24     4    23    1
    25     5    24    1
    26     6    25    1
    27    11    26    1
    28    11    27    1
    29    12    28    1
    30    12    29    1
    31    13    30    1
    32    13    31    1
    33    15    32    1
    34    16    33    1
    35    16    34    1
    36    17    35    1
