@<TRIPOS>MOLECULE
ChEBML931892
 39 41 0 0 0
SMALL
USER_CHARGES

@<TRIPOS>ATOM
      1 C         -11.2629   -5.5748    0.7235 C.ar    1  LIG1       -0.0600
      2 C         -12.2878   -4.9699    1.4547 C.ar    1  LIG1       -0.0602
      3 C          -2.4910    1.5126   -3.5962 C.ar    1  LIG1       -0.0594
      4 C          -1.3526    0.7891   -3.2409 C.ar    1  LIG1       -0.0591
      5 C          -9.9958   -4.9849    0.6334 C.ar    1  LIG1       -0.0344
      6 C         -12.0855   -3.7567    2.1211 C.ar    1  LIG1       -0.0385
      7 C          -3.7321    1.1670   -3.0614 C.ar    1  LIG1       -0.0318
      8 C          -2.6963   -0.6254   -1.8160 C.ar    1  LIG1       -0.0289
      9 C          -1.4553   -0.2799   -2.3508 C.ar    1  LIG1       -0.0485
     10 C          -9.7750   -3.7660    1.2965 C.ar    1  LIG1        0.0871
     11 C         -10.8158   -3.1875    2.0174 C.ar    1  LIG1        0.0580
     12 C          -3.8348    0.0980   -2.1714 C.ar    1  LIG1        0.0752
     13 C          -8.9770   -1.9611    2.1120 C.ar    1  LIG1        0.1575
     14 C          -0.2380   -1.0536   -1.9714 C.3     1  LIG1       -0.0397
     15 C          -6.3642   -0.4706    0.3475 C.3     1  LIG1       -0.0195
     16 C          -5.0545   -0.8198   -0.3477 C.3     1  LIG1        0.0541
     17 C          -6.4153   -1.0537    1.7543 C.3     1  LIG1        0.0030
     18 N          -8.6407   -2.9901    1.3669 N.ar    1  LIG1       -0.2249
     19 N         -10.2772   -2.0345    2.5281 N.ar    1  LIG1       -0.2923
     20 O          -5.0543   -0.2411   -1.6453 O.3     1  LIG1       -0.3460
     21 S          -7.9834   -0.6300    2.5686 S.3     1  LIG1       -0.0905
     22 H         -11.4510   -6.5175    0.2160 H       1  LIG1        0.0623
     23 H         -13.2623   -5.4490    1.5085 H       1  LIG1        0.0623
     24 H          -2.4109    2.3451   -4.2888 H       1  LIG1        0.0623
     25 H          -0.3900    1.0655   -3.6631 H       1  LIG1        0.0625
     26 H          -9.2061   -5.4636    0.0630 H       1  LIG1        0.0646
     27 H         -12.8793   -3.2854    2.6894 H       1  LIG1        0.0643
     28 H          -4.6149    1.7344   -3.3422 H       1  LIG1        0.0650
     29 H          -2.7794   -1.4587   -1.1221 H       1  LIG1        0.0653
     30 H           0.2353   -0.6113   -1.0862 H       1  LIG1        0.0280
     31 H          -0.4844   -2.0997   -1.7479 H       1  LIG1        0.0280
     32 H           0.4957   -1.0677   -2.7880 H       1  LIG1        0.0280
     33 H          -6.4725    0.6214    0.3745 H       1  LIG1        0.0299
     34 H          -7.1993   -0.8437   -0.2596 H       1  LIG1        0.0299
     35 H          -4.1990   -0.4251    0.2097 H       1  LIG1        0.0572
     36 H          -4.9437   -1.9040   -0.4500 H       1  LIG1        0.0572
     37 H          -5.5944   -0.6619    2.3633 H       1  LIG1        0.0386
     38 H          -6.3244   -2.1441    1.7238 H       1  LIG1        0.0386
     39 H         -10.7555   -1.3586    3.1085 H       1  LIG1        0.1549
@<TRIPOS>BOND
     1     1     2   ar
     2     1     5   ar
     3     2     6   ar
     4     3     4   ar
     5     3     7   ar
     6     4     9   ar
     7     5    10   ar
     8     6    11   ar
     9     7    12   ar
    10     8     9   ar
    11     8    12   ar
    12     9    14    1
    13    10    11   ar
    14    10    18   ar
    15    11    19   ar
    16    12    20    1
    17    13    18   ar
    18    13    19   ar
    19    13    21    1
    20    15    16    1
    21    15    17    1
    22    16    20    1
    23    17    21    1
    24     1    22    1
    25     2    23    1
    26     3    24    1
    27     4    25    1
    28     5    26    1
    29     6    27    1
    30     7    28    1
    31     8    29    1
    32    14    30    1
    33    14    31    1
    34    14    32    1
    35    15    33    1
    36    15    34    1
    37    16    35    1
    38    16    36    1
    39    17    37    1
    40    17    38    1
    41    19    39    1
