@<TRIPOS>MOLECULE
ChEBML596646
 39 42 0 0 0
SMALL
USER_CHARGES

@<TRIPOS>ATOM
      1 C          -2.2781    0.7508   -5.1681 C.1     1  LIG1        0.0991
      2 C         -12.7661   -6.6545    1.8408 C.1     1  LIG1        0.0992
      3 C         -12.7430   -4.2458    2.2298 C.ar    1  LIG1       -0.0437
      4 C          -3.9288    0.8737   -3.3673 C.ar    1  LIG1       -0.0418
      5 C          -1.7020    0.0654   -2.8929 C.ar    1  LIG1       -0.0418
      6 C         -12.0897   -3.0081    2.2363 C.ar    1  LIG1       -0.0517
      7 C          -6.9562   -0.6666    1.7129 C.ar    1  LIG1       -0.0505
      8 C          -6.4991   -2.3328    0.0242 C.ar    1  LIG1       -0.0505
      9 C          -4.2807    0.6887   -2.0303 C.ar    1  LIG1       -0.0299
     10 C          -2.0539   -0.1196   -1.5560 C.ar    1  LIG1       -0.0299
     11 C          -5.7304   -0.0576    1.4439 C.ar    1  LIG1       -0.0306
     12 C          -5.2734   -1.7238   -0.2448 C.ar    1  LIG1       -0.0306
     13 C         -10.7340   -5.3621    1.4406 C.ar    1  LIG1       -0.0223
     14 C          -9.7898   -1.8877    1.7271 C.ar    1  LIG1       -0.0310
     15 C          -2.6393    0.5619   -3.7987 C.ar    1  LIG1        0.0522
     16 C         -12.0736   -5.4035    1.8377 C.ar    1  LIG1        0.0539
     17 C         -10.7391   -2.9416    1.8400 C.ar    1  LIG1       -0.0023
     18 C          -7.3405   -1.8042    1.0031 C.ar    1  LIG1       -0.0040
     19 C         -10.0938   -4.1178    1.4521 C.ar    1  LIG1        0.0390
     20 C          -3.3433    0.1921   -1.1246 C.ar    1  LIG1        0.0821
     21 C          -4.8891   -0.5861    0.4651 C.ar    1  LIG1        0.0821
     22 C          -8.6083   -2.4342    1.2815 C.ar    1  LIG1        0.0383
     23 N          -1.9848    0.9041   -6.2804 N.1     1  LIG1       -0.1924
     24 N         -13.3281   -7.6699    1.8434 N.1     1  LIG1       -0.1924
     25 N          -8.8017   -3.7797    1.1182 N.ar    1  LIG1       -0.3139
     26 O          -3.6930    0.0081    0.2025 O.3     1  LIG1       -0.3104
     27 H         -13.7859   -4.2865    2.5377 H       1  LIG1        0.0637
     28 H          -4.6704    1.2613   -4.0615 H       1  LIG1        0.0637
     29 H          -0.6928   -0.1823   -3.2139 H       1  LIG1        0.0637
     30 H         -12.6233   -2.1134    2.5442 H       1  LIG1        0.0630
     31 H          -7.6010   -0.2425    2.4790 H       1  LIG1        0.0630
     32 H          -6.7843   -3.2190   -0.5377 H       1  LIG1        0.0630
     33 H          -5.2867    0.9328   -1.7000 H       1  LIG1        0.0651
     34 H          -1.3191   -0.5072   -0.8556 H       1  LIG1        0.0651
     35 H          -5.4366    0.8283    2.0003 H       1  LIG1        0.0650
     36 H          -4.6221   -2.1401   -1.0086 H       1  LIG1        0.0650
     37 H         -10.2014   -6.2571    1.1329 H       1  LIG1        0.0656
     38 H          -9.9588   -0.8423    1.9500 H       1  LIG1        0.0650
     39 H          -8.1011   -4.4351    0.7993 H       1  LIG1        0.1528
@<TRIPOS>BOND
     1     1    15    1
     2     1    23    3
     3     2    16    1
     4     2    24    3
     5     3     6   ar
     6     3    16   ar
     7     4     9   ar
     8     4    15   ar
     9     5    10   ar
    10     5    15   ar
    11     6    17   ar
    12     7    11   ar
    13     7    18   ar
    14     8    12   ar
    15     8    18   ar
    16     9    20   ar
    17    10    20   ar
    18    11    21   ar
    19    12    21   ar
    20    13    16   ar
    21    13    19   ar
    22    14    17   ar
    23    14    22   ar
    24    17    19   ar
    25    18    22    1
    26    19    25   ar
    27    20    26    1
    28    21    26    1
    29    22    25   ar
    30     3    27    1
    31     4    28    1
    32     5    29    1
    33     6    30    1
    34     7    31    1
    35     8    32    1
    36     9    33    1
    37    10    34    1
    38    11    35    1
    39    12    36    1
    40    13    37    1
    41    14    38    1
    42    25    39    1
