@<TRIPOS>MOLECULE
ChEBML501834
 63 66 0 0 0
SMALL
USER_CHARGES

@<TRIPOS>ATOM
      1 C         -10.1547   -5.1895    0.5863 C.ar    1  LIG1       -0.0376
      2 C         -11.5104   -5.5231    0.6554 C.ar    1  LIG1       -0.0299
      3 C         -12.0391   -3.3989    1.7065 C.ar    1  LIG1       -0.0226
      4 C          -9.9360   -1.8940    2.0482 C.ar    1  LIG1       -0.0261
      5 C         -10.6776   -3.0406    1.6478 C.ar    1  LIG1        0.0004
      6 C          -9.7687   -3.9424    1.0903 C.ar    1  LIG1        0.0380
      7 C         -12.4397   -4.6431    1.2063 C.ar    1  LIG1        0.0761
      8 C          -8.6158   -2.1178    1.7321 C.ar    1  LIG1        0.0947
      9 C          -7.4955   -1.2563    1.9419 C.2     1  LIG1        0.2598
     10 C          -6.0950   -0.7107   -1.3221 C.3     1  LIG1       -0.0107
     11 C          -4.4551   -0.0314    0.4670 C.3     1  LIG1       -0.0107
     12 C         -14.9720   -3.9678   -0.5347 C.3     1  LIG1        0.0135
     13 C         -15.5045   -6.3068    0.2231 C.3     1  LIG1        0.0135
     14 C          -6.6551   -1.7666   -0.3743 C.3     1  LIG1        0.0169
     15 C          -5.0431   -1.1050    1.3766 C.3     1  LIG1        0.0169
     16 C         -15.7765   -4.1988   -1.8043 C.3     1  LIG1       -0.0316
     17 C         -16.3080   -6.5324   -1.0482 C.3     1  LIG1       -0.0316
     18 C          -4.6303   -0.4016   -1.0078 C.3     1  LIG1        0.0601
     19 C         -14.4022   -5.2707    0.0186 C.3     1  LIG1        0.0741
     20 C         -16.9080   -5.4088   -3.9772 C.3     1  LIG1       -0.0228
     21 C         -18.7812   -4.2626   -2.7315 C.3     1  LIG1       -0.0228
     22 C          -2.7878    0.7247   -1.9350 C.3     1  LIG1        0.0359
     23 C         -17.7646   -5.3929   -2.7214 C.3     1  LIG1       -0.0292
     24 N          -8.5248   -3.3559    1.1545 N.ar    1  LIG1       -0.3101
     25 N          -6.4434   -1.3716    1.0192 N.am    1  LIG1       -0.2965
     26 N         -16.8628   -5.2127   -1.5314 N.4     1  LIG1        0.2479
     27 O          -7.4785   -0.4662    2.8875 O.2     1  LIG1       -0.2702
     28 O         -13.7614   -4.9988    1.2598 O.3     1  LIG1       -0.3423
     29 O          -4.2038    0.6786   -1.8296 O.3     1  LIG1       -0.3813
     30 H          -9.4319   -5.8750    0.1568 H       1  LIG1        0.0643
     31 H         -11.8368   -6.4866    0.2706 H       1  LIG1        0.0651
     32 H         -12.7701   -2.7179    2.1340 H       1  LIG1        0.0657
     33 H         -10.3303   -1.0025    2.5175 H       1  LIG1        0.0651
     34 H          -6.1917   -1.0446   -2.3621 H       1  LIG1        0.0309
     35 H          -6.6871    0.2108   -1.2454 H       1  LIG1        0.0309
     36 H          -4.9440    0.9323    0.6613 H       1  LIG1        0.0309
     37 H          -3.3926    0.1178    0.6918 H       1  LIG1        0.0309
     38 H         -14.1561   -3.2619   -0.7315 H       1  LIG1        0.0348
     39 H         -15.6008   -3.4865    0.2261 H       1  LIG1        0.0348
     40 H         -16.1685   -5.9853    1.0363 H       1  LIG1        0.0348
     41 H         -15.0649   -7.2537    0.5587 H       1  LIG1        0.0348
     42 H          -7.7189   -1.9206   -0.5800 H       1  LIG1        0.0470
     43 H          -6.1479   -2.7269   -0.5246 H       1  LIG1        0.0470
     44 H          -4.4936   -2.0470    1.2624 H       1  LIG1        0.0470
     45 H          -4.9415   -0.7954    2.4196 H       1  LIG1        0.0470
     46 H         -16.2638   -3.2729   -2.1264 H       1  LIG1        0.0815
     47 H         -15.1537   -4.5883   -2.6173 H       1  LIG1        0.0815
     48 H         -15.6916   -6.9491   -1.8525 H       1  LIG1        0.0815
     49 H         -17.1574   -7.1957   -0.8553 H       1  LIG1        0.0815
     50 H          -4.0118   -1.2741   -1.2506 H       1  LIG1        0.0604
     51 H         -13.6446   -5.6610   -0.6713 H       1  LIG1        0.0613
     52 H         -16.4072   -4.4446   -4.1138 H       1  LIG1        0.0287
     53 H         -16.1366   -6.1854   -3.9285 H       1  LIG1        0.0287
     54 H         -17.5193   -5.5967   -4.8667 H       1  LIG1        0.0287
     55 H         -18.2821   -3.2972   -2.8670 H       1  LIG1        0.0287
     56 H         -19.3464   -4.2211   -1.7941 H       1  LIG1        0.0287
     57 H         -19.4969   -4.3861   -3.5515 H       1  LIG1        0.0287
     58 H          -2.4962    1.5637   -2.5713 H       1  LIG1        0.0530
     59 H          -2.4225   -0.2134   -2.3604 H       1  LIG1        0.0530
     60 H          -2.3614    0.8608   -0.9383 H       1  LIG1        0.0530
     61 H         -18.2647   -6.3574   -2.5861 H       1  LIG1        0.0846
     62 H          -7.6701   -3.7808    0.8220 H       1  LIG1        0.1529
     63 H         -17.4510   -4.8340   -0.7762 H       1  LIG1        0.2006
@<TRIPOS>BOND
     1     1     2   ar
     2     1     6   ar
     3     2     7   ar
     4     3     5   ar
     5     3     7   ar
     6     4     5   ar
     7     4     8   ar
     8     5     6   ar
     9     6    24   ar
    10     7    28    1
    11     8     9    1
    12     8    24   ar
    13     9    25   am
    14     9    27    2
    15    10    14    1
    16    10    18    1
    17    11    15    1
    18    11    18    1
    19    12    16    1
    20    12    19    1
    21    13    17    1
    22    13    19    1
    23    14    25    1
    24    15    25    1
    25    16    26    1
    26    17    26    1
    27    18    29    1
    28    19    28    1
    29    20    23    1
    30    21    23    1
    31    22    29    1
    32    23    26    1
    33     1    30    1
    34     2    31    1
    35     3    32    1
    36     4    33    1
    37    10    34    1
    38    10    35    1
    39    11    36    1
    40    11    37    1
    41    12    38    1
    42    12    39    1
    43    13    40    1
    44    13    41    1
    45    14    42    1
    46    14    43    1
    47    15    44    1
    48    15    45    1
    49    16    46    1
    50    16    47    1
    51    17    48    1
    52    17    49    1
    53    18    50    1
    54    19    51    1
    55    20    52    1
    56    20    53    1
    57    20    54    1
    58    21    55    1
    59    21    56    1
    60    21    57    1
    61    22    58    1
    62    22    59    1
    63    22    60    1
    64    23    61    1
    65    24    62    1
    66    26    63    1
