@<TRIPOS>MOLECULE
ChEBML1806
 36 39 0 0 0
SMALL
USER_CHARGES

@<TRIPOS>ATOM
      1 C         -12.4127   -4.7888    1.2897 C.ar    1  LIG1       -0.0615
      2 C         -11.4605   -5.6367    0.7271 C.ar    1  LIG1       -0.0603
      3 C         -12.0602   -3.5081    1.7306 C.ar    1  LIG1       -0.0530
      4 C         -10.1294   -5.2337    0.5874 C.ar    1  LIG1       -0.0402
      5 C          -4.3259    0.6157   -1.6119 C.ar    1  LIG1       -0.0376
      6 C          -3.2093    0.0684   -2.2504 C.ar    1  LIG1       -0.0299
      7 C          -3.5025   -2.0402   -1.0822 C.ar    1  LIG1       -0.0226
      8 C         -10.0305   -1.8819    1.9296 C.ar    1  LIG1       -0.0276
      9 C          -5.5538   -2.0213    0.5291 C.ar    1  LIG1       -0.0275
     10 C         -10.7241   -3.0799    1.6001 C.ar    1  LIG1       -0.0022
     11 C          -4.6314   -1.5101   -0.4263 C.ar    1  LIG1        0.0003
     12 C          -9.7915   -3.9507    1.0326 C.ar    1  LIG1        0.0378
     13 C          -5.0162   -0.1971   -0.7057 C.ar    1  LIG1        0.0379
     14 C          -2.8022   -1.2387   -1.9912 C.ar    1  LIG1        0.0753
     15 C          -8.7146   -2.0457    1.5629 C.ar    1  LIG1        0.0811
     16 C          -6.4636   -1.0270    0.8063 C.ar    1  LIG1        0.0811
     17 C          -7.5754   -1.0675    1.7027 C.2     1  LIG1        0.2206
     18 C          -1.3433   -3.0876   -2.3219 C.3     1  LIG1        0.0422
     19 N          -8.5802   -3.2964    1.0227 N.ar    1  LIG1       -0.3112
     20 N          -6.1313    0.0693    0.0566 N.ar    1  LIG1       -0.3112
     21 O          -7.6607   -0.2750    2.6696 O.2     1  LIG1       -0.2856
     22 O          -1.7092   -1.7441   -2.6297 O.3     1  LIG1       -0.3493
     23 H         -13.4418   -5.1246    1.3870 H       1  LIG1        0.0623
     24 H         -11.7563   -6.6272    0.3917 H       1  LIG1        0.0623
     25 H         -12.8127   -2.8572    2.1669 H       1  LIG1        0.0629
     26 H          -9.3882   -5.8940    0.1498 H       1  LIG1        0.0642
     27 H          -4.6423    1.6334   -1.8147 H       1  LIG1        0.0643
     28 H          -2.6550    0.6791   -2.9594 H       1  LIG1        0.0651
     29 H          -3.1792   -3.0589   -0.8861 H       1  LIG1        0.0657
     30 H         -10.4533   -0.9968    2.3862 H       1  LIG1        0.0651
     31 H          -5.5485   -3.0116    0.9648 H       1  LIG1        0.0651
     32 H          -0.4573   -3.3656   -2.8978 H       1  LIG1        0.0535
     33 H          -2.1729   -3.7566   -2.5636 H       1  LIG1        0.0535
     34 H          -1.1189   -3.1593   -1.2550 H       1  LIG1        0.0535
     35 H          -7.7179   -3.6869    0.6678 H       1  LIG1        0.1529
     36 H          -6.6301    0.9484    0.0594 H       1  LIG1        0.1529
@<TRIPOS>BOND
     1     1     2   ar
     2     1     3   ar
     3     2     4   ar
     4     3    10   ar
     5     4    12   ar
     6     5     6   ar
     7     5    13   ar
     8     6    14   ar
     9     7    11   ar
    10     7    14   ar
    11     8    10   ar
    12     8    15   ar
    13     9    11   ar
    14     9    16   ar
    15    10    12   ar
    16    11    13   ar
    17    12    19   ar
    18    13    20   ar
    19    14    22    1
    20    15    17    1
    21    15    19   ar
    22    16    17    1
    23    16    20   ar
    24    17    21    2
    25    18    22    1
    26     1    23    1
    27     2    24    1
    28     3    25    1
    29     4    26    1
    30     5    27    1
    31     6    28    1
    32     7    29    1
    33     8    30    1
    34     9    31    1
    35    18    32    1
    36    18    33    1
    37    18    34    1
    38    19    35    1
    39    20    36    1
