@<TRIPOS>MOLECULE
ChEBML1137476
 52 55 0 0 0
SMALL
USER_CHARGES

@<TRIPOS>ATOM
      1 C          -3.7912    1.1413   -3.1741 C.ar    1  LIG1       -0.0602
      2 C          -2.5054    0.7851   -3.5364 C.ar    1  LIG1       -0.0595
      3 C         -13.0216   -3.1280    2.4274 C.ar    1  LIG1       -0.0515
      4 C         -12.6949   -4.7107    0.6352 C.ar    1  LIG1       -0.0515
      5 C          -4.3982    0.5406   -2.0873 C.ar    1  LIG1       -0.0382
      6 C          -1.8199   -0.1739   -2.8133 C.ar    1  LIG1       -0.0299
      7 C         -14.3508   -3.4907    2.4972 C.ar    1  LIG1       -0.0429
      8 C         -14.0242   -5.0700    0.7182 C.ar    1  LIG1       -0.0429
      9 C         -10.1793   -2.2440    1.9659 C.ar    1  LIG1       -0.0056
     10 C         -12.1827   -3.7393    1.4954 C.ar    1  LIG1       -0.0023
     11 C          -3.7185   -0.4261   -1.3604 C.ar    1  LIG1        0.0594
     12 C          -2.4208   -0.7803   -1.7228 C.ar    1  LIG1        0.0957
     13 C         -14.8525   -4.4596    1.6447 C.ar    1  LIG1        0.0406
     14 C         -10.7557   -3.3545    1.4156 C.ar    1  LIG1        0.0600
     15 C          -8.8126   -2.3191    1.6198 C.ar    1  LIG1        0.1459
     16 C          -7.7631   -1.3446    1.9822 C.2     1  LIG1        0.2659
     17 C          -4.7729    0.0369    0.6311 C.3     1  LIG1        0.0275
     18 C          -5.5368   -1.7069   -0.7723 C.3     1  LIG1        0.0275
     19 C          -5.4369   -0.5660    1.8733 C.3     1  LIG1        0.0303
     20 C          -6.2513   -2.4249    0.3771 C.3     1  LIG1        0.0303
     21 C          -9.9438   -5.2988    0.0524 C.3     1  LIG1        0.0233
     22 C          -0.4626   -1.8622   -1.6202 C.3     1  LIG1        0.0423
     23 N          -8.6473   -3.4168    0.9086 N.ar    1  LIG1       -0.1761
     24 N          -9.7631   -4.0401    0.7799 N.ar    1  LIG1       -0.2272
     25 N          -4.3330   -1.0401   -0.2630 N.pl3   1  LIG1       -0.3255
     26 N          -6.5357   -1.4410    1.4339 N.am    1  LIG1       -0.2933
     27 O          -8.0065   -0.4557    2.7750 O.2     1  LIG1       -0.2698
     28 O          -1.7475   -1.7233   -1.0105 O.3     1  LIG1       -0.3473
     29 CL        -16.5261   -4.9111    1.7384 Cl      1  LIG1       -0.0843
     30 H          -4.3226    1.8911   -3.7414 H       1  LIG1        0.0623
     31 H          -2.0349    1.2574   -4.3860 H       1  LIG1        0.0623
     32 H         -12.6312   -2.3724    3.0930 H       1  LIG1        0.0630
     33 H         -12.0509   -5.1840   -0.0912 H       1  LIG1        0.0630
     34 H          -5.4025    0.8209   -1.8062 H       1  LIG1        0.0643
     35 H          -0.8156   -0.4497   -3.0991 H       1  LIG1        0.0651
     36 H         -15.0011   -3.0184    3.2186 H       1  LIG1        0.0638
     37 H         -14.4208   -5.8253    0.0559 H       1  LIG1        0.0638
     38 H         -10.6664   -1.4720    2.5432 H       1  LIG1        0.0669
     39 H          -3.9115    0.6327    0.9330 H       1  LIG1        0.0485
     40 H          -5.4885    0.6724    0.1093 H       1  LIG1        0.0485
     41 H          -6.2058   -0.9649   -1.2084 H       1  LIG1        0.0485
     42 H          -5.2546   -2.4332   -1.5345 H       1  LIG1        0.0485
     43 H          -4.7058   -1.1482    2.4341 H       1  LIG1        0.0486
     44 H          -5.8319    0.2319    2.5020 H       1  LIG1        0.0486
     45 H          -5.6104   -3.2131    0.7723 H       1  LIG1        0.0486
     46 H          -7.1849   -2.8566    0.0165 H       1  LIG1        0.0486
     47 H         -10.2846   -5.0871   -0.9610 H       1  LIG1        0.0453
     48 H          -8.9954   -5.8346    0.0124 H       1  LIG1        0.0453
     49 H         -10.6857   -5.9113    0.5648 H       1  LIG1        0.0453
     50 H           0.0603   -0.9064   -1.5877 H       1  LIG1        0.0535
     51 H           0.1165   -2.6117   -1.0807 H       1  LIG1        0.0535
     52 H          -0.5844   -2.1746   -2.6574 H       1  LIG1        0.0535
@<TRIPOS>BOND
     1     1     2   ar
     2     1     5   ar
     3     2     6   ar
     4     3     7   ar
     5     3    10   ar
     6     4     8   ar
     7     4    10   ar
     8     5    11   ar
     9     6    12   ar
    10     7    13   ar
    11     8    13   ar
    12     9    14   ar
    13     9    15   ar
    14    10    14    1
    15    11    12   ar
    16    11    25    1
    17    12    28    1
    18    13    29    1
    19    14    24   ar
    20    15    16    1
    21    15    23   ar
    22    16    26   am
    23    16    27    2
    24    17    19    1
    25    17    25    1
    26    18    20    1
    27    18    25    1
    28    19    26    1
    29    20    26    1
    30    21    24    1
    31    22    28    1
    32    23    24   ar
    33     1    30    1
    34     2    31    1
    35     3    32    1
    36     4    33    1
    37     5    34    1
    38     6    35    1
    39     7    36    1
    40     8    37    1
    41     9    38    1
    42    17    39    1
    43    17    40    1
    44    18    41    1
    45    18    42    1
    46    19    43    1
    47    19    44    1
    48    20    45    1
    49    20    46    1
    50    21    47    1
    51    21    48    1
    52    21    49    1
    53    22    50    1
    54    22    51    1
    55    22    52    1
