@<TRIPOS>MOLECULE
ChEBML888024
 50 54 0 0 0
SMALL
USER_CHARGES

@<TRIPOS>ATOM
      1 C          -2.0117    0.0902   -3.4578 C.ar    1  LIG1       -0.0573
      2 C          -2.0963    1.4780   -3.4518 C.ar    1  LIG1       -0.0437
      3 C         -10.6596   -5.0119    0.4615 C.ar    1  LIG1       -0.0375
      4 C         -11.9436   -5.3472    0.9003 C.ar    1  LIG1       -0.0299
      5 C          -2.7267   -0.6482   -2.5213 C.ar    1  LIG1       -0.0217
      6 C         -11.9734   -3.4640    2.4322 C.ar    1  LIG1       -0.0204
      7 C          -2.9032    2.0746   -2.4964 C.ar    1  LIG1        0.0290
      8 C          -8.8330   -0.2450    3.2918 C.ar    1  LIG1        0.1180
      9 C         -10.6785   -3.1060    2.0060 C.ar    1  LIG1        0.0262
     10 C          -9.7723   -2.0627    2.3459 C.ar    1  LIG1        0.0989
     11 C         -10.0520   -3.8871    1.0313 C.ar    1  LIG1        0.0402
     12 C          -8.6244   -2.2279    1.5793 C.ar    1  LIG1        0.0981
     13 C         -12.5922   -4.5867    1.8706 C.ar    1  LIG1        0.0758
     14 C          -3.5052    0.0435   -1.6074 C.ar    1  LIG1        0.1199
     15 C          -7.5664   -1.3449    1.7071 C.ar    1  LIG1        0.1457
     16 C          -5.1896   -1.6682   -1.1683 C.3     1  LIG1        0.0287
     17 C          -4.3823   -0.1447    0.6524 C.3     1  LIG1        0.0287
     18 C          -6.5478   -1.4445   -0.4978 C.3     1  LIG1        0.0288
     19 C          -5.1404   -1.1242    1.5526 C.3     1  LIG1        0.0288
     20 C         -16.1234   -5.2673    1.6265 C.3     1  LIG1       -0.0410
     21 C         -14.6763   -5.5940    1.3251 C.3     1  LIG1        0.0505
     22 N          -3.6123    1.3907   -1.5708 N.ar    1  LIG1       -0.2414
     23 N          -9.9125   -1.0507    3.2386 N.ar    1  LIG1       -0.2341
     24 N          -7.6819   -0.3291    2.5892 N.ar    1  LIG1       -0.2194
     25 N          -8.8127   -3.3335    0.7927 N.ar    1  LIG1       -0.3097
     26 N          -4.2043   -0.6986   -0.6898 N.pl3   1  LIG1       -0.3127
     27 N          -6.3980   -1.4958    0.9408 N.pl3   1  LIG1       -0.3110
     28 O         -13.8437   -4.9387    2.2795 O.3     1  LIG1       -0.3463
     29 H          -1.3891   -0.4150   -4.1902 H       1  LIG1        0.0624
     30 H          -1.5478    2.0743   -4.1721 H       1  LIG1        0.0639
     31 H         -10.1564   -5.6054   -0.2943 H       1  LIG1        0.0643
     32 H         -12.4373   -6.2169    0.4729 H       1  LIG1        0.0651
     33 H          -2.6670   -1.7317   -2.5190 H       1  LIG1        0.0659
     34 H         -12.4860   -2.8762    3.1890 H       1  LIG1        0.0658
     35 H          -3.0035    3.1541   -2.4497 H       1  LIG1        0.0840
     36 H          -8.8959    0.5809    3.9920 H       1  LIG1        0.1063
     37 H          -4.8227   -2.6764   -0.9402 H       1  LIG1        0.0485
     38 H          -5.3110   -1.6093   -2.2572 H       1  LIG1        0.0485
     39 H          -4.9376    0.8002    0.5888 H       1  LIG1        0.0485
     40 H          -3.4048    0.0727    1.0992 H       1  LIG1        0.0485
     41 H          -6.9501   -0.4689   -0.8007 H       1  LIG1        0.0485
     42 H          -7.2496   -2.2149   -0.8389 H       1  LIG1        0.0485
     43 H          -4.5486   -2.0375    1.6912 H       1  LIG1        0.0485
     44 H          -5.2728   -0.6740    2.5445 H       1  LIG1        0.0485
     45 H         -16.4011   -5.6117    2.6265 H       1  LIG1        0.0254
     46 H         -16.2967   -4.1880    1.5634 H       1  LIG1        0.0254
     47 H         -16.7862   -5.7394    0.8935 H       1  LIG1        0.0254
     48 H         -14.4050   -5.2469    0.3236 H       1  LIG1        0.0569
     49 H         -14.5046   -6.6726    1.3893 H       1  LIG1        0.0569
     50 H          -8.1401   -3.6950    0.1304 H       1  LIG1        0.1530
@<TRIPOS>BOND
     1     1     2   ar
     2     1     5   ar
     3     2     7   ar
     4     3     4   ar
     5     3    11   ar
     6     4    13   ar
     7     5    14   ar
     8     6     9   ar
     9     6    13   ar
    10     7    22   ar
    11     8    23   ar
    12     8    24   ar
    13     9    10   ar
    14     9    11   ar
    15    10    12   ar
    16    10    23   ar
    17    11    25   ar
    18    12    15   ar
    19    12    25   ar
    20    13    28    1
    21    14    22   ar
    22    14    26    1
    23    15    24   ar
    24    15    27    1
    25    16    18    1
    26    16    26    1
    27    17    19    1
    28    17    26    1
    29    18    27    1
    30    19    27    1
    31    20    21    1
    32    21    28    1
    33     1    29    1
    34     2    30    1
    35     3    31    1
    36     4    32    1
    37     5    33    1
    38     6    34    1
    39     7    35    1
    40     8    36    1
    41    16    37    1
    42    16    38    1
    43    17    39    1
    44    17    40    1
    45    18    41    1
    46    18    42    1
    47    19    43    1
    48    19    44    1
    49    20    45    1
    50    20    46    1
    51    20    47    1
    52    21    48    1
    53    21    49    1
    54    25    50    1
