@<TRIPOS>MOLECULE
ChEBML300241
 42 43 0 0 0
SMALL
USER_CHARGES

@<TRIPOS>ATOM
      1 C         -10.3319   -5.1541    0.4097 C.ar    1  LIG1       -0.0387
      2 C         -11.6620   -5.5431    0.5922 C.ar    1  LIG1       -0.0416
      3 C         -12.1035   -3.5932    1.9707 C.ar    1  LIG1       -0.0343
      4 C         -10.0062   -2.0696    2.2603 C.ar    1  LIG1       -0.0262
      5 C         -10.7668   -3.1810    1.8009 C.ar    1  LIG1       -0.0007
      6 C          -9.9136   -3.9694    1.0258 C.ar    1  LIG1        0.0379
      7 C         -12.5360   -4.7762    1.3603 C.ar    1  LIG1        0.0413
      8 C          -8.7296   -2.2024    1.7647 C.ar    1  LIG1        0.0945
      9 C          -7.5655   -1.3008    1.9623 C.2     1  LIG1        0.2576
     10 C          -4.3289   -1.0937    0.1995 C.2     1  LIG1        0.2313
     11 C          -0.1694   -4.2367   -2.2811 C.3     1  LIG1       -0.0653
     12 C          -2.3304   -0.8321    1.6894 C.3     1  LIG1        0.0027
     13 C          -5.1654   -0.9277    1.4559 C.3     1  LIG1        0.0887
     14 C          -0.5979   -2.7877   -2.1086 C.3     1  LIG1       -0.0547
     15 C          -1.6026   -2.6348   -0.9643 C.3     1  LIG1       -0.0376
     16 C          -2.0054   -1.1829   -0.7284 C.3     1  LIG1        0.0138
     17 N          -8.6836   -3.3512    1.0212 N.ar    1  LIG1       -0.3101
     18 N          -6.3811   -1.6812    1.3392 N.am    1  LIG1       -0.3013
     19 N          -2.9422   -1.0385    0.3789 N.am    1  LIG1       -0.3036
     20 O          -7.6934   -0.3007    2.6637 O.2     1  LIG1       -0.2704
     21 O          -4.8655   -1.2671   -0.8980 O.2     1  LIG1       -0.2756
     22 CL        -14.1690   -5.2877    1.5609 Cl      1  LIG1       -0.0843
     23 H          -9.6524   -5.7525   -0.1880 H       1  LIG1        0.0643
     24 H         -12.0046   -6.4619    0.1208 H       1  LIG1        0.0639
     25 H         -12.7839   -2.9944    2.5706 H       1  LIG1        0.0645
     26 H         -10.3593   -1.2609    2.8863 H       1  LIG1        0.0651
     27 H          -1.0325   -4.8797   -2.4807 H       1  LIG1        0.0230
     28 H           0.5248   -4.3289   -3.1222 H       1  LIG1        0.0230
     29 H           0.3348   -4.6066   -1.3826 H       1  LIG1        0.0230
     30 H          -2.1521   -1.7943    2.1765 H       1  LIG1        0.0433
     31 H          -2.9892   -0.2331    2.3239 H       1  LIG1        0.0433
     32 H          -1.3760   -0.3094    1.5829 H       1  LIG1        0.0433
     33 H          -4.6234   -1.3073    2.3259 H       1  LIG1        0.0567
     34 H          -5.4401    0.1211    1.5950 H       1  LIG1        0.0567
     35 H           0.2876   -2.1727   -1.9107 H       1  LIG1        0.0264
     36 H          -1.0364   -2.4335   -3.0482 H       1  LIG1        0.0264
     37 H          -2.4946   -3.2376   -1.1753 H       1  LIG1        0.0282
     38 H          -1.1583   -3.0275   -0.0417 H       1  LIG1        0.0282
     39 H          -2.4700   -0.7495   -1.6197 H       1  LIG1        0.0469
     40 H          -1.1225   -0.5856   -0.4798 H       1  LIG1        0.0469
     41 H          -7.8666   -3.6983    0.5377 H       1  LIG1        0.1529
     42 H          -6.3434   -2.5608    0.8252 H       1  LIG1        0.1503
@<TRIPOS>BOND
     1     1     2   ar
     2     1     6   ar
     3     2     7   ar
     4     3     5   ar
     5     3     7   ar
     6     4     5   ar
     7     4     8   ar
     8     5     6   ar
     9     6    17   ar
    10     7    22    1
    11     8     9    1
    12     8    17   ar
    13     9    18   am
    14     9    20    2
    15    10    13    1
    16    10    19   am
    17    10    21    2
    18    11    14    1
    19    12    19    1
    20    13    18    1
    21    14    15    1
    22    15    16    1
    23    16    19    1
    24     1    23    1
    25     2    24    1
    26     3    25    1
    27     4    26    1
    28    11    27    1
    29    11    28    1
    30    11    29    1
    31    12    30    1
    32    12    31    1
    33    12    32    1
    34    13    33    1
    35    13    34    1
    36    14    35    1
    37    14    36    1
    38    15    37    1
    39    15    38    1
    40    16    39    1
    41    16    40    1
    42    17    41    1
    43    18    42    1
