@<TRIPOS>MOLECULE
ChEBML1066940
 40 43 0 0 0
SMALL
USER_CHARGES

@<TRIPOS>ATOM
      1 C         -16.4752   -5.9351    1.3901 C.ar    1  LIG1       -0.0622
      2 C         -16.0102   -5.1841    0.3105 C.ar    1  LIG1       -0.0616
      3 C         -15.6022   -6.2954    2.4167 C.ar    1  LIG1       -0.0616
      4 C          -4.7848    0.4976   -1.1914 C.ar    1  LIG1       -0.0435
      5 C         -14.6722   -4.7935    0.2575 C.ar    1  LIG1       -0.0544
      6 C         -14.2642   -5.9048    2.3636 C.ar    1  LIG1       -0.0544
      7 C         -11.4732   -5.5738    0.6113 C.ar    1  LIG1       -0.0525
      8 C          -5.1168    0.0562    0.0846 C.ar    1  LIG1       -0.0555
      9 C         -10.1255   -5.2092    0.5429 C.ar    1  LIG1       -0.0396
     10 C         -12.0262   -3.5286    1.7980 C.ar    1  LIG1       -0.0451
     11 C          -9.9475   -2.0049    2.2001 C.ar    1  LIG1       -0.0280
     12 C          -5.0758   -0.3333   -2.2613 C.ar    1  LIG1        0.0268
     13 C          -5.9707   -1.9406   -0.8849 C.ar    1  LIG1        0.0304
     14 C         -10.6730   -3.1398    1.7413 C.ar    1  LIG1       -0.0016
     15 C         -13.7991   -5.1538    1.2840 C.ar    1  LIG1       -0.0184
     16 C         -12.4106   -4.7480    1.2287 C.ar    1  LIG1       -0.0176
     17 C          -5.7214   -1.1850    0.2494 C.ar    1  LIG1       -0.0218
     18 C          -9.7558   -3.9874    1.1164 C.ar    1  LIG1        0.0378
     19 C          -8.6284   -2.1822    1.8515 C.ar    1  LIG1        0.0750
     20 C          -7.5216   -1.3126    2.0971 C.2     1  LIG1        0.1808
     21 C          -6.0945   -1.6920    1.6209 C.3     1  LIG1        0.0389
     22 N          -5.6624   -1.5453   -2.1405 N.ar    1  LIG1       -0.2644
     23 N          -8.5227   -3.3807    1.1981 N.ar    1  LIG1       -0.3115
     24 O          -7.6640   -0.2167    2.7055 O.2     1  LIG1       -0.2923
     25 H         -17.5174   -6.2377    1.4321 H       1  LIG1        0.0622
     26 H         -16.6901   -4.9022   -0.4880 H       1  LIG1        0.0623
     27 H         -15.9639   -6.8788    3.2582 H       1  LIG1        0.0623
     28 H          -4.3131    1.4617   -1.3438 H       1  LIG1        0.0639
     29 H         -14.3250   -4.2082   -0.5908 H       1  LIG1        0.0629
     30 H         -13.5956   -6.1924    3.1715 H       1  LIG1        0.0629
     31 H         -11.7779   -6.5213    0.1706 H       1  LIG1        0.0630
     32 H          -4.9013    0.6855    0.9438 H       1  LIG1        0.0627
     33 H          -9.3964   -5.8518    0.0611 H       1  LIG1        0.0643
     34 H         -12.7559   -2.8821    2.2797 H       1  LIG1        0.0636
     35 H         -10.3517   -1.1521    2.7291 H       1  LIG1        0.0651
     36 H          -4.8363   -0.0350   -3.2766 H       1  LIG1        0.0839
     37 H          -6.4403   -2.9171   -0.8186 H       1  LIG1        0.0842
     38 H          -6.0155   -2.7856    1.6263 H       1  LIG1        0.0401
     39 H          -5.3781   -1.2970    2.3509 H       1  LIG1        0.0401
     40 H          -7.6653   -3.7669    0.8274 H       1  LIG1        0.1529
@<TRIPOS>BOND
     1     1     2   ar
     2     1     3   ar
     3     2     5   ar
     4     3     6   ar
     5     4     8   ar
     6     4    12   ar
     7     5    15   ar
     8     6    15   ar
     9     7     9   ar
    10     7    16   ar
    11     8    17   ar
    12     9    18   ar
    13    10    14   ar
    14    10    16   ar
    15    11    14   ar
    16    11    19   ar
    17    12    22   ar
    18    13    17   ar
    19    13    22   ar
    20    14    18   ar
    21    15    16    1
    22    17    21    1
    23    18    23   ar
    24    19    20    1
    25    19    23   ar
    26    20    21    1
    27    20    24    2
    28     1    25    1
    29     2    26    1
    30     3    27    1
    31     4    28    1
    32     5    29    1
    33     6    30    1
    34     7    31    1
    35     8    32    1
    36     9    33    1
    37    10    34    1
    38    11    35    1
    39    12    36    1
    40    13    37    1
    41    21    38    1
    42    21    39    1
    43    23    40    1
