@<TRIPOS>MOLECULE
ChEBML343327
 39 42 0 0 0
SMALL
USER_CHARGES

@<TRIPOS>ATOM
      1 C         -12.7179   -4.2428    0.7345 C.ar    1  LIG1       -0.0615
      2 C          -2.6304    1.1727   -3.7592 C.ar    1  LIG1       -0.0615
      3 C         -11.8720   -4.9923   -0.0807 C.ar    1  LIG1       -0.0603
      4 C          -1.4488    0.4464   -3.8930 C.ar    1  LIG1       -0.0603
      5 C         -12.2035   -3.2647    1.5935 C.ar    1  LIG1       -0.0530
      6 C          -3.4715    0.9760   -2.6579 C.ar    1  LIG1       -0.0523
      7 C         -10.4890   -4.7897   -0.0640 C.ar    1  LIG1       -0.0402
      8 C          -1.0702   -0.4972   -2.9336 C.ar    1  LIG1       -0.0402
      9 C          -9.9672   -2.1592    2.3555 C.ar    1  LIG1       -0.0342
     10 C          -2.8809   -1.3754    0.0775 C.ar    1  LIG1        0.0049
     11 C         -10.8125   -3.0426    1.6275 C.ar    1  LIG1       -0.0027
     12 C          -3.1107    0.0300   -1.6779 C.ar    1  LIG1        0.0084
     13 C          -3.7055   -0.4170   -0.4650 C.ar    1  LIG1        0.0504
     14 C          -9.9890   -3.8086    0.7997 C.ar    1  LIG1        0.0375
     15 C          -1.9208   -0.6833   -1.8380 C.ar    1  LIG1        0.0380
     16 C          -8.6709   -2.4017    1.9630 C.ar    1  LIG1        0.0251
     17 C          -4.9372    0.0177    0.1305 C.2     1  LIG1        0.2493
     18 C          -5.4530   -0.5482    1.4350 C.2     1  LIG1        0.2844
     19 C          -7.3803   -1.7706    2.3989 C.3     1  LIG1        0.0498
     20 N          -1.8069   -1.5289   -0.7577 N.ar    1  LIG1       -0.3198
     21 N          -8.6944   -3.3979    1.0242 N.ar    1  LIG1       -0.3165
     22 N          -6.6793   -1.1565    1.2957 N.am    1  LIG1       -0.3030
     23 O          -5.6965    0.8728   -0.3547 O.2     1  LIG1       -0.2832
     24 O          -4.7632   -0.4133    2.4325 O.2     1  LIG1       -0.2680
     25 H         -13.7897   -4.4193    0.7043 H       1  LIG1        0.0623
     26 H          -2.9029    1.9015   -4.5184 H       1  LIG1        0.0623
     27 H         -12.2933   -5.7470   -0.7403 H       1  LIG1        0.0623
     28 H          -0.8105    0.6148   -4.7566 H       1  LIG1        0.0623
     29 H         -12.8741   -2.6871    2.2232 H       1  LIG1        0.0629
     30 H          -4.3890    1.5503   -2.5681 H       1  LIG1        0.0630
     31 H          -9.8313   -5.3740   -0.6985 H       1  LIG1        0.0642
     32 H          -0.1501   -1.0620   -3.0392 H       1  LIG1        0.0642
     33 H         -10.2765   -1.4252    3.0874 H       1  LIG1        0.0646
     34 H          -2.9589   -1.9632    0.9818 H       1  LIG1        0.0797
     35 H          -7.5637   -0.9983    3.1538 H       1  LIG1        0.0531
     36 H          -6.7122   -2.5127    2.8485 H       1  LIG1        0.0531
     37 H          -1.0413   -2.1704   -0.6039 H       1  LIG1        0.1522
     38 H          -7.8810   -3.7797    0.5610 H       1  LIG1        0.1525
     39 H          -7.1237   -1.1782    0.3825 H       1  LIG1        0.1502
@<TRIPOS>BOND
     1     1     3   ar
     2     1     5   ar
     3     2     4   ar
     4     2     6   ar
     5     3     7   ar
     6     4     8   ar
     7     5    11   ar
     8     6    12   ar
     9     7    14   ar
    10     8    15   ar
    11     9    11   ar
    12     9    16   ar
    13    10    13   ar
    14    10    20   ar
    15    11    14   ar
    16    12    13   ar
    17    12    15   ar
    18    13    17    1
    19    14    21   ar
    20    15    20   ar
    21    16    19    1
    22    16    21   ar
    23    17    18    1
    24    17    23    2
    25    18    22   am
    26    18    24    2
    27    19    22    1
    28     1    25    1
    29     2    26    1
    30     3    27    1
    31     4    28    1
    32     5    29    1
    33     6    30    1
    34     7    31    1
    35     8    32    1
    36     9    33    1
    37    10    34    1
    38    19    35    1
    39    19    36    1
    40    20    37    1
    41    21    38    1
    42    22    39    1
