@<TRIPOS>MOLECULE
ChEBML357834
 49 52 0 0 0
SMALL
USER_CHARGES

@<TRIPOS>ATOM
      1 C          -0.2422    1.0616   -2.4942 C.ar    1  LIG1       -0.0620
      2 C          -0.9487    1.8155   -1.5572 C.ar    1  LIG1       -0.0620
      3 C          -0.9238    0.1977   -3.3513 C.ar    1  LIG1       -0.0590
      4 C          -2.3369    1.7056   -1.4773 C.ar    1  LIG1       -0.0587
      5 C         -10.2515   -5.3518    0.8130 C.ar    1  LIG1       -0.0359
      6 C         -11.6109   -5.6433    0.9677 C.ar    1  LIG1       -0.0301
      7 C         -12.0660   -3.4131    1.8317 C.ar    1  LIG1       -0.0043
      8 C          -2.3120    0.0877   -3.2714 C.ar    1  LIG1       -0.0479
      9 C          -3.0186    0.8417   -2.3344 C.ar    1  LIG1       -0.0448
     10 C         -10.7036   -3.1030    1.6831 C.ar    1  LIG1        0.0894
     11 C          -9.8382   -4.0713    1.1820 C.ar    1  LIG1        0.0579
     12 C         -12.5038   -4.6927    1.4677 C.ar    1  LIG1        0.0736
     13 C          -8.7761   -2.1853    1.6398 C.ar    1  LIG1        0.1863
     14 C          -7.7318   -1.2132    1.7806 C.2     1  LIG1        0.2790
     15 C          -6.3767   -0.8090   -1.5206 C.3     1  LIG1       -0.0341
     16 C          -4.8056    0.1500    0.2066 C.3     1  LIG1       -0.0341
     17 C          -6.8412   -1.8350   -0.4886 C.3     1  LIG1        0.0148
     18 C          -5.2999   -0.9033    1.1950 C.3     1  LIG1        0.0148
     19 C          -4.9375   -0.3463   -1.2423 C.3     1  LIG1       -0.0344
     20 C          -3.0209   -0.8427   -4.2001 C.3     1  LIG1       -0.0395
     21 C          -4.5155    0.7397   -2.2290 C.3     1  LIG1       -0.0247
     22 N         -10.0260   -1.9382    1.9617 N.ar    1  LIG1       -0.2260
     23 N          -8.6123   -3.4569    1.1651 N.ar    1  LIG1       -0.2934
     24 N          -6.6726   -1.3132    0.8687 N.am    1  LIG1       -0.2953
     25 O          -7.7918   -0.3560    2.6601 O.2     1  LIG1       -0.2683
     26 O         -13.8217   -5.0136    1.6040 O.3     1  LIG1       -0.3608
     27 H           0.8386    1.1469   -2.5555 H       1  LIG1        0.0623
     28 H          -0.4171    2.4878   -0.8899 H       1  LIG1        0.0623
     29 H          -0.3639   -0.3866   -4.0768 H       1  LIG1        0.0625
     30 H          -2.8786    2.2976   -0.7442 H       1  LIG1        0.0625
     31 H          -9.5568   -6.0879    0.4251 H       1  LIG1        0.0644
     32 H         -11.9720   -6.6315    0.6910 H       1  LIG1        0.0651
     33 H         -12.7630   -2.6763    2.2190 H       1  LIG1        0.0674
     34 H          -6.4455   -1.2432   -2.5248 H       1  LIG1        0.0285
     35 H          -7.0518    0.0563   -1.4959 H       1  LIG1        0.0285
     36 H          -5.3901    1.0700    0.3364 H       1  LIG1        0.0285
     37 H          -3.7603    0.3969    0.4263 H       1  LIG1        0.0285
     38 H          -7.8858   -2.1020   -0.6770 H       1  LIG1        0.0469
     39 H          -6.2479   -2.7538   -0.5647 H       1  LIG1        0.0469
     40 H          -4.6713   -1.8004    1.1459 H       1  LIG1        0.0469
     41 H          -5.2250   -0.5111    2.2122 H       1  LIG1        0.0469
     42 H          -4.2666   -1.2053   -1.3762 H       1  LIG1        0.0307
     43 H          -3.1016   -1.8393   -3.7508 H       1  LIG1        0.0280
     44 H          -4.0303   -0.4802   -4.4302 H       1  LIG1        0.0280
     45 H          -2.4882   -0.9315   -5.1549 H       1  LIG1        0.0280
     46 H          -4.9341    1.7010   -1.9141 H       1  LIG1        0.0319
     47 H          -4.9453    0.5252   -3.2130 H       1  LIG1        0.0319
     48 H          -7.7433   -3.8726    0.8568 H       1  LIG1        0.1545
     49 H         -14.3143   -4.2581    1.9605 H       1  LIG1        0.2182
@<TRIPOS>BOND
     1     1     2   ar
     2     1     3   ar
     3     2     4   ar
     4     3     8   ar
     5     4     9   ar
     6     5     6   ar
     7     5    11   ar
     8     6    12   ar
     9     7    10   ar
    10     7    12   ar
    11     8     9   ar
    12     8    20    1
    13     9    21    1
    14    10    11   ar
    15    10    22   ar
    16    11    23   ar
    17    12    26    1
    18    13    14    1
    19    13    22   ar
    20    13    23   ar
    21    14    24   am
    22    14    25    2
    23    15    17    1
    24    15    19    1
    25    16    18    1
    26    16    19    1
    27    17    24    1
    28    18    24    1
    29    19    21    1
    30     1    27    1
    31     2    28    1
    32     3    29    1
    33     4    30    1
    34     5    31    1
    35     6    32    1
    36     7    33    1
    37    15    34    1
    38    15    35    1
    39    16    36    1
    40    16    37    1
    41    17    38    1
    42    17    39    1
    43    18    40    1
    44    18    41    1
    45    19    42    1
    46    20    43    1
    47    20    44    1
    48    20    45    1
    49    21    46    1
    50    21    47    1
    51    23    48    1
    52    26    49    1
