@<TRIPOS>MOLECULE
ChEBML348219
 32 35 0 0 0
SMALL
USER_CHARGES

@<TRIPOS>ATOM
      1 C         -12.4214   -4.7481    1.3401 C.ar    1  LIG1       -0.0615
      2 C         -11.5311   -5.5365    0.6137 C.ar    1  LIG1       -0.0603
      3 C         -12.0057   -3.5411    1.9140 C.ar    1  LIG1       -0.0530
      4 C         -10.2006   -5.1456    0.4376 C.ar    1  LIG1       -0.0402
      5 C          -4.2524   -2.3410   -1.6795 C.ar    1  LIG1       -0.0373
      6 C          -3.2457   -1.6379   -2.3475 C.ar    1  LIG1       -0.0244
      7 C          -3.7030    0.3637   -1.0508 C.ar    1  LIG1       -0.0171
      8 C          -9.9222   -1.9942    2.1802 C.ar    1  LIG1       -0.0276
      9 C          -5.6372    0.0296    0.6674 C.ar    1  LIG1       -0.0275
     10 C         -10.6690   -3.1266    1.7498 C.ar    1  LIG1       -0.0022
     11 C          -4.7229   -0.3246   -0.3640 C.ar    1  LIG1        0.0007
     12 C          -9.7991   -3.9367    1.0169 C.ar    1  LIG1        0.0378
     13 C          -4.9735   -1.6583   -0.6935 C.ar    1  LIG1        0.0380
     14 C          -2.9736   -0.3064   -2.0395 C.ar    1  LIG1        0.1235
     15 C          -8.6373   -2.1365    1.7093 C.ar    1  LIG1        0.0811
     16 C          -6.4109   -1.0753    0.9387 C.ar    1  LIG1        0.0811
     17 C          -7.4644   -1.2070    1.8948 C.2     1  LIG1        0.2206
     18 N          -8.5729   -3.3109    1.0087 N.ar    1  LIG1       -0.3112
     19 N          -6.0030   -2.0884    0.1130 N.ar    1  LIG1       -0.3112
     20 O          -7.4659   -0.5421    2.9570 O.2     1  LIG1       -0.2856
     21 F          -2.0018    0.3410   -2.6971 F       1  LIG1       -0.2069
     22 H         -13.4514   -5.0728    1.4628 H       1  LIG1        0.0623
     23 H         -11.8753   -6.4702    0.1770 H       1  LIG1        0.0623
     24 H         -12.7103   -2.9359    2.4774 H       1  LIG1        0.0629
     25 H          -9.5075   -5.7597   -0.1276 H       1  LIG1        0.0642
     26 H          -4.4639   -3.3778   -1.9200 H       1  LIG1        0.0644
     27 H          -2.6670   -2.1385   -3.1198 H       1  LIG1        0.0654
     28 H          -3.4799    1.4014   -0.8207 H       1  LIG1        0.0660
     29 H         -10.2901   -1.1661    2.7713 H       1  LIG1        0.0651
     30 H          -5.7171    0.9915    1.1559 H       1  LIG1        0.0651
     31 H          -7.7462   -3.6702    0.5511 H       1  LIG1        0.1529
     32 H          -6.3987   -3.0183    0.0949 H       1  LIG1        0.1529
@<TRIPOS>BOND
     1     1     2   ar
     2     1     3   ar
     3     2     4   ar
     4     3    10   ar
     5     4    12   ar
     6     5     6   ar
     7     5    13   ar
     8     6    14   ar
     9     7    11   ar
    10     7    14   ar
    11     8    10   ar
    12     8    15   ar
    13     9    11   ar
    14     9    16   ar
    15    10    12   ar
    16    11    13   ar
    17    12    18   ar
    18    13    19   ar
    19    14    21    1
    20    15    17    1
    21    15    18   ar
    22    16    17    1
    23    16    19   ar
    24    17    20    2
    25     1    22    1
    26     2    23    1
    27     3    24    1
    28     4    25    1
    29     5    26    1
    30     6    27    1
    31     7    28    1
    32     8    29    1
    33     9    30    1
    34    18    31    1
    35    19    32    1
