@<TRIPOS>MOLECULE
ChEBML311438
 53 55 0 0 0
SMALL
USER_CHARGES

@<TRIPOS>ATOM
      1 C         -11.6413   -5.3594    0.8039 C.ar    1  LIG1       -0.0566
      2 C         -11.9889   -2.9725    0.9420 C.ar    1  LIG1       -0.0566
      3 C         -10.2751   -5.1726    1.0138 C.ar    1  LIG1       -0.0404
      4 C         -10.6226   -2.7857    1.1520 C.ar    1  LIG1       -0.0404
      5 C          -2.8231   -1.1019   -2.3543 C.ar    1  LIG1       -0.0137
      6 C         -12.4983   -4.2593    0.7679 C.ar    1  LIG1       -0.0425
      7 C          -1.9914   -0.3953   -3.2052 C.ar    1  LIG1       -0.0083
      8 C          -9.7657   -3.8858    1.1879 C.ar    1  LIG1        0.0340
      9 C          -3.8832   -0.4290   -1.7809 C.ar    1  LIG1        0.1433
     10 C          -2.2750    0.9374   -3.4265 C.ar    1  LIG1        0.1543
     11 C          -7.8784   -2.4309    1.6477 C.2     1  LIG1        0.3050
     12 C          -4.8422   -0.6835    0.4522 C.3     1  LIG1        0.0289
     13 C          -5.7943   -1.9175   -1.5194 C.3     1  LIG1        0.0289
     14 C          -6.3088   -0.6751    0.8771 C.3     1  LIG1        0.0315
     15 C          -6.4825   -2.7687   -0.4512 C.3     1  LIG1        0.0315
     16 C          -0.8349   -1.0841   -3.8446 C.3     1  LIG1       -0.0365
     17 C         -14.5861   -5.3511    1.6596 C.3     1  LIG1       -0.0561
     18 C         -14.2310   -5.1578   -0.8249 C.3     1  LIG1       -0.0561
     19 C         -14.8200   -3.1527    0.5220 C.3     1  LIG1       -0.0561
     20 C         -13.9590   -4.4593    0.5435 C.3     1  LIG1       -0.0132
     21 N          -4.1370    0.8759   -2.0155 N.ar    1  LIG1       -0.1337
     22 N          -3.3197    1.5703   -2.8520 N.ar    1  LIG1       -0.1364
     23 N          -4.7065   -1.1290   -0.9373 N.pl3   1  LIG1       -0.3112
     24 N          -6.9261   -1.9892    0.7098 N.am    1  LIG1       -0.2824
     25 N          -8.3949   -3.6980    1.3988 N.am    1  LIG1       -0.2691
     26 O          -8.2230   -1.7516    2.6202 O.2     1  LIG1       -0.2537
     27 CL         -1.3295    1.9336   -4.4562 Cl      1  LIG1       -0.0599
     28 H         -12.0291   -6.3654    0.6670 H       1  LIG1        0.0626
     29 H         -12.6492   -2.1097    0.9149 H       1  LIG1        0.0626
     30 H          -9.6165   -6.0372    1.0403 H       1  LIG1        0.0642
     31 H         -10.2361   -1.7784    1.2854 H       1  LIG1        0.0642
     32 H          -2.6435   -2.1526   -2.1468 H       1  LIG1        0.0664
     33 H          -4.4259    0.3226    0.5859 H       1  LIG1        0.0485
     34 H          -4.2683   -1.3637    1.0932 H       1  LIG1        0.0485
     35 H          -5.4064   -2.5740   -2.3075 H       1  LIG1        0.0485
     36 H          -6.5260   -1.2413   -1.9800 H       1  LIG1        0.0485
     37 H          -6.3927   -0.3482    1.9188 H       1  LIG1        0.0486
     38 H          -6.8848    0.0296    0.2649 H       1  LIG1        0.0486
     39 H          -7.3419   -3.2795   -0.8977 H       1  LIG1        0.0486
     40 H          -5.7932   -3.5337   -0.0739 H       1  LIG1        0.0486
     41 H          -1.1329   -1.5205   -4.8063 H       1  LIG1        0.0281
     42 H          -0.0037   -0.3887   -4.0219 H       1  LIG1        0.0281
     43 H          -0.4447   -1.8873   -3.2051 H       1  LIG1        0.0281
     44 H         -15.6609   -5.5138    1.5180 H       1  LIG1        0.0239
     45 H         -14.1149   -6.3395    1.6955 H       1  LIG1        0.0239
     46 H         -14.4458   -4.8839    2.6417 H       1  LIG1        0.0239
     47 H         -15.3032   -5.3064   -0.9935 H       1  LIG1        0.0239
     48 H         -13.8495   -4.5833   -1.6771 H       1  LIG1        0.0239
     49 H         -13.7544   -6.1450   -0.8480 H       1  LIG1        0.0239
     50 H         -15.8855   -3.3514    0.3541 H       1  LIG1        0.0239
     51 H         -14.7391   -2.6166    1.4747 H       1  LIG1        0.0239
     52 H         -14.4882   -2.4803   -0.2778 H       1  LIG1        0.0239
     53 H          -7.8156   -4.5294    1.4163 H       1  LIG1        0.1573
@<TRIPOS>BOND
     1     1     3   ar
     2     1     6   ar
     3     2     4   ar
     4     2     6   ar
     5     3     8   ar
     6     4     8   ar
     7     5     7   ar
     8     5     9   ar
     9     6    20    1
    10     7    10   ar
    11     7    16    1
    12     8    25    1
    13     9    21   ar
    14     9    23    1
    15    10    22   ar
    16    10    27    1
    17    11    24   am
    18    11    25   am
    19    11    26    2
    20    12    14    1
    21    12    23    1
    22    13    15    1
    23    13    23    1
    24    14    24    1
    25    15    24    1
    26    17    20    1
    27    18    20    1
    28    19    20    1
    29    21    22   ar
    30     1    28    1
    31     2    29    1
    32     3    30    1
    33     4    31    1
    34     5    32    1
    35    12    33    1
    36    12    34    1
    37    13    35    1
    38    13    36    1
    39    14    37    1
    40    14    38    1
    41    15    39    1
    42    15    40    1
    43    16    41    1
    44    16    42    1
    45    16    43    1
    46    17    44    1
    47    17    45    1
    48    17    46    1
    49    18    47    1
    50    18    48    1
    51    18    49    1
    52    19    50    1
    53    19    51    1
    54    19    52    1
    55    25    53    1
