@<TRIPOS>MOLECULE
ChEBML204900
 72 75 0 0 0
SMALL
USER_CHARGES

@<TRIPOS>ATOM
      1 C         -10.6763   -4.0543   -0.3931 C.ar    1  LIG1       -0.0383
      2 C         -12.0730   -4.0083   -0.4245 C.ar    1  LIG1       -0.0377
      3 C          -1.2392    0.1611   -2.5266 C.ar    1  LIG1       -0.0345
      4 C          -1.7572    1.2183   -3.2663 C.ar    1  LIG1       -0.0227
      5 C         -12.1510   -3.0883    1.8215 C.ar    1  LIG1       -0.0304
      6 C          -9.7798   -2.7648    2.8594 C.ar    1  LIG1       -0.0261
      7 C         -10.7434   -3.1253    1.8764 C.ar    1  LIG1       -0.0003
      8 C         -10.0401   -3.6064    0.7700 C.ar    1  LIG1        0.0379
      9 C         -12.8010   -3.5331    0.6646 C.ar    1  LIG1        0.0437
     10 C          -2.1023   -0.7127   -1.8748 C.ar    1  LIG1        0.0675
     11 C          -8.5333   -3.0293    2.3406 C.ar    1  LIG1        0.0947
     12 C          -3.4643   -0.4876   -1.9930 C.ar    1  LIG1        0.1432
     13 C          -3.1347    1.3569   -3.3224 C.ar    1  LIG1        0.1310
     14 C          -7.2534   -2.8324    2.9559 C.2     1  LIG1        0.2598
     15 C          -4.3349   -2.2516    0.9460 C.3     1  LIG1       -0.0185
     16 C          -6.3023   -0.9333    0.0538 C.3     1  LIG1       -0.0185
     17 C          -4.9180   -2.1034    2.3507 C.3     1  LIG1        0.0162
     18 C          -6.8467   -0.8365    1.4799 C.3     1  LIG1        0.0162
     19 C          -4.7793   -1.1154    0.0162 C.3     1  LIG1        0.0271
     20 C          -5.5956   -2.2158   -3.2467 C.3     1  LIG1       -0.0494
     21 C          -0.9723   -4.1141   -0.9192 C.3     1  LIG1       -0.0444
     22 C          -1.1483   -3.0034   -3.1606 C.3     1  LIG1       -0.0444
     23 C           0.7130   -2.3892   -1.5966 C.3     1  LIG1       -0.0444
     24 C         -15.0242   -5.3424    2.3840 C.3     1  LIG1        0.0225
     25 C          -4.8232   -2.5645   -2.0201 C.3     1  LIG1        0.0104
     26 C          -0.7588   -2.8073   -1.6917 C.3     1  LIG1        0.0228
     27 N          -4.0047    0.5283   -2.7026 N.ar    1  LIG1       -0.2193
     28 N          -8.7006   -3.5365    1.0800 N.ar    1  LIG1       -0.3101
     29 N          -6.3792   -1.9619    2.2910 N.am    1  LIG1       -0.2966
     30 N          -1.5799   -1.7817   -1.1227 N.pl3   1  LIG1       -0.3369
     31 N         -14.2278   -3.4986    0.6012 N.pl3   1  LIG1       -0.2633
     32 N          -4.3400   -1.3635   -1.3422 N.pl3   1  LIG1       -0.3113
     33 O          -6.9707   -3.4080    4.0053 O.2     1  LIG1       -0.2702
     34 O         -16.4684   -4.7395    0.3059 O.2     1  LIG1       -0.4814
     35 O         -14.3354   -6.0331   -0.0442 O.2     1  LIG1       -0.4814
     36 S         -15.0796   -4.9944    0.6403 S.O2    1  LIG1       -0.1957
     37 CL         -3.8632    2.6319   -4.2098 Cl      1  LIG1       -0.0622
     38 H         -10.1105   -4.4243   -1.2415 H       1  LIG1        0.0643
     39 H         -12.5886   -4.3517   -1.3189 H       1  LIG1        0.0643
     40 H          -0.1622    0.0295   -2.4632 H       1  LIG1        0.0645
     41 H          -1.0921    1.9065   -3.7773 H       1  LIG1        0.0656
     42 H         -12.7214   -2.7183    2.6695 H       1  LIG1        0.0650
     43 H          -9.9816   -2.3558    3.8406 H       1  LIG1        0.0651
     44 H          -3.2409   -2.2937    1.0054 H       1  LIG1        0.0302
     45 H          -4.6737   -3.2054    0.5216 H       1  LIG1        0.0302
     46 H          -6.7672   -1.7972   -0.4390 H       1  LIG1        0.0302
     47 H          -6.5986   -0.0424   -0.5125 H       1  LIG1        0.0302
     48 H          -4.6216   -2.9651    2.9542 H       1  LIG1        0.0470
     49 H          -4.5228   -1.2130    2.8526 H       1  LIG1        0.0470
     50 H          -6.5045    0.0841    1.9663 H       1  LIG1        0.0470
     51 H          -7.9404   -0.8031    1.4541 H       1  LIG1        0.0470
     52 H          -4.3054   -0.1849    0.3494 H       1  LIG1        0.0506
     53 H          -6.4687   -1.6030   -2.9977 H       1  LIG1        0.0246
     54 H          -4.9673   -1.6751   -3.9630 H       1  LIG1        0.0246
     55 H          -5.9530   -3.1313   -3.7332 H       1  LIG1        0.0246
     56 H          -0.7002   -3.9994    0.1365 H       1  LIG1        0.0252
     57 H          -2.0183   -4.4374   -0.9636 H       1  LIG1        0.0252
     58 H          -0.3521   -4.9204   -1.3279 H       1  LIG1        0.0252
     59 H          -1.0040   -2.0807   -3.7345 H       1  LIG1        0.0252
     60 H          -2.2044   -3.2819   -3.2558 H       1  LIG1        0.0252
     61 H          -0.5484   -3.7904   -3.6309 H       1  LIG1        0.0252
     62 H           0.8945   -1.4555   -2.1415 H       1  LIG1        0.0252
     63 H           1.0180   -2.2372   -0.5553 H       1  LIG1        0.0252
     64 H           1.3701   -3.1512   -2.0318 H       1  LIG1        0.0252
     65 H         -15.5397   -6.2872    2.5632 H       1  LIG1        0.0442
     66 H         -13.9788   -5.4134    2.6879 H       1  LIG1        0.0442
     67 H         -15.5222   -4.5286    2.9134 H       1  LIG1        0.0442
     68 H          -3.9529   -3.1762   -2.2760 H       1  LIG1        0.0466
     69 H          -5.4475   -3.1181   -1.3128 H       1  LIG1        0.0466
     70 H          -7.9515   -3.8200    0.4633 H       1  LIG1        0.1529
     71 H          -1.8070   -1.8070   -0.1452 H       1  LIG1        0.1471
     72 H         -14.6582   -2.7433    1.1594 H       1  LIG1        0.1702
@<TRIPOS>BOND
     1     1     2   ar
     2     1     8   ar
     3     2     9   ar
     4     3     4   ar
     5     3    10   ar
     6     4    13   ar
     7     5     7   ar
     8     5     9   ar
     9     6     7   ar
    10     6    11   ar
    11     7     8   ar
    12     8    28   ar
    13     9    31    1
    14    10    12   ar
    15    10    30    1
    16    11    14    1
    17    11    28   ar
    18    12    27   ar
    19    12    32    1
    20    13    27   ar
    21    13    37    1
    22    14    29   am
    23    14    33    2
    24    15    17    1
    25    15    19    1
    26    16    18    1
    27    16    19    1
    28    17    29    1
    29    18    29    1
    30    19    32    1
    31    20    25    1
    32    21    26    1
    33    22    26    1
    34    23    26    1
    35    24    36    1
    36    25    32    1
    37    26    30    1
    38    31    36    1
    39    34    36    2
    40    35    36    2
    41     1    38    1
    42     2    39    1
    43     3    40    1
    44     4    41    1
    45     5    42    1
    46     6    43    1
    47    15    44    1
    48    15    45    1
    49    16    46    1
    50    16    47    1
    51    17    48    1
    52    17    49    1
    53    18    50    1
    54    18    51    1
    55    19    52    1
    56    20    53    1
    57    20    54    1
    58    20    55    1
    59    21    56    1
    60    21    57    1
    61    21    58    1
    62    22    59    1
    63    22    60    1
    64    22    61    1
    65    23    62    1
    66    23    63    1
    67    23    64    1
    68    24    65    1
    69    24    66    1
    70    24    67    1
    71    25    68    1
    72    25    69    1
    73    28    70    1
    74    30    71    1
    75    31    72    1
