@<TRIPOS>MOLECULE
ChEBML716269
 37 40 0 0 0
SMALL
USER_CHARGES

@<TRIPOS>ATOM
      1 C          -3.9331   -1.3163   -0.4586 C.ar    1  LIG1       -0.0622
      2 C          -5.0622   -1.9554   -0.9389 C.ar    1  LIG1       -0.0616
      3 C          -3.9737   -0.6427    0.7491 C.ar    1  LIG1       -0.0616
      4 C          -6.2364   -1.9245   -0.2150 C.ar    1  LIG1       -0.0527
      5 C          -5.1437   -0.5999    1.4793 C.ar    1  LIG1       -0.0527
      6 C         -10.3674   -5.1820    0.5393 C.ar    1  LIG1       -0.0376
      7 C         -11.6910   -5.4889    0.7585 C.ar    1  LIG1       -0.0299
      8 C         -12.0181   -3.4106    1.9235 C.ar    1  LIG1       -0.0223
      9 C         -10.6708   -3.0847    1.7137 C.ar    1  LIG1        0.0036
     10 C          -6.2836   -1.2471    1.0032 C.ar    1  LIG1        0.0016
     11 C          -9.8699   -1.9832    2.0563 C.ar    1  LIG1       -0.0134
     12 C          -9.8410   -3.9844    1.0101 C.ar    1  LIG1        0.0382
     13 C         -12.5161   -4.6062    1.4526 C.ar    1  LIG1        0.0753
     14 C          -8.6070   -2.2122    1.5754 C.ar    1  LIG1        0.0605
     15 C          -7.5415   -1.2101    1.7855 C.2     1  LIG1        0.0863
     16 C         -10.2002   -0.7216    2.8103 C.3     1  LIG1       -0.0055
     17 C          -8.9393   -0.2442    3.5333 C.3     1  LIG1        0.0439
     18 C         -14.0356   -6.2051    1.0661 C.3     1  LIG1        0.0422
     19 N          -7.7532   -0.2891    2.6907 N.2     1  LIG1       -0.2823
     20 N          -8.5800   -3.4216    0.9419 N.ar    1  LIG1       -0.3124
     21 O         -13.8218   -4.9239    1.6618 O.3     1  LIG1       -0.3493
     22 H          -3.0162   -1.3436   -1.0287 H       1  LIG1        0.0622
     23 H          -5.0243   -2.4800   -1.8823 H       1  LIG1        0.0623
     24 H          -3.0891   -0.1456    1.1190 H       1  LIG1        0.0623
     25 H          -7.1171   -2.4241   -0.5908 H       1  LIG1        0.0630
     26 H          -5.1756   -0.0697    2.4197 H       1  LIG1        0.0630
     27 H          -9.7361   -5.8732    0.0007 H       1  LIG1        0.0643
     28 H         -12.0932   -6.4210    0.3901 H       1  LIG1        0.0651
     29 H         -12.6634   -2.7280    2.4563 H       1  LIG1        0.0657
     30 H         -10.5346    0.0455    2.1118 H       1  LIG1        0.0336
     31 H         -10.9852   -0.9251    3.5386 H       1  LIG1        0.0336
     32 H          -9.0936    0.7816    3.8684 H       1  LIG1        0.0518
     33 H          -8.7743   -0.8757    4.4062 H       1  LIG1        0.0518
     34 H         -15.0742   -6.5035    1.2091 H       1  LIG1        0.0535
     35 H         -13.8166   -6.1511   -0.0003 H       1  LIG1        0.0535
     36 H         -13.3792   -6.9380    1.5352 H       1  LIG1        0.0535
     37 H          -7.8051   -3.8198    0.5154 H       1  LIG1        0.1529
@<TRIPOS>BOND
     1     1     2   ar
     2     1     3   ar
     3     2     4   ar
     4     3     5   ar
     5     4    10   ar
     6     5    10   ar
     7     6     7   ar
     8     6    12   ar
     9     7    13   ar
    10     8     9   ar
    11     8    13   ar
    12     9    11   ar
    13     9    12   ar
    14    10    15    1
    15    11    14   ar
    16    11    16    1
    17    12    20   ar
    18    13    21    1
    19    14    15    1
    20    14    20   ar
    21    15    19    2
    22    16    17    1
    23    17    19    1
    24    18    21    1
    25     1    22    1
    26     2    23    1
    27     3    24    1
    28     4    25    1
    29     5    26    1
    30     6    27    1
    31     7    28    1
    32     8    29    1
    33    16    30    1
    34    16    31    1
    35    17    32    1
    36    17    33    1
    37    18    34    1
    38    18    35    1
    39    18    36    1
    40    20    37    1
