@<TRIPOS>MOLECULE
ChEBML311606
 53 55 0 0 0
SMALL
USER_CHARGES

@<TRIPOS>ATOM
      1 C         -11.9845   -2.9689    0.9377 C.ar    1  LIG1       -0.0566
      2 C         -11.6375   -5.3561    0.8034 C.ar    1  LIG1       -0.0566
      3 C         -10.6184   -2.7821    1.1481 C.ar    1  LIG1       -0.0404
      4 C         -10.2712   -5.1693    1.0137 C.ar    1  LIG1       -0.0404
      5 C          -1.9904   -0.3700   -3.2179 C.ar    1  LIG1       -0.0355
      6 C          -2.2895    0.9610   -3.4292 C.ar    1  LIG1        0.0500
      7 C         -12.4941   -4.2559    0.7653 C.ar    1  LIG1       -0.0425
      8 C          -2.8110   -1.0914   -2.3688 C.ar    1  LIG1       -0.0072
      9 C          -9.7618   -3.8823    1.1862 C.ar    1  LIG1        0.0340
     10 C          -3.8763   -0.4340   -1.7869 C.ar    1  LIG1        0.1458
     11 C          -7.8735   -2.4280    1.6442 C.2     1  LIG1        0.3050
     12 C          -4.8359   -0.6845    0.4465 C.3     1  LIG1        0.0289
     13 C          -5.7885   -1.9208   -1.5234 C.3     1  LIG1        0.0289
     14 C          -6.3026   -0.6744    0.8711 C.3     1  LIG1        0.0315
     15 C          -6.4775   -2.7699   -0.4540 C.3     1  LIG1        0.0315
     16 C          -2.5234   -2.5317   -2.1138 C.3     1  LIG1       -0.0362
     17 C         -14.4350   -3.7171   -0.7474 C.3     1  LIG1       -0.0561
     18 C         -14.7920   -3.9065    1.7371 C.3     1  LIG1       -0.0561
     19 C         -14.4097   -5.9421    0.3618 C.3     1  LIG1       -0.0561
     20 C         -13.9548   -4.4555    0.5404 C.3     1  LIG1       -0.0132
     21 N          -3.3388    1.5785   -2.8463 N.ar    1  LIG1       -0.1572
     22 N          -4.1451    0.8696   -2.0114 N.ar    1  LIG1       -0.1350
     23 N          -4.7003   -1.1322   -0.9423 N.pl3   1  LIG1       -0.3110
     24 N          -6.9208   -1.9883    0.7058 N.am    1  LIG1       -0.2824
     25 N          -8.3908   -3.6951    1.3970 N.am    1  LIG1       -0.2691
     26 O          -8.2178   -1.7469    2.6155 O.2     1  LIG1       -0.2537
     27 H         -12.6450   -2.1061    0.9118 H       1  LIG1        0.0626
     28 H         -12.0260   -6.3624    0.6707 H       1  LIG1        0.0626
     29 H         -10.2322   -1.7746    1.2808 H       1  LIG1        0.0642
     30 H          -9.6128   -6.0338    1.0427 H       1  LIG1        0.0642
     31 H          -1.1373   -0.8273   -3.7078 H       1  LIG1        0.0643
     32 H          -1.6858    1.5798   -4.0827 H       1  LIG1        0.0859
     33 H          -4.4189    0.3216    0.5787 H       1  LIG1        0.0485
     34 H          -4.2626   -1.3641    1.0886 H       1  LIG1        0.0485
     35 H          -5.4009   -2.5788   -2.3104 H       1  LIG1        0.0485
     36 H          -6.5197   -1.2448   -1.9852 H       1  LIG1        0.0485
     37 H          -6.3864   -0.3459    1.9123 H       1  LIG1        0.0486
     38 H          -6.8779    0.0297    0.2578 H       1  LIG1        0.0486
     39 H          -7.3371   -3.2808   -0.8999 H       1  LIG1        0.0486
     40 H          -5.7888   -3.5348   -0.0754 H       1  LIG1        0.0486
     41 H          -1.8538   -2.6414   -1.2518 H       1  LIG1        0.0281
     42 H          -3.4450   -3.0930   -1.9114 H       1  LIG1        0.0281
     43 H          -2.0493   -3.0042   -2.9844 H       1  LIG1        0.0281
     44 H         -15.5069   -3.8480   -0.9361 H       1  LIG1        0.0239
     45 H         -14.2506   -2.6390   -0.6842 H       1  LIG1        0.0239
     46 H         -13.8936   -4.0925   -1.6239 H       1  LIG1        0.0239
     47 H         -15.8658   -4.0513    1.5755 H       1  LIG1        0.0239
     48 H         -14.5427   -4.3933    2.6873 H       1  LIG1        0.0239
     49 H         -14.6197   -2.8305    1.8583 H       1  LIG1        0.0239
     50 H         -15.4902   -6.0369    0.1995 H       1  LIG1        0.0239
     51 H         -13.9134   -6.4008   -0.5015 H       1  LIG1        0.0239
     52 H         -14.1648   -6.5343    1.2513 H       1  LIG1        0.0239
     53 H          -7.8121   -4.5269    1.4159 H       1  LIG1        0.1573
@<TRIPOS>BOND
     1     1     3   ar
     2     1     7   ar
     3     2     4   ar
     4     2     7   ar
     5     3     9   ar
     6     4     9   ar
     7     5     6   ar
     8     5     8   ar
     9     6    21   ar
    10     7    20    1
    11     8    10   ar
    12     8    16    1
    13     9    25    1
    14    10    22   ar
    15    10    23    1
    16    11    24   am
    17    11    25   am
    18    11    26    2
    19    12    14    1
    20    12    23    1
    21    13    15    1
    22    13    23    1
    23    14    24    1
    24    15    24    1
    25    17    20    1
    26    18    20    1
    27    19    20    1
    28    21    22   ar
    29     1    27    1
    30     2    28    1
    31     3    29    1
    32     4    30    1
    33     5    31    1
    34     6    32    1
    35    12    33    1
    36    12    34    1
    37    13    35    1
    38    13    36    1
    39    14    37    1
    40    14    38    1
    41    15    39    1
    42    15    40    1
    43    16    41    1
    44    16    42    1
    45    16    43    1
    46    17    44    1
    47    17    45    1
    48    17    46    1
    49    18    47    1
    50    18    48    1
    51    18    49    1
    52    19    50    1
    53    19    51    1
    54    19    52    1
    55    25    53    1
