@<TRIPOS>MOLECULE
ChEBML928751
 31 33 0 0 0
SMALL
USER_CHARGES

@<TRIPOS>ATOM
      1 C         -11.2951   -5.6935    1.0461 C.ar    1  LIG1       -0.0600
      2 C         -12.2430   -5.1617    1.9133 C.ar    1  LIG1       -0.0610
      3 C         -10.1044   -5.0079    0.7881 C.ar    1  LIG1       -0.0352
      4 C         -12.0282   -3.9340    2.5446 C.ar    1  LIG1       -0.0460
      5 C          -2.6536    1.5331   -2.4964 C.ar    1  LIG1        0.0393
      6 C          -9.8623   -3.7653    1.4129 C.ar    1  LIG1        0.0790
      7 C         -10.8302   -3.2506    2.2807 C.ar    1  LIG1        0.0400
      8 C          -2.0536    0.4551   -3.1129 C.ar    1  LIG1        0.0079
      9 C          -3.7830   -0.0747   -1.5220 C.ar    1  LIG1        0.1635
     10 C          -8.8478   -1.8915    1.9845 C.ar    1  LIG1        0.1355
     11 C          -5.6199   -0.3153    0.1806 C.2     1  LIG1        0.2279
     12 C          -0.9788    0.4225   -4.1235 C.3     1  LIG1       -0.0317
     13 C          -6.3870   -1.4220    0.8721 C.3     1  LIG1        0.0775
     14 N          -3.6458    1.2313   -1.5841 N.ar    1  LIG1       -0.2336
     15 N          -8.7330   -2.9755    1.2534 N.ar    1  LIG1       -0.2335
     16 N          -4.6840   -0.8134   -0.7181 N.am    1  LIG1       -0.2635
     17 O          -5.8451    0.8618    0.4503 O.2     1  LIG1       -0.2762
     18 S         -10.2850   -1.7363    2.8991 S.2     1  LIG1       -0.0609
     19 S          -2.7508   -1.0006   -2.5331 S.2     1  LIG1       -0.0574
     20 S          -7.5852   -0.6793    2.0103 S.3     1  LIG1       -0.0894
     21 H         -11.4797   -6.6502    0.5652 H       1  LIG1        0.0623
     22 H         -13.1637   -5.7073    2.1033 H       1  LIG1        0.0623
     23 H          -9.3705   -5.4345    0.1104 H       1  LIG1        0.0646
     24 H         -12.7734   -3.5253    3.2205 H       1  LIG1        0.0635
     25 H          -2.4067    2.5707   -2.6787 H       1  LIG1        0.0849
     26 H           0.0142    0.3768   -3.6467 H       1  LIG1        0.0286
     27 H          -1.0682   -0.4484   -4.7953 H       1  LIG1        0.0286
     28 H          -0.9964    1.3128   -4.7757 H       1  LIG1        0.0286
     29 H          -6.9119   -2.0140    0.1161 H       1  LIG1        0.0484
     30 H          -5.7230   -2.0925    1.4248 H       1  LIG1        0.0484
     31 H          -4.6417   -1.8261   -0.8088 H       1  LIG1        0.1577
@<TRIPOS>BOND
     1     1     2   ar
     2     1     3   ar
     3     2     4   ar
     4     3     6   ar
     5     4     7   ar
     6     5     8   ar
     7     5    14   ar
     8     6     7   ar
     9     6    15   ar
    10     7    18   ar
    11     8    12    1
    12     8    19   ar
    13     9    14   ar
    14     9    16    1
    15     9    19   ar
    16    10    15   ar
    17    10    18   ar
    18    10    20    1
    19    11    13    1
    20    11    16   am
    21    11    17    2
    22    13    20    1
    23     1    21    1
    24     2    22    1
    25     3    23    1
    26     4    24    1
    27     5    25    1
    28    12    26    1
    29    12    27    1
    30    12    28    1
    31    13    29    1
    32    13    30    1
    33    16    31    1
