@<TRIPOS>MOLECULE
ChEBML848205
 50 54 0 0 0
SMALL
USER_CHARGES

@<TRIPOS>ATOM
      1 C         -12.2375   -5.1115    1.1799 C.ar    1  LIG1       -0.0600
      2 C         -12.6205   -4.2187    2.1705 C.ar    1  LIG1       -0.0602
      3 C         -11.0164   -4.9836    0.5579 C.ar    1  LIG1       -0.0344
      4 C         -11.7827   -3.1892    2.5458 C.ar    1  LIG1       -0.0385
      5 C         -10.1546   -3.9459    0.9264 C.ar    1  LIG1        0.0866
      6 C         -10.5479   -3.0445    1.9304 C.ar    1  LIG1        0.0576
      7 C          -8.5333   -2.5087    1.1792 C.ar    1  LIG1        0.1407
      8 C          -7.2445   -1.8140    0.9985 C.2     1  LIG1        0.1286
      9 C          -6.2746   -2.1786    0.0969 C.2     1  LIG1        0.0822
     10 C          -6.8289   -0.6759    1.7289 C.2     1  LIG1        0.2165
     11 C          -5.4544   -0.3191    1.2047 C.3     1  LIG1        0.0375
     12 C          -2.4281   -0.7923   -3.4044 C.3     1  LIG1       -0.0501
     13 C          -3.7342    0.0288   -3.5001 C.3     1  LIG1       -0.0497
     14 C          -2.0697    1.3531   -2.3709 C.3     1  LIG1       -0.0471
     15 C          -2.4572   -0.5526   -0.9505 C.3     1  LIG1       -0.0420
     16 C          -1.6446   -0.1501   -2.2190 C.3     1  LIG1       -0.0406
     17 C          -3.6170    1.0899   -2.3635 C.3     1  LIG1       -0.0330
     18 C          -3.7634    0.2685   -1.0462 C.3     1  LIG1        0.0038
     19 C          -6.2206    0.1512   -1.4827 C.3     1  LIG1       -0.0221
     20 C          -4.9741   -0.6631   -1.1302 C.3     1  LIG1       -0.0165
     21 N          -8.9207   -3.5682    0.5086 N.ar    1  LIG1       -0.2304
     22 N          -9.5036   -2.1488    2.0762 N.ar    1  LIG1       -0.2970
     23 N          -6.3750   -3.2285   -0.7480 N.pl3   1  LIG1       -0.3225
     24 N          -5.1726   -1.3261    0.1655 N.pl3   1  LIG1        0.3008
     25 O          -7.4496   -0.1010    2.6000 O.2     1  LIG1       -0.2877
     26 H         -12.9028   -5.9130    0.8945 H       1  LIG1        0.0623
     27 H         -13.5814   -4.3302    2.6507 H       1  LIG1        0.0623
     28 H         -10.7251   -5.6821   -0.2126 H       1  LIG1        0.0646
     29 H         -12.0871   -2.4977    3.3175 H       1  LIG1        0.0643
     30 H          -4.7157   -0.3819    2.0038 H       1  LIG1        0.0905
     31 H          -5.4615    0.6811    0.7715 H       1  LIG1        0.0905
     32 H          -1.8565   -0.7062   -4.3285 H       1  LIG1        0.0269
     33 H          -2.6512   -1.8375   -3.1904 H       1  LIG1        0.0269
     34 H          -3.8048    0.5186   -4.4713 H       1  LIG1        0.0270
     35 H          -4.5995   -0.6127   -3.3333 H       1  LIG1        0.0270
     36 H          -1.7535    1.9554   -1.5192 H       1  LIG1        0.0272
     37 H          -1.7322    1.7799   -3.3152 H       1  LIG1        0.0272
     38 H          -1.9074   -0.2880   -0.0472 H       1  LIG1        0.0274
     39 H          -2.6777   -1.6200   -0.9633 H       1  LIG1        0.0274
     40 H          -0.5731   -0.3461   -2.1805 H       1  LIG1        0.0303
     41 H          -4.2653    1.9612   -2.4564 H       1  LIG1        0.0308
     42 H          -3.8578    0.9369   -0.1902 H       1  LIG1        0.0363
     43 H          -7.0696   -0.5206   -1.6093 H       1  LIG1        0.0287
     44 H          -6.4325    0.8571   -0.6797 H       1  LIG1        0.0287
     45 H          -6.0477    0.6970   -2.4102 H       1  LIG1        0.0287
     46 H          -4.8014   -1.4147   -1.9004 H       1  LIG1        0.0853
     47 H          -9.4667   -1.4037    2.6962 H       1  LIG1        0.1544
     48 H          -5.6839   -3.3862   -1.4101 H       1  LIG1        0.1474
     49 H          -7.1383   -3.8246   -0.6924 H       1  LIG1        0.1474
     50 H          -4.3474   -1.8523    0.4112 H       1  LIG1        0.2077
@<TRIPOS>BOND
     1     1     2   ar
     2     1     3   ar
     3     2     4   ar
     4     3     5   ar
     5     4     6   ar
     6     5     6   ar
     7     5    21   ar
     8     6    22   ar
     9     7     8    1
    10     7    21   ar
    11     7    22   ar
    12     8     9    2
    13     8    10    1
    14     9    23    1
    15     9    24    1
    16    10    11    1
    17    10    25    2
    18    11    24    1
    19    12    13    1
    20    12    16    1
    21    13    17    1
    22    14    16    1
    23    14    17    1
    24    15    16    1
    25    15    18    1
    26    17    18    1
    27    18    20    1
    28    19    20    1
    29    20    24    1
    30     1    26    1
    31     2    27    1
    32     3    28    1
    33     4    29    1
    34    11    30    1
    35    11    31    1
    36    12    32    1
    37    12    33    1
    38    13    34    1
    39    13    35    1
    40    14    36    1
    41    14    37    1
    42    15    38    1
    43    15    39    1
    44    16    40    1
    45    17    41    1
    46    18    42    1
    47    19    43    1
    48    19    44    1
    49    19    45    1
    50    20    46    1
    51    22    47    1
    52    23    48    1
    53    23    49    1
    54    24    50    1
