@<TRIPOS>MOLECULE
ChEBML208274
 43 46 0 0 0
SMALL
USER_CHARGES

@<TRIPOS>ATOM
      1 C          -2.5128   -2.3870   -1.4036 C.1     1  LIG1        0.1028
      2 C         -12.2145   -5.1496    0.5078 C.ar    1  LIG1       -0.0600
      3 C         -12.9692   -4.1960    1.1948 C.ar    1  LIG1       -0.0602
      4 C          -2.0930    0.6306   -3.5201 C.ar    1  LIG1       -0.0423
      5 C          -1.8991   -0.6372   -2.9831 C.ar    1  LIG1       -0.0393
      6 C         -10.8184   -5.0580    0.4476 C.ar    1  LIG1       -0.0344
      7 C         -12.3589   -3.1185    1.8453 C.ar    1  LIG1       -0.0385
      8 C          -3.1114    1.4090   -2.9940 C.ar    1  LIG1        0.0291
      9 C          -2.7180   -1.0816   -1.9509 C.ar    1  LIG1        0.0923
     10 C         -10.1885   -3.9818    1.0954 C.ar    1  LIG1        0.0864
     11 C         -10.9675   -3.0474    1.7721 C.ar    1  LIG1        0.0575
     12 C          -3.7083   -0.2264   -1.4948 C.ar    1  LIG1        0.1382
     13 C          -8.8128   -2.5624    1.9032 C.ar    1  LIG1        0.1434
     14 C          -5.3065   -1.8660   -0.7658 C.3     1  LIG1        0.0523
     15 C          -5.2525    0.4153    0.2283 C.3     1  LIG1        0.0523
     16 C          -5.9767   -2.3973    0.4940 C.3     1  LIG1       -0.0176
     17 C          -5.9278   -0.1205    1.4845 C.3     1  LIG1       -0.0176
     18 C          -7.5870   -1.7940    2.3004 C.3     1  LIG1        0.0233
     19 N          -2.3465   -3.4462   -0.9595 N.1     1  LIG1       -0.1922
     20 N          -3.9269    1.0117   -1.9917 N.ar    1  LIG1       -0.2400
     21 N          -8.8528   -3.6643    1.1880 N.ar    1  LIG1       -0.2303
     22 N         -10.0615   -2.1513    2.2788 N.ar    1  LIG1       -0.2969
     23 N          -4.5311   -0.6545   -0.4683 N.pl3   1  LIG1       -0.3043
     24 N          -6.7954   -1.2985    1.1227 N.4     1  LIG1        0.2537
     25 H         -12.7179   -5.9762    0.0125 H       1  LIG1        0.0623
     26 H         -14.0520   -4.2916    1.2238 H       1  LIG1        0.0623
     27 H          -1.4668    0.9980   -4.3249 H       1  LIG1        0.0639
     28 H          -1.1058   -1.2660   -3.3798 H       1  LIG1        0.0638
     29 H         -10.2412   -5.8049   -0.0879 H       1  LIG1        0.0646
     30 H         -12.9430   -2.3780    2.3798 H       1  LIG1        0.0643
     31 H          -3.3037    2.4056   -3.3781 H       1  LIG1        0.0840
     32 H          -4.6497   -2.6466   -1.1692 H       1  LIG1        0.0524
     33 H          -6.0637   -1.6440   -1.5293 H       1  LIG1        0.0524
     34 H          -6.0032    0.8550   -0.4414 H       1  LIG1        0.0524
     35 H          -4.5593    1.2149    0.5175 H       1  LIG1        0.0524
     36 H          -6.6552   -3.2222    0.2535 H       1  LIG1        0.0831
     37 H          -5.2424   -2.7296    1.2369 H       1  LIG1        0.0831
     38 H          -5.1959   -0.4641    2.2245 H       1  LIG1        0.0831
     39 H          -6.5726    0.6426    1.9326 H       1  LIG1        0.0831
     40 H          -7.8478   -0.9132    2.8970 H       1  LIG1        0.0899
     41 H          -6.9085   -2.4127    2.8976 H       1  LIG1        0.0899
     42 H         -10.2809   -1.3336    2.8322 H       1  LIG1        0.1542
     43 H          -7.4788   -0.9789    0.4225 H       1  LIG1        0.2009
@<TRIPOS>BOND
     1     1     9    1
     2     1    19    3
     3     2     3   ar
     4     2     6   ar
     5     3     7   ar
     6     4     5   ar
     7     4     8   ar
     8     5     9   ar
     9     6    10   ar
    10     7    11   ar
    11     8    20   ar
    12     9    12   ar
    13    10    11   ar
    14    10    21   ar
    15    11    22   ar
    16    12    20   ar
    17    12    23    1
    18    13    18    1
    19    13    21   ar
    20    13    22   ar
    21    14    16    1
    22    14    23    1
    23    15    17    1
    24    15    23    1
    25    16    24    1
    26    17    24    1
    27    18    24    1
    28     2    25    1
    29     3    26    1
    30     4    27    1
    31     5    28    1
    32     6    29    1
    33     7    30    1
    34     8    31    1
    35    14    32    1
    36    14    33    1
    37    15    34    1
    38    15    35    1
    39    16    36    1
    40    16    37    1
    41    17    38    1
    42    17    39    1
    43    18    40    1
    44    18    41    1
    45    22    42    1
    46    24    43    1
