@<TRIPOS>MOLECULE
ChEBML486727
 34 36 0 0 0
SMALL
USER_CHARGES

@<TRIPOS>ATOM
      1 C          -2.8415    1.6168   -3.1778 C.ar    1  LIG1       -0.0589
      2 C         -10.8192   -2.7970    2.5580 C.ar    1  LIG1       -0.0566
      3 C          -3.8970    1.2541   -2.3413 C.ar    1  LIG1       -0.0406
      4 C          -9.9246   -1.7607    2.8157 C.ar    1  LIG1       -0.0302
      5 C          -1.7522    0.7602   -3.3377 C.ar    1  LIG1       -0.0434
      6 C          -9.3139   -3.6901    0.8809 C.ar    1  LIG1       -0.0494
      7 C          -2.7740   -0.8218   -1.8243 C.ar    1  LIG1       -0.0220
      8 C          -8.4112   -2.6543    1.1328 C.ar    1  LIG1        0.0067
      9 C         -10.5149   -3.7597    1.5930 C.ar    1  LIG1       -0.0503
     10 C          -3.8633    0.0348   -1.6645 C.ar    1  LIG1        0.0343
     11 C          -8.7314   -1.7042    2.0981 C.ar    1  LIG1        0.0929
     12 C          -1.7185   -0.4590   -2.6608 C.ar    1  LIG1        0.0424
     13 C          -7.1487   -2.5356    0.4203 C.ar    1  LIG1       -0.0335
     14 C          -6.3171   -1.5267    0.6959 C.ar    1  LIG1        0.1108
     15 C          -6.6323   -0.5044    1.7160 C.ar    1  LIG1        0.3032
     16 C          -5.0653   -1.4966   -0.0711 C.2     1  LIG1        0.2534
     17 C         -11.4753   -4.8689    1.3226 C.3     1  LIG1       -0.0397
     18 N          -4.9353   -0.3319   -0.8146 N.am    1  LIG1       -0.2811
     19 O          -5.8676    0.4202    1.9681 O.2     1  LIG1       -0.2600
     20 O          -4.2827   -2.4421    0.0020 O.2     1  LIG1       -0.2712
     21 O          -7.8473   -0.6441    2.3813 O.2     1  LIG1       -0.2735
     22 CL         -0.3746   -1.5159   -2.8580 Cl      1  LIG1       -0.0842
     23 H          -2.8678    2.5663   -3.7047 H       1  LIG1        0.0624
     24 H         -11.7521   -2.8490    3.1127 H       1  LIG1        0.0626
     25 H          -4.7406    1.9298   -2.2244 H       1  LIG1        0.0642
     26 H         -10.1596   -1.0113    3.5651 H       1  LIG1        0.0651
     27 H          -0.9373    1.0564   -3.9931 H       1  LIG1        0.0638
     28 H          -9.0879   -4.4458    0.1316 H       1  LIG1        0.0633
     29 H          -2.7512   -1.7720   -1.2953 H       1  LIG1        0.0658
     30 H          -6.9191   -3.2880   -0.3280 H       1  LIG1        0.0640
     31 H         -12.1816   -4.5784    0.5355 H       1  LIG1        0.0280
     32 H         -10.9522   -5.7791    1.0025 H       1  LIG1        0.0280
     33 H         -12.0455   -5.1300    2.2235 H       1  LIG1        0.0280
     34 H          -5.6886    0.3503   -0.7542 H       1  LIG1        0.1560
@<TRIPOS>BOND
     1     1     3   ar
     2     1     5   ar
     3     2     4   ar
     4     2     9   ar
     5     3    10   ar
     6     4    11   ar
     7     5    12   ar
     8     6     8   ar
     9     6     9   ar
    10     7    10   ar
    11     7    12   ar
    12     8    11   ar
    13     8    13   ar
    14     9    17    1
    15    10    18    1
    16    11    21   ar
    17    12    22    1
    18    13    14   ar
    19    14    15   ar
    20    14    16    1
    21    15    19    2
    22    15    21   ar
    23    16    18   am
    24    16    20    2
    25     1    23    1
    26     2    24    1
    27     3    25    1
    28     4    26    1
    29     5    27    1
    30     6    28    1
    31     7    29    1
    32    13    30    1
    33    17    31    1
    34    17    32    1
    35    17    33    1
    36    18    34    1
