@<TRIPOS>MOLECULE
ChEBML1158362
 60 63 0 0 0
SMALL
USER_CHARGES

@<TRIPOS>ATOM
      1 C          -2.3265    1.0014   -3.4576 C.ar    1  LIG1       -0.0418
      2 C         -10.3684   -5.1948    0.4397 C.ar    1  LIG1       -0.0383
      3 C          -1.8015   -0.2247   -3.0721 C.ar    1  LIG1       -0.0360
      4 C         -11.6845   -5.5516    0.6215 C.ar    1  LIG1       -0.0377
      5 C         -12.0922   -3.5489    1.8939 C.ar    1  LIG1       -0.0304
      6 C          -9.9950   -2.0551    2.1364 C.ar    1  LIG1       -0.0261
      7 C          -3.4678    1.4731   -2.8416 C.ar    1  LIG1        0.0292
      8 C         -10.7537   -3.1740    1.7155 C.ar    1  LIG1       -0.0003
      9 C          -9.8871   -4.0062    0.9813 C.ar    1  LIG1        0.0379
     10 C         -12.5486   -4.7314    1.3480 C.ar    1  LIG1        0.0437
     11 C          -2.4502   -0.9369   -2.0720 C.ar    1  LIG1        0.0672
     12 C          -8.7282   -2.2150    1.6716 C.ar    1  LIG1        0.0947
     13 C          -3.6044   -0.3985   -1.4976 C.ar    1  LIG1        0.1412
     14 C          -7.6171   -1.2755    1.8846 C.2     1  LIG1        0.2599
     15 C          -4.4862   -0.1605    0.6080 C.3     1  LIG1        0.0288
     16 C          -5.5892   -1.4547   -1.0361 C.3     1  LIG1        0.0288
     17 C          -5.1975   -0.8763    1.7608 C.3     1  LIG1        0.0303
     18 C          -6.3733   -2.2559    0.0081 C.3     1  LIG1        0.0303
     19 C           0.4846   -2.2339   -1.7451 C.3     1  LIG1       -0.0470
     20 C          -0.8560   -4.3028   -2.1509 C.3     1  LIG1       -0.0470
     21 C         -13.7911   -5.6631    4.1863 C.3     1  LIG1        0.0225
     22 C          -0.8150   -2.7847   -2.3358 C.3     1  LIG1        0.0142
     23 N          -4.0660    0.7762   -1.8930 N.ar    1  LIG1       -0.2394
     24 N          -8.6519   -3.3975    0.9621 N.ar    1  LIG1       -0.3101
     25 N          -4.2709   -1.1018   -0.4969 N.pl3   1  LIG1       -0.3112
     26 N          -6.4455   -1.4612    1.2448 N.am    1  LIG1       -0.2936
     27 N          -1.9587   -2.1781   -1.6499 N.pl3   1  LIG1       -0.3393
     28 N         -13.8844   -5.1100    1.5241 N.pl3   1  LIG1       -0.2633
     29 O          -7.7555   -0.3308    2.6383 O.2     1  LIG1       -0.2701
     30 O         -15.6782   -6.4334    2.4385 O.2     1  LIG1       -0.4814
     31 O         -13.3958   -7.3815    2.1615 O.2     1  LIG1       -0.4814
     32 S         -14.2666   -6.3356    2.5701 S.O2    1  LIG1       -0.1957
     33 H          -1.8459    1.5807   -4.2321 H       1  LIG1        0.0639
     34 H          -9.7082   -5.8373   -0.1241 H       1  LIG1        0.0643
     35 H          -0.9092   -0.6152   -3.5387 H       1  LIG1        0.0644
     36 H         -12.0522   -6.4749    0.1985 H       1  LIG1        0.0643
     37 H         -12.7629   -2.9161    2.4560 H       1  LIG1        0.0650
     38 H         -10.3581   -1.2234    2.7221 H       1  LIG1        0.0651
     39 H          -3.8777    2.4268   -3.1399 H       1  LIG1        0.0840
     40 H          -3.5249    0.2189    0.9542 H       1  LIG1        0.0485
     41 H          -5.1010    0.6706    0.2623 H       1  LIG1        0.0485
     42 H          -6.1366   -0.5446   -1.2814 H       1  LIG1        0.0485
     43 H          -5.4640   -2.0563   -1.9363 H       1  LIG1        0.0485
     44 H          -4.5569   -1.6659    2.1535 H       1  LIG1        0.0486
     45 H          -5.4264   -0.1615    2.5512 H       1  LIG1        0.0486
     46 H          -5.8630   -3.1983    0.2068 H       1  LIG1        0.0486
     47 H          -7.3797   -2.4534   -0.3605 H       1  LIG1        0.0486
     48 H           0.5301   -2.4718   -0.6824 H       1  LIG1        0.0249
     49 H           1.3355   -2.6852   -2.2553 H       1  LIG1        0.0249
     50 H           0.5138   -1.1523   -1.8768 H       1  LIG1        0.0249
     51 H          -0.8104   -4.5408   -1.0882 H       1  LIG1        0.0249
     52 H          -1.7819   -4.6952   -2.5716 H       1  LIG1        0.0249
     53 H          -0.0051   -4.7541   -2.6612 H       1  LIG1        0.0249
     54 H         -14.4204   -4.8048    4.4221 H       1  LIG1        0.0442
     55 H         -13.9200   -6.4291    4.9509 H       1  LIG1        0.0442
     56 H         -12.7471   -5.3510    4.1570 H       1  LIG1        0.0442
     57 H          -0.8606   -2.5467   -3.3984 H       1  LIG1        0.0497
     58 H          -7.8585   -3.7431    0.5240 H       1  LIG1        0.1529
     59 H          -2.3753   -2.6364   -0.9034 H       1  LIG1        0.1469
     60 H         -14.5864   -4.6544    1.0336 H       1  LIG1        0.1702
@<TRIPOS>BOND
     1     1     3   ar
     2     1     7   ar
     3     2     4   ar
     4     2     9   ar
     5     3    11   ar
     6     4    10   ar
     7     5     8   ar
     8     5    10   ar
     9     6     8   ar
    10     6    12   ar
    11     7    23   ar
    12     8     9   ar
    13     9    24   ar
    14    10    28    1
    15    11    13   ar
    16    11    27    1
    17    12    14    1
    18    12    24   ar
    19    13    23   ar
    20    13    25    1
    21    14    26   am
    22    14    29    2
    23    15    17    1
    24    15    25    1
    25    16    18    1
    26    16    25    1
    27    17    26    1
    28    18    26    1
    29    19    22    1
    30    20    22    1
    31    21    32    1
    32    22    27    1
    33    28    32    1
    34    30    32    2
    35    31    32    2
    36     1    33    1
    37     2    34    1
    38     3    35    1
    39     4    36    1
    40     5    37    1
    41     6    38    1
    42     7    39    1
    43    15    40    1
    44    15    41    1
    45    16    42    1
    46    16    43    1
    47    17    44    1
    48    17    45    1
    49    18    46    1
    50    18    47    1
    51    19    48    1
    52    19    49    1
    53    19    50    1
    54    20    51    1
    55    20    52    1
    56    20    53    1
    57    21    54    1
    58    21    55    1
    59    21    56    1
    60    22    57    1
    61    24    58    1
    62    27    59    1
    63    28    60    1
