@<TRIPOS>MOLECULE
ChEBML53136
 53 56 0 0 0
SMALL
USER_CHARGES

@<TRIPOS>ATOM
      1 C         -12.2173   -6.7224    0.1207 C.1     1  LIG1        0.0992
      2 C          -2.3341    0.9961   -3.4647 C.ar    1  LIG1       -0.0418
      3 C         -12.5562   -4.6661    1.4149 C.ar    1  LIG1       -0.0437
      4 C         -12.0854   -3.5060    1.9486 C.ar    1  LIG1       -0.0517
      5 C          -1.7387   -0.1641   -2.9882 C.ar    1  LIG1       -0.0360
      6 C         -10.3747   -5.1585    0.4801 C.ar    1  LIG1       -0.0223
      7 C          -9.9764   -2.0277    2.1795 C.ar    1  LIG1       -0.0262
      8 C          -3.5381    1.4079   -2.9303 C.ar    1  LIG1        0.0292
      9 C         -11.7082   -5.5045    0.6759 C.ar    1  LIG1        0.0539
     10 C         -10.7440   -3.1404    1.7614 C.ar    1  LIG1       -0.0021
     11 C          -9.8844   -3.9762    1.0198 C.ar    1  LIG1        0.0391
     12 C          -2.3826   -0.8731   -1.9828 C.ar    1  LIG1        0.0672
     13 C          -8.7130   -2.1944    1.7067 C.ar    1  LIG1        0.0947
     14 C          -3.6022   -0.3980   -1.4941 C.ar    1  LIG1        0.1412
     15 C          -7.5942   -1.2615    1.9159 C.2     1  LIG1        0.2599
     16 C          -4.4679   -0.1584    0.6180 C.3     1  LIG1        0.0288
     17 C          -5.5881   -1.4461   -1.0194 C.3     1  LIG1        0.0288
     18 C          -5.1739   -0.8724    1.7752 C.3     1  LIG1        0.0303
     19 C          -6.3680   -2.2451    0.0297 C.3     1  LIG1        0.0303
     20 C           0.1421   -3.4250   -0.9872 C.3     1  LIG1       -0.0470
     21 C          -0.8923   -3.4316   -3.2615 C.3     1  LIG1       -0.0470
     22 C          -0.5750   -2.5724   -2.0360 C.3     1  LIG1        0.0142
     23 N         -12.6213   -7.6886   -0.3198 N.1     1  LIG1       -0.1924
     24 N          -4.1302    0.7155   -1.9745 N.ar    1  LIG1       -0.2394
     25 N          -8.6476   -3.3740    0.9944 N.ar    1  LIG1       -0.3101
     26 N          -4.2646   -1.0994   -0.4894 N.pl3   1  LIG1       -0.3112
     27 N          -6.4281   -1.4515    1.2676 N.am    1  LIG1       -0.2936
     28 N          -1.8212   -2.0491   -1.4707 N.pl3   1  LIG1       -0.3393
     29 O          -7.7220   -0.3189    2.6740 O.2     1  LIG1       -0.2701
     30 H          -1.8595    1.5711   -4.2459 H       1  LIG1        0.0639
     31 H         -13.5896   -4.9433    1.5618 H       1  LIG1        0.0637
     32 H         -12.7448   -2.8667    2.5168 H       1  LIG1        0.0630
     33 H          -0.7966   -0.5069   -3.3899 H       1  LIG1        0.0644
     34 H          -9.7241   -5.8062   -0.0887 H       1  LIG1        0.0656
     35 H         -10.3308   -1.1950    2.7690 H       1  LIG1        0.0651
     36 H          -4.0028    2.3103   -3.2993 H       1  LIG1        0.0840
     37 H          -3.5025    0.2166    0.9577 H       1  LIG1        0.0485
     38 H          -5.0816    0.6756    0.2775 H       1  LIG1        0.0485
     39 H          -6.1334   -0.5335   -1.2599 H       1  LIG1        0.0485
     40 H          -5.4719   -2.0475   -1.9212 H       1  LIG1        0.0485
     41 H          -4.5339   -1.6651    2.1625 H       1  LIG1        0.0486
     42 H          -5.3941   -0.1574    2.5679 H       1  LIG1        0.0486
     43 H          -5.8603   -3.1900    0.2237 H       1  LIG1        0.0486
     44 H          -7.3780   -2.4381   -0.3320 H       1  LIG1        0.0486
     45 H           1.0693   -3.8144   -1.4079 H       1  LIG1        0.0249
     46 H           0.3681   -2.8129   -0.1142 H       1  LIG1        0.0249
     47 H          -0.5001   -4.2550   -0.6928 H       1  LIG1        0.0249
     48 H           0.0349   -3.8210   -3.6822 H       1  LIG1        0.0249
     49 H          -1.5345   -4.2616   -2.9671 H       1  LIG1        0.0249
     50 H          -1.4033   -2.8242   -4.0086 H       1  LIG1        0.0249
     51 H           0.0671   -1.7424   -2.3305 H       1  LIG1        0.0497
     52 H          -7.8585   -3.7231    0.5510 H       1  LIG1        0.1529
     53 H          -2.2573   -2.5173   -0.7417 H       1  LIG1        0.1469
@<TRIPOS>BOND
     1     1     9    1
     2     1    23    3
     3     2     5   ar
     4     2     8   ar
     5     3     4   ar
     6     3     9   ar
     7     4    10   ar
     8     5    12   ar
     9     6     9   ar
    10     6    11   ar
    11     7    10   ar
    12     7    13   ar
    13     8    24   ar
    14    10    11   ar
    15    11    25   ar
    16    12    14   ar
    17    12    28    1
    18    13    15    1
    19    13    25   ar
    20    14    24   ar
    21    14    26    1
    22    15    27   am
    23    15    29    2
    24    16    18    1
    25    16    26    1
    26    17    19    1
    27    17    26    1
    28    18    27    1
    29    19    27    1
    30    20    22    1
    31    21    22    1
    32    22    28    1
    33     2    30    1
    34     3    31    1
    35     4    32    1
    36     5    33    1
    37     6    34    1
    38     7    35    1
    39     8    36    1
    40    16    37    1
    41    16    38    1
    42    17    39    1
    43    17    40    1
    44    18    41    1
    45    18    42    1
    46    19    43    1
    47    19    44    1
    48    20    45    1
    49    20    46    1
    50    20    47    1
    51    21    48    1
    52    21    49    1
    53    21    50    1
    54    22    51    1
    55    25    52    1
    56    28    53    1
