@<TRIPOS>MOLECULE
ChEBML726022
 38 40 0 0 0
SMALL
USER_CHARGES

@<TRIPOS>ATOM
      1 C         -10.1381   -1.6399    2.1261 C.ar    1  LIG1       -0.0486
      2 C         -11.1808   -2.5546    1.9790 C.ar    1  LIG1       -0.0284
      3 C          -8.5740   -3.2923    1.3135 C.ar    1  LIG1       -0.0183
      4 C          -8.8347   -2.0087    1.7932 C.ar    1  LIG1        0.0212
      5 C         -10.9201   -3.8382    1.4993 C.ar    1  LIG1        0.1048
      6 C          -9.6168   -4.2071    1.1665 C.ar    1  LIG1        0.1055
      7 C          -1.2942   -0.8060   -3.3287 C.ar    1  LIG1       -0.0460
      8 C          -2.2311    0.2361   -2.9157 C.ar    1  LIG1       -0.0315
      9 C          -1.2846   -1.9882   -2.6831 C.ar    1  LIG1       -0.0056
     10 C          -3.0749    0.0146   -1.9001 C.ar    1  LIG1        0.1066
     11 C          -3.0303   -1.2991   -1.2184 C.ar    1  LIG1        0.1503
     12 C          -4.4984   -0.0187   -0.3757 C.ar    1  LIG1        0.1901
     13 C          -7.7183   -1.0283    1.9487 C.2     1  LIG1        0.1728
     14 C         -13.2489   -4.2659    1.7226 C.3     1  LIG1        0.0424
     15 C          -9.4102   -5.6428   -0.7181 C.3     1  LIG1        0.0424
     16 C          -6.5324   -1.1379    1.0083 C.3     1  LIG1        0.0647
     17 N          -4.0360    0.7736   -1.3044 N.ar    1  LIG1       -0.2194
     18 N          -3.9296   -1.2830   -0.2760 N.ar    1  LIG1       -0.2049
     19 N          -2.1361   -2.2573   -1.6328 N.ar    1  LIG1       -0.3042
     20 O          -7.8052   -0.1706    2.8244 O.2     1  LIG1       -0.2931
     21 O         -11.9472   -4.7224    1.3602 O.3     1  LIG1       -0.3466
     22 O          -9.3495   -5.4568    0.6947 O.3     1  LIG1       -0.3465
     23 S          -5.7742    0.4720    0.7013 S.3     1  LIG1       -0.0778
     24 H         -10.3529   -0.6424    2.5007 H       1  LIG1        0.0631
     25 H         -12.1939   -2.2613    2.2403 H       1  LIG1        0.0651
     26 H          -7.5591   -3.5823    1.0508 H       1  LIG1        0.0659
     27 H          -0.6223   -0.6029   -4.1539 H       1  LIG1        0.0637
     28 H          -2.2181    1.1779   -3.4518 H       1  LIG1        0.0647
     29 H          -0.6166   -2.8002   -2.9392 H       1  LIG1        0.0790
     30 H         -13.9742   -5.0676    1.5638 H       1  LIG1        0.0535
     31 H         -13.5128   -3.3959    1.1162 H       1  LIG1        0.0535
     32 H         -13.2457   -3.9844    2.7783 H       1  LIG1        0.0535
     33 H          -9.1766   -6.6827   -0.9597 H       1  LIG1        0.0535
     34 H          -8.6955   -4.9750   -1.2054 H       1  LIG1        0.0535
     35 H         -10.4196   -5.4086   -1.0644 H       1  LIG1        0.0535
     36 H          -6.8637   -1.5451    0.0491 H       1  LIG1        0.0470
     37 H          -5.7700   -1.7836    1.4523 H       1  LIG1        0.0470
     38 H          -2.0768   -3.1682   -1.1927 H       1  LIG1        0.1537
@<TRIPOS>BOND
     1     1     2   ar
     2     1     4   ar
     3     2     5   ar
     4     3     4   ar
     5     3     6   ar
     6     4    13    1
     7     5     6   ar
     8     5    21    1
     9     6    22    1
    10     7     8   ar
    11     7     9   ar
    12     8    10   ar
    13     9    19   ar
    14    10    11   ar
    15    10    17   ar
    16    11    18   ar
    17    11    19   ar
    18    12    17   ar
    19    12    18   ar
    20    12    23    1
    21    13    16    1
    22    13    20    2
    23    14    21    1
    24    15    22    1
    25    16    23    1
    26     1    24    1
    27     2    25    1
    28     3    26    1
    29     7    27    1
    30     8    28    1
    31     9    29    1
    32    14    30    1
    33    14    31    1
    34    14    32    1
    35    15    33    1
    36    15    34    1
    37    15    35    1
    38    16    36    1
    39    16    37    1
    40    19    38    1
