@<TRIPOS>MOLECULE
ChEBML233206
 34 36 0 0 0
SMALL
USER_CHARGES

@<TRIPOS>ATOM
      1 C          -4.3590   -2.7997    0.7083 C.ar    1  LIG1       -0.0597
      2 C          -5.5753   -2.6329    1.3704 C.ar    1  LIG1       -0.0508
      3 C         -10.3737   -5.0665    0.2962 C.ar    1  LIG1       -0.0376
      4 C          -3.8844   -1.8000   -0.1410 C.ar    1  LIG1       -0.0413
      5 C         -11.6774   -5.5036    0.5478 C.ar    1  LIG1       -0.0299
      6 C         -12.0590   -3.6643    2.0866 C.ar    1  LIG1       -0.0226
      7 C          -9.9811   -2.1059    2.3275 C.ar    1  LIG1       -0.0275
      8 C          -5.8426   -0.4669    0.3340 C.ar    1  LIG1       -0.0301
      9 C         -10.7485   -3.2046    1.8489 C.ar    1  LIG1        0.0003
     10 C          -6.3171   -1.4666    1.1833 C.ar    1  LIG1        0.0257
     11 C          -9.9377   -3.9149    0.9610 C.ar    1  LIG1        0.0379
     12 C          -4.6262   -0.6336   -0.3281 C.ar    1  LIG1        0.0241
     13 C         -12.5088   -4.8149    1.4287 C.ar    1  LIG1        0.0753
     14 C          -8.7422   -2.1695    1.7322 C.ar    1  LIG1        0.0797
     15 C          -7.6320   -1.2860    1.8993 C.2     1  LIG1        0.2066
     16 C         -14.1768   -6.4425    0.9551 C.3     1  LIG1        0.0422
     17 N          -8.7257   -3.2638    0.9096 N.ar    1  LIG1       -0.3112
     18 N          -4.1463    0.3769   -1.1867 N.pl3   1  LIG1       -0.3583
     19 O          -7.6973   -0.2967    2.6657 O.2     1  LIG1       -0.2871
     20 O         -13.7752   -5.2659    1.6534 O.3     1  LIG1       -0.3493
     21 H          -3.7812   -3.7074    0.8547 H       1  LIG1        0.0623
     22 H          -5.9350   -3.4184    2.0301 H       1  LIG1        0.0630
     23 H          -9.7273   -5.6032   -0.3901 H       1  LIG1        0.0643
     24 H          -2.9354   -1.9405   -0.6517 H       1  LIG1        0.0642
     25 H         -12.0410   -6.3963    0.0439 H       1  LIG1        0.0651
     26 H         -12.7137   -3.1323    2.7716 H       1  LIG1        0.0657
     27 H         -10.3048   -1.3517    3.0325 H       1  LIG1        0.0651
     28 H          -6.4212    0.4431    0.1880 H       1  LIG1        0.0650
     29 H         -15.2058   -6.6933    1.2239 H       1  LIG1        0.0535
     30 H         -13.5094   -7.2677    1.2159 H       1  LIG1        0.0535
     31 H         -14.1187   -6.2552   -0.1197 H       1  LIG1        0.0535
     32 H          -7.9396   -3.5545    0.3446 H       1  LIG1        0.1529
     33 H          -3.2512    0.2659   -1.6185 H       1  LIG1        0.1426
     34 H          -4.6641    1.2278   -1.2758 H       1  LIG1        0.1426
@<TRIPOS>BOND
     1     1     2   ar
     2     1     4   ar
     3     2    10   ar
     4     3     5   ar
     5     3    11   ar
     6     4    12   ar
     7     5    13   ar
     8     6     9   ar
     9     6    13   ar
    10     7     9   ar
    11     7    14   ar
    12     8    10   ar
    13     8    12   ar
    14     9    11   ar
    15    10    15    1
    16    11    17   ar
    17    12    18    1
    18    13    20    1
    19    14    15    1
    20    14    17   ar
    21    15    19    2
    22    16    20    1
    23     1    21    1
    24     2    22    1
    25     3    23    1
    26     4    24    1
    27     5    25    1
    28     6    26    1
    29     7    27    1
    30     8    28    1
    31    16    29    1
    32    16    30    1
    33    16    31    1
    34    17    32    1
    35    18    33    1
    36    18    34    1
