@<TRIPOS>MOLECULE
ChEBML783568
 46 49 0 0 0
SMALL
USER_CHARGES

@<TRIPOS>ATOM
      1 C          -2.1638    1.0199   -3.2088 C.ar    1  LIG1       -0.0359
      2 C          -1.7530   -0.1216   -2.4798 C.ar    1  LIG1       -0.0238
      3 C         -11.4960   -4.5263    2.4823 C.ar    1  LIG1       -0.0489
      4 C         -11.7995   -5.1725    0.1526 C.ar    1  LIG1       -0.0378
      5 C          -3.5178    1.1408   -2.9981 C.ar    1  LIG1        0.0462
      6 C         -10.4746   -3.6457    2.0854 C.ar    1  LIG1        0.0128
      7 C         -12.1496   -5.2838    1.5006 C.ar    1  LIG1       -0.0488
      8 C          -9.6033   -2.7379    2.7433 C.ar    1  LIG1       -0.0048
      9 C         -10.1555   -3.5636    0.7340 C.ar    1  LIG1        0.1085
     10 C         -10.7868   -4.3035   -0.2644 C.ar    1  LIG1        0.0723
     11 C          -2.8850   -0.6167   -1.8755 C.ar    1  LIG1        0.1439
     12 C          -8.8222   -2.1706    1.7632 C.ar    1  LIG1        0.1483
     13 C          -3.0884   -1.7486   -1.0192 C.2     1  LIG1        0.2694
     14 C          -7.7748   -1.1937    1.8262 C.2     1  LIG1        0.2697
     15 C          -4.5382   -0.3407    0.4894 C.3     1  LIG1        0.0304
     16 C          -4.8906   -2.7899    0.3954 C.3     1  LIG1        0.0304
     17 C          -6.0430   -0.1331    0.3313 C.3     1  LIG1        0.0304
     18 C          -6.3910   -2.5671    0.2341 C.3     1  LIG1        0.0304
     19 C         -13.2371   -6.2243    1.9044 C.3     1  LIG1       -0.0397
     20 C          -9.5473   -2.4582    4.1913 C.3     1  LIG1       -0.0363
     21 N          -4.1274   -1.6331   -0.0856 N.am    1  LIG1       -0.2929
     22 N          -6.7830   -1.2946    0.8432 N.am    1  LIG1       -0.2929
     23 O          -2.3762   -2.7456   -1.1226 O.2     1  LIG1       -0.2693
     24 O          -7.7763   -0.3316    2.7031 O.2     1  LIG1       -0.2693
     25 O          -3.9650    0.1471   -2.1863 O.2     1  LIG1       -0.3126
     26 O          -9.1493   -2.6650    0.5408 O.2     1  LIG1       -0.3024
     27 CL        -10.3550   -4.1644   -1.9159 Cl      1  LIG1       -0.0814
     28 H          -1.5502    1.6725   -3.8130 H       1  LIG1        0.0645
     29 H          -0.7547   -0.5293   -2.4070 H       1  LIG1        0.0653
     30 H         -11.7732   -4.6180    3.5287 H       1  LIG1        0.0633
     31 H         -12.3270   -5.7750   -0.5851 H       1  LIG1        0.0642
     32 H          -4.2675    1.8407   -3.3370 H       1  LIG1        0.0901
     33 H          -4.0025    0.4958    0.0343 H       1  LIG1        0.0486
     34 H          -4.2689   -0.3690    1.5521 H       1  LIG1        0.0486
     35 H          -4.6360   -2.9185    1.4543 H       1  LIG1        0.0486
     36 H          -4.5900   -3.7016   -0.1300 H       1  LIG1        0.0486
     37 H          -6.3401    0.7919    0.8315 H       1  LIG1        0.0486
     38 H          -6.3031   -0.0320   -0.7294 H       1  LIG1        0.0486
     39 H          -6.6597   -2.5135   -0.8277 H       1  LIG1        0.0486
     40 H          -6.9439   -3.4015    0.6765 H       1  LIG1        0.0486
     41 H         -14.2066   -5.7130    1.8894 H       1  LIG1        0.0280
     42 H         -13.2863   -7.0870    1.2287 H       1  LIG1        0.0280
     43 H         -13.0655   -6.6187    2.9137 H       1  LIG1        0.0280
     44 H          -8.8395   -3.1334    4.6996 H       1  LIG1        0.0281
     45 H          -9.2310   -1.4220    4.4010 H       1  LIG1        0.0281
     46 H         -10.5319   -2.5796    4.6747 H       1  LIG1        0.0281
@<TRIPOS>BOND
     1     1     2   ar
     2     1     5   ar
     3     2    11   ar
     4     3     6   ar
     5     3     7   ar
     6     4     7   ar
     7     4    10   ar
     8     5    25   ar
     9     6     8   ar
    10     6     9   ar
    11     7    19    1
    12     8    12   ar
    13     8    20    1
    14     9    10   ar
    15     9    26   ar
    16    10    27    1
    17    11    13    1
    18    11    25   ar
    19    12    14    1
    20    12    26   ar
    21    13    21   am
    22    13    23    2
    23    14    22   am
    24    14    24    2
    25    15    17    1
    26    15    21    1
    27    16    18    1
    28    16    21    1
    29    17    22    1
    30    18    22    1
    31     1    28    1
    32     2    29    1
    33     3    30    1
    34     4    31    1
    35     5    32    1
    36    15    33    1
    37    15    34    1
    38    16    35    1
    39    16    36    1
    40    17    37    1
    41    17    38    1
    42    18    39    1
    43    18    40    1
    44    19    41    1
    45    19    42    1
    46    19    43    1
    47    20    44    1
    48    20    45    1
    49    20    46    1
