@<TRIPOS>MOLECULE
ChEBML863123
 49 51 0 0 0
SMALL
USER_CHARGES

@<TRIPOS>ATOM
      1 C         -11.2524   -5.5798    1.5093 C.ar    1  LIG1       -0.0566
      2 C         -12.1193   -3.3636    1.0919 C.ar    1  LIG1       -0.0566
      3 C          -3.7026    0.6183   -2.7563 C.ar    1  LIG1       -0.0380
      4 C          -2.1930   -0.3369   -1.1298 C.ar    1  LIG1       -0.0380
      5 C          -9.9506   -5.0910    1.4014 C.ar    1  LIG1       -0.0405
      6 C         -10.8173   -2.8748    0.9840 C.ar    1  LIG1       -0.0405
      7 C          -2.6139    1.0902   -3.4896 C.ar    1  LIG1       -0.0245
      8 C          -1.1044    0.1348   -1.8631 C.ar    1  LIG1       -0.0245
      9 C         -12.3368   -4.7161    1.3546 C.ar    1  LIG1       -0.0379
     10 C          -3.4921   -0.0952   -1.5763 C.ar    1  LIG1        0.0288
     11 C          -9.7330   -3.7385    1.1387 C.ar    1  LIG1        0.0316
     12 C          -1.3148    0.8484   -3.0431 C.ar    1  LIG1        0.1229
     13 C         -14.3079   -5.7138    0.1515 C.2     1  LIG1        0.2650
     14 C          -7.8804   -2.0150    1.3311 C.2     1  LIG1        0.1359
     15 C          -5.8378    0.1528   -0.8671 C.3     1  LIG1        0.0273
     16 C          -4.4594   -1.7857   -0.0694 C.3     1  LIG1        0.0273
     17 C          -6.6089   -0.1154    0.4259 C.3     1  LIG1        0.0289
     18 C          -5.8280   -2.4571    0.0513 C.3     1  LIG1        0.0289
     19 C         -15.4923   -4.9634   -1.7552 C.3     1  LIG1        0.0453
     20 C         -13.7288   -5.2389    1.4700 C.3     1  LIG1        0.0588
     21 N          -4.5566   -0.5565   -0.8593 N.pl3   1  LIG1       -0.3276
     22 N          -6.8157   -1.5486    0.6335 N.am    1  LIG1       -0.3099
     23 N          -8.4114   -3.2418    1.0293 N.am    1  LIG1       -0.2969
     24 O         -14.2515   -6.8631   -0.2643 O.2     1  LIG1       -0.2662
     25 O         -14.8978   -4.6603   -0.4890 O.3     1  LIG1       -0.3191
     26 F          -0.2693    1.3016   -3.7473 F       1  LIG1       -0.2069
     27 S          -8.4990   -1.1243    2.6111 S.2     1  LIG1       -0.0183
     28 H         -11.4127   -6.6355    1.7120 H       1  LIG1        0.0626
     29 H         -12.9582   -2.6837    0.9691 H       1  LIG1        0.0626
     30 H          -4.7108    0.8121   -3.1137 H       1  LIG1        0.0643
     31 H          -2.0175   -0.8916   -0.2115 H       1  LIG1        0.0643
     32 H          -9.1130   -5.7731    1.5242 H       1  LIG1        0.0642
     33 H         -10.6591   -1.8191    0.7780 H       1  LIG1        0.0642
     34 H          -2.7774    1.6455   -4.4084 H       1  LIG1        0.0654
     35 H          -0.0927   -0.0528   -1.5157 H       1  LIG1        0.0654
     36 H          -6.4231   -0.1732   -1.7354 H       1  LIG1        0.0485
     37 H          -5.6745    1.2332   -0.9628 H       1  LIG1        0.0485
     38 H          -4.0642   -1.5428    0.9244 H       1  LIG1        0.0485
     39 H          -3.7624   -2.4887   -0.5412 H       1  LIG1        0.0485
     40 H          -6.0486    0.2548    1.2931 H       1  LIG1        0.0485
     41 H          -7.5789    0.3936    0.4175 H       1  LIG1        0.0485
     42 H          -6.2044   -2.7469   -0.9374 H       1  LIG1        0.0485
     43 H          -5.7675   -3.3650    0.6608 H       1  LIG1        0.0485
     44 H         -15.9323   -4.0571   -2.1782 H       1  LIG1        0.0536
     45 H         -16.2620   -5.7280   -1.6236 H       1  LIG1        0.0536
     46 H         -14.7194   -5.3395   -2.4297 H       1  LIG1        0.0536
     47 H         -13.7604   -6.0829    2.1776 H       1  LIG1        0.0423
     48 H         -14.3952   -4.4590    1.8718 H       1  LIG1        0.0423
     49 H          -7.7362   -3.9190    0.6804 H       1  LIG1        0.1546
@<TRIPOS>BOND
     1     1     5   ar
     2     1     9   ar
     3     2     6   ar
     4     2     9   ar
     5     3     7   ar
     6     3    10   ar
     7     4     8   ar
     8     4    10   ar
     9     5    11   ar
    10     6    11   ar
    11     7    12   ar
    12     8    12   ar
    13     9    20    1
    14    10    21    1
    15    11    23    1
    16    12    26    1
    17    13    20    1
    18    13    24    2
    19    13    25    1
    20    14    22    1
    21    14    23    1
    22    14    27    2
    23    15    17    1
    24    15    21    1
    25    16    18    1
    26    16    21    1
    27    17    22    1
    28    18    22    1
    29    19    25    1
    30     1    28    1
    31     2    29    1
    32     3    30    1
    33     4    31    1
    34     5    32    1
    35     6    33    1
    36     7    34    1
    37     8    35    1
    38    15    36    1
    39    15    37    1
    40    16    38    1
    41    16    39    1
    42    17    40    1
    43    17    41    1
    44    18    42    1
    45    18    43    1
    46    19    44    1
    47    19    45    1
    48    19    46    1
    49    20    47    1
    50    20    48    1
    51    23    49    1
