@<TRIPOS>MOLECULE
ChEBML347769
 39 42 0 0 0
SMALL
USER_CHARGES

@<TRIPOS>ATOM
      1 C          -2.6632   -1.9285   -1.6483 C.ar    1  LIG1       -0.0612
      2 C          -3.4405   -2.6073   -0.7028 C.ar    1  LIG1       -0.0530
      3 C          -2.9973   -0.6373   -2.0518 C.ar    1  LIG1       -0.0571
      4 C         -10.2771   -5.3439    0.9309 C.ar    1  LIG1       -0.0376
      5 C         -11.6304   -5.6758    1.0420 C.ar    1  LIG1       -0.0302
      6 C         -12.1763   -3.4365    1.8068 C.ar    1  LIG1       -0.0229
      7 C          -5.5603   -2.3456    0.7947 C.ar    1  LIG1       -0.0276
      8 C         -10.0848   -1.8844    1.9508 C.ar    1  LIG1       -0.0275
      9 C          -4.5726   -1.9692   -0.1581 C.ar    1  LIG1       -0.0020
     10 C         -10.8174   -3.0789    1.7028 C.ar    1  LIG1        0.0003
     11 C          -4.1156    0.0157   -1.5253 C.ar    1  LIG1       -0.0263
     12 C          -9.9010   -4.0389    1.2682 C.ar    1  LIG1        0.0379
     13 C          -4.8833   -0.6751   -0.5810 C.ar    1  LIG1        0.0410
     14 C         -12.5670   -4.7384    1.4729 C.ar    1  LIG1        0.0720
     15 C          -6.4350   -1.2922    0.9295 C.ar    1  LIG1        0.0811
     16 C          -8.7625   -2.1377    1.6674 C.ar    1  LIG1        0.0811
     17 C          -7.5871   -1.1985    1.7692 C.2     1  LIG1        0.2206
     18 C          -3.5420    2.4495   -1.3401 C.3     1  LIG1       -0.0612
     19 C          -4.4444    1.3983   -1.9802 C.3     1  LIG1       -0.0289
     20 N          -8.6616   -3.4397    1.2563 N.ar    1  LIG1       -0.3112
     21 N          -6.0186   -0.2893    0.0956 N.ar    1  LIG1       -0.3109
     22 O          -7.6795   -0.3125    2.6505 O.2     1  LIG1       -0.2856
     23 O         -13.8797   -5.0921    1.5710 O.3     1  LIG1       -0.3609
     24 H          -1.7886   -2.4152   -2.0716 H       1  LIG1        0.0623
     25 H          -3.1680   -3.6134   -0.3967 H       1  LIG1        0.0629
     26 H          -2.3725   -0.1371   -2.7884 H       1  LIG1        0.0626
     27 H          -9.5487   -6.0743    0.5950 H       1  LIG1        0.0643
     28 H         -11.9492   -6.6835    0.7859 H       1  LIG1        0.0651
     29 H         -12.9131   -2.7112    2.1414 H       1  LIG1        0.0657
     30 H          -5.6196   -3.2876    1.3236 H       1  LIG1        0.0651
     31 H         -10.4865   -0.9422    2.2996 H       1  LIG1        0.0651
     32 H          -3.6006    2.4049   -0.2472 H       1  LIG1        0.0234
     33 H          -3.8364    3.4556   -1.6546 H       1  LIG1        0.0234
     34 H          -2.4961    2.2968   -1.6269 H       1  LIG1        0.0234
     35 H          -4.3612    1.4711   -3.0763 H       1  LIG1        0.0314
     36 H          -5.4952    1.6374   -1.7511 H       1  LIG1        0.0314
     37 H          -7.8032   -3.8981    0.9826 H       1  LIG1        0.1529
     38 H          -6.4777    0.6048   -0.0110 H       1  LIG1        0.1529
     39 H         -14.4066   -4.3396    1.8817 H       1  LIG1        0.2182
@<TRIPOS>BOND
     1     1     2   ar
     2     1     3   ar
     3     2     9   ar
     4     3    11   ar
     5     4     5   ar
     6     4    12   ar
     7     5    14   ar
     8     6    10   ar
     9     6    14   ar
    10     7     9   ar
    11     7    15   ar
    12     8    10   ar
    13     8    16   ar
    14     9    13   ar
    15    10    12   ar
    16    11    13   ar
    17    11    19    1
    18    12    20   ar
    19    13    21   ar
    20    14    23    1
    21    15    17    1
    22    15    21   ar
    23    16    17    1
    24    16    20   ar
    25    17    22    2
    26    18    19    1
    27     1    24    1
    28     2    25    1
    29     3    26    1
    30     4    27    1
    31     5    28    1
    32     6    29    1
    33     7    30    1
    34     8    31    1
    35    18    32    1
    36    18    33    1
    37    18    34    1
    38    19    35    1
    39    19    36    1
    40    20    37    1
    41    21    38    1
    42    23    39    1
