@<TRIPOS>MOLECULE
ChEBML798219
 31 34 0 0 0
SMALL
USER_CHARGES

@<TRIPOS>ATOM
      1 C         -10.9764   -5.1029    0.2577 C.ar    1  LIG1       -0.0600
      2 C          -2.4741    1.4555   -3.3532 C.ar    1  LIG1       -0.0600
      3 C         -12.1320   -4.7298    0.9353 C.ar    1  LIG1       -0.0610
      4 C          -1.9847    0.2307   -3.7932 C.ar    1  LIG1       -0.0610
      5 C          -9.7941   -4.3740    0.4150 C.ar    1  LIG1       -0.0352
      6 C          -3.2877    1.5294   -2.2188 C.ar    1  LIG1       -0.0352
      7 C         -12.1378   -3.6214    1.7860 C.ar    1  LIG1       -0.0460
      8 C          -2.2938   -0.9505   -3.1140 C.ar    1  LIG1       -0.0460
      9 C          -9.7725   -3.2498    1.2685 C.ar    1  LIG1        0.0790
     10 C          -3.6154    0.3509   -1.5140 C.ar    1  LIG1        0.0790
     11 C         -10.9467   -2.8938    1.9391 C.ar    1  LIG1        0.0400
     12 C          -3.1116   -0.8690   -1.9756 C.ar    1  LIG1        0.0400
     13 C          -9.0210   -1.4877    2.3627 C.ar    1  LIG1        0.1358
     14 C          -4.4985   -0.9813    0.0067 C.ar    1  LIG1        0.1358
     15 C          -6.7418   -0.1501    1.4511 C.3     1  LIG1        0.0527
     16 N          -8.6785   -2.4349    1.5211 N.ar    1  LIG1       -0.2334
     17 N          -4.4079    0.2702   -0.3782 N.ar    1  LIG1       -0.2334
     18 S         -10.6434   -1.4979    2.9046 S.2     1  LIG1       -0.0609
     19 S          -3.6611   -2.1336   -0.9404 S.2     1  LIG1       -0.0609
     20 S          -7.8636   -0.2856    2.8922 S.3     1  LIG1       -0.0878
     21 S          -5.4505   -1.4379    1.4476 S.3     1  LIG1       -0.0878
     22 H         -10.9913   -5.9686   -0.3989 H       1  LIG1        0.0623
     23 H          -2.2220    2.3636   -3.8941 H       1  LIG1        0.0623
     24 H         -13.0432   -5.3070    0.8023 H       1  LIG1        0.0623
     25 H          -1.3533    0.1903   -4.6770 H       1  LIG1        0.0623
     26 H          -8.8971   -4.6766   -0.1180 H       1  LIG1        0.0646
     27 H          -3.6624    2.4924   -1.8835 H       1  LIG1        0.0646
     28 H         -13.0441   -3.3364    2.3116 H       1  LIG1        0.0635
     29 H          -1.9076   -1.9031   -3.4639 H       1  LIG1        0.0635
     30 H          -6.2184    0.8072    1.5369 H       1  LIG1        0.0504
     31 H          -7.2965   -0.1132    0.5106 H       1  LIG1        0.0504
@<TRIPOS>BOND
     1     1     3   ar
     2     1     5   ar
     3     2     4   ar
     4     2     6   ar
     5     3     7   ar
     6     4     8   ar
     7     5     9   ar
     8     6    10   ar
     9     7    11   ar
    10     8    12   ar
    11     9    11   ar
    12     9    16   ar
    13    10    12   ar
    14    10    17   ar
    15    11    18   ar
    16    12    19   ar
    17    13    16   ar
    18    13    18   ar
    19    13    20    1
    20    14    17   ar
    21    14    19   ar
    22    14    21    1
    23    15    20    1
    24    15    21    1
    25     1    22    1
    26     2    23    1
    27     3    24    1
    28     4    25    1
    29     5    26    1
    30     6    27    1
    31     7    28    1
    32     8    29    1
    33    15    30    1
    34    15    31    1
