@<TRIPOS>MOLECULE
ChEBML969747
 42 45 0 0 0
SMALL
USER_CHARGES

@<TRIPOS>ATOM
      1 C         -12.3728   -4.8845    1.2982 C.ar    1  LIG1       -0.0615
      2 C         -11.4522   -5.5221    0.4626 C.ar    1  LIG1       -0.0596
      3 C         -12.0310   -3.7153    1.9916 C.ar    1  LIG1       -0.0522
      4 C          -5.6792    0.5455   -0.7649 C.ar    1  LIG1       -0.0555
      5 C          -5.3303    1.0584   -2.0176 C.ar    1  LIG1       -0.0397
      6 C         -10.1601   -5.0176    0.2885 C.ar    1  LIG1       -0.0306
      7 C          -3.5970   -0.6966   -0.6291 C.ar    1  LIG1       -0.0482
      8 C         -10.0250   -2.0701    2.3360 C.ar    1  LIG1       -0.0159
      9 C          -2.0841   -0.3575   -2.7269 C.ar    1  LIG1       -0.0359
     10 C         -10.7368   -3.1901    1.8311 C.ar    1  LIG1        0.0081
     11 C          -3.2237   -0.1923   -1.8908 C.ar    1  LIG1       -0.0022
     12 C          -4.8275   -0.3185   -0.0796 C.ar    1  LIG1       -0.0301
     13 C          -4.0972    0.6718   -2.5546 C.ar    1  LIG1        0.0398
     14 C          -9.8495   -3.8543    0.9903 C.ar    1  LIG1        0.0896
     15 C          -8.7691   -2.1248    1.7774 C.ar    1  LIG1        0.1451
     16 C          -2.2843    0.3952   -3.8611 C.ar    1  LIG1        0.0071
     17 C          -7.5884   -1.2351    1.9242 C.2     1  LIG1        0.2670
     18 C          -1.4141    0.5753   -5.0415 C.3     1  LIG1       -0.0263
     19 C          -4.0793    1.8957   -4.7396 C.3     1  LIG1        0.0050
     20 C          -5.2303   -0.8481    1.2565 C.3     1  LIG1        0.0367
     21 N          -3.5011    1.0125   -3.7479 N.ar    1  LIG1       -0.3072
     22 N          -6.4603   -1.5959    1.1998 N.am    1  LIG1       -0.3054
     23 O          -7.6584   -0.2640    2.6729 O.2     1  LIG1       -0.2695
     24 O          -8.6524   -3.2036    0.9596 O.2     1  LIG1       -0.3042
     25 H         -13.3705   -5.3006    1.4131 H       1  LIG1        0.0623
     26 H         -11.7456   -6.4278   -0.0626 H       1  LIG1        0.0623
     27 H         -12.7571   -3.2307    2.6372 H       1  LIG1        0.0630
     28 H          -6.6328    0.8322   -0.3268 H       1  LIG1        0.0627
     29 H          -5.9977    1.7304   -2.5467 H       1  LIG1        0.0643
     30 H          -9.4417   -5.5065   -0.3584 H       1  LIG1        0.0650
     31 H          -2.9357   -1.3714   -0.0919 H       1  LIG1        0.0633
     32 H         -10.3873   -1.3186    3.0237 H       1  LIG1        0.0660
     33 H          -1.2124   -0.9631   -2.5187 H       1  LIG1        0.0646
     34 H          -1.6312   -0.1813   -5.8124 H       1  LIG1        0.0293
     35 H          -1.5426    1.5698   -5.5006 H       1  LIG1        0.0293
     36 H          -0.3452    0.4941   -4.7819 H       1  LIG1        0.0293
     37 H          -3.7590    2.9156   -4.5108 H       1  LIG1        0.0436
     38 H          -3.7347    1.6009   -5.7347 H       1  LIG1        0.0436
     39 H          -5.1694    1.8183   -4.7007 H       1  LIG1        0.0436
     40 H          -4.4578   -1.5126    1.6671 H       1  LIG1        0.0518
     41 H          -5.3721   -0.0376    1.9838 H       1  LIG1        0.0518
     42 H          -6.4611   -2.4512    0.6497 H       1  LIG1        0.1501
@<TRIPOS>BOND
     1     1     2   ar
     2     1     3   ar
     3     2     6   ar
     4     3    10   ar
     5     4     5   ar
     6     4    12   ar
     7     5    13   ar
     8     6    14   ar
     9     7    11   ar
    10     7    12   ar
    11     8    10   ar
    12     8    15   ar
    13     9    11   ar
    14     9    16   ar
    15    10    14   ar
    16    11    13   ar
    17    12    20    1
    18    13    21   ar
    19    14    24   ar
    20    15    17    1
    21    15    24   ar
    22    16    18    1
    23    16    21   ar
    24    17    22   am
    25    17    23    2
    26    19    21    1
    27    20    22    1
    28     1    25    1
    29     2    26    1
    30     3    27    1
    31     4    28    1
    32     5    29    1
    33     6    30    1
    34     7    31    1
    35     8    32    1
    36     9    33    1
    37    18    34    1
    38    18    35    1
    39    18    36    1
    40    19    37    1
    41    19    38    1
    42    19    39    1
    43    20    40    1
    44    20    41    1
    45    22    42    1
