@<TRIPOS>MOLECULE
ChEBML867475
 40 43 0 0 0
SMALL
USER_CHARGES

@<TRIPOS>ATOM
      1 C          -1.8180    0.5876   -2.9228 C.ar    1  LIG1       -0.0622
      2 C          -2.1457   -0.7131   -2.5402 C.ar    1  LIG1       -0.0615
      3 C          -2.7122    1.6311   -2.6837 C.ar    1  LIG1       -0.0615
      4 C          -3.3677   -0.9703   -1.9186 C.ar    1  LIG1       -0.0513
      5 C          -3.9341    1.3740   -2.0622 C.ar    1  LIG1       -0.0513
      6 C         -11.8721   -5.6202    0.8712 C.ar    1  LIG1       -0.0372
      7 C         -10.1056   -3.9849    1.0053 C.ar    1  LIG1        0.0372
      8 C          -4.2619    0.0732   -1.6795 C.ar    1  LIG1        0.0192
      9 C         -10.6687   -5.1190    0.3851 C.ar    1  LIG1       -0.0371
     10 C          -8.9221   -3.2285    0.7745 C.ar    1  LIG1        0.0941
     11 C          -8.7686   -2.1773    1.6417 C.ar    1  LIG1        0.1033
     12 C         -12.4641   -4.9807    1.9460 C.ar    1  LIG1        0.0390
     13 C         -10.8109   -3.4421    2.0789 C.ar    1  LIG1        0.1110
     14 C          -6.9871   -2.6977   -0.2699 C.ar    1  LIG1        0.0905
     15 C          -7.6516   -1.2685    1.6053 C.ar    1  LIG1        0.2600
     16 C          -5.5695   -0.2020   -1.0144 C.2     1  LIG1        0.1801
     17 C         -10.0332   -5.8148   -0.7771 C.3     1  LIG1       -0.0389
     18 C         -13.7570   -5.5177    2.4702 C.3     1  LIG1       -0.0222
     19 C          -5.5626   -0.8012    0.3780 C.3     1  LIG1        0.0840
     20 N         -11.9783   -3.8940    2.5832 N.ar    1  LIG1       -0.2457
     21 N          -7.9934   -3.5198   -0.2403 N.ar    1  LIG1       -0.2390
     22 N          -6.7577   -1.6075    0.5730 N.ar    1  LIG1       -0.2496
     23 O          -7.5047   -0.3238    2.3766 O.2     1  LIG1       -0.2705
     24 O          -6.6120    0.0640   -1.6089 O.2     1  LIG1       -0.2923
     25 S         -10.0405   -2.0716    2.7558 S.2     1  LIG1       -0.0616
     26 H          -0.8667    0.7877   -3.4068 H       1  LIG1        0.0622
     27 H          -1.4495   -1.5256   -2.7265 H       1  LIG1        0.0623
     28 H          -2.4569    2.6440   -2.9813 H       1  LIG1        0.0623
     29 H          -3.6129   -1.9876   -1.6245 H       1  LIG1        0.0630
     30 H          -4.6232    2.1948   -1.8809 H       1  LIG1        0.0630
     31 H         -12.3342   -6.4920    0.4175 H       1  LIG1        0.0645
     32 H          -6.1990   -2.8357   -1.0282 H       1  LIG1        0.1017
     33 H         -10.3886   -5.3799   -1.7174 H       1  LIG1        0.0280
     34 H          -8.9414   -5.7270   -0.7395 H       1  LIG1        0.0280
     35 H         -10.2700   -6.8849   -0.7726 H       1  LIG1        0.0280
     36 H         -13.5685   -6.2639    3.2501 H       1  LIG1        0.0296
     37 H         -14.3750   -4.7167    2.8931 H       1  LIG1        0.0296
     38 H         -14.3431   -5.9863    1.6706 H       1  LIG1        0.0296
     39 H          -5.5531   -0.0010    1.1233 H       1  LIG1        0.0560
     40 H          -4.6822   -1.4394    0.4956 H       1  LIG1        0.0560
@<TRIPOS>BOND
     1     1     2   ar
     2     1     3   ar
     3     2     4   ar
     4     3     5   ar
     5     4     8   ar
     6     5     8   ar
     7     6     9   ar
     8     6    12   ar
     9     7     9   ar
    10     7    10   ar
    11     7    13   ar
    12     8    16    1
    13     9    17    1
    14    10    11   ar
    15    10    21   ar
    16    11    15   ar
    17    11    25   ar
    18    12    18    1
    19    12    20   ar
    20    13    20   ar
    21    13    25   ar
    22    14    21   ar
    23    14    22   ar
    24    15    22   ar
    25    15    23    2
    26    16    19    1
    27    16    24    2
    28    19    22    1
    29     1    26    1
    30     2    27    1
    31     3    28    1
    32     4    29    1
    33     5    30    1
    34     6    31    1
    35    14    32    1
    36    17    33    1
    37    17    34    1
    38    17    35    1
    39    18    36    1
    40    18    37    1
    41    18    38    1
    42    19    39    1
    43    19    40    1
