@<TRIPOS>MOLECULE
ChEBML53887
 53 56 0 0 0
SMALL
USER_CHARGES

@<TRIPOS>ATOM
      1 C          -2.3378    1.0010   -3.4553 C.ar    1  LIG1       -0.0418
      2 C         -10.4175   -5.1334    0.4510 C.ar    1  LIG1       -0.0376
      3 C          -1.8034   -0.2216   -3.0717 C.ar    1  LIG1       -0.0360
      4 C         -11.7372   -5.4708    0.6459 C.ar    1  LIG1       -0.0302
      5 C         -12.0924   -3.4872    1.9590 C.ar    1  LIG1       -0.0229
      6 C          -9.9672   -2.0328    2.1995 C.ar    1  LIG1       -0.0261
      7 C          -3.4836    1.4623   -2.8396 C.ar    1  LIG1        0.0292
      8 C         -10.7505   -3.1308    1.7689 C.ar    1  LIG1        0.0004
      9 C          -9.9082   -3.9634    1.0073 C.ar    1  LIG1        0.0380
     10 C          -2.4475   -0.9411   -2.0738 C.ar    1  LIG1        0.0672
     11 C         -12.5757   -4.6502    1.3985 C.ar    1  LIG1        0.0720
     12 C          -8.7099   -2.2050    1.7139 C.ar    1  LIG1        0.0947
     13 C          -3.6065   -0.4130   -1.4995 C.ar    1  LIG1        0.1412
     14 C          -7.5800   -1.2888    1.9290 C.2     1  LIG1        0.2599
     15 C          -4.4523   -0.1989    0.6234 C.3     1  LIG1        0.0288
     16 C          -5.6001   -1.4470   -1.0256 C.3     1  LIG1        0.0288
     17 C          -5.1568   -0.9240    1.7745 C.3     1  LIG1        0.0303
     18 C          -6.3803   -2.2546    0.0167 C.3     1  LIG1        0.0303
     19 C           0.4955   -2.2273   -1.7803 C.3     1  LIG1       -0.0470
     20 C          -0.8433   -4.3021   -2.1614 C.3     1  LIG1       -0.0470
     21 C          -0.8097   -2.7843   -2.3522 C.3     1  LIG1        0.0142
     22 N          -4.0771    0.7587   -1.8929 N.ar    1  LIG1       -0.2394
     23 N          -8.6638   -3.3748    0.9811 N.ar    1  LIG1       -0.3101
     24 N          -4.2684   -1.1237   -0.5009 N.pl3   1  LIG1       -0.3112
     25 N          -6.4214   -1.4809    1.2679 N.am    1  LIG1       -0.2936
     26 N          -1.9464   -2.1791   -1.6537 N.pl3   1  LIG1       -0.3393
     27 O          -7.6912   -0.3574    2.7036 O.2     1  LIG1       -0.2701
     28 O         -13.8773   -4.9989    1.5812 O.3     1  LIG1       -0.3609
     29 H          -1.8612    1.5858   -4.2281 H       1  LIG1        0.0639
     30 H          -9.7767   -5.7765   -0.1339 H       1  LIG1        0.0643
     31 H          -0.9076   -0.6039   -3.5382 H       1  LIG1        0.0644
     32 H         -12.1268   -6.3799    0.2123 H       1  LIG1        0.0651
     33 H         -12.7447   -2.8541    2.5422 H       1  LIG1        0.0657
     34 H         -10.3080   -1.2065    2.8058 H       1  LIG1        0.0651
     35 H          -3.9008    2.4133   -3.1362 H       1  LIG1        0.0840
     36 H          -3.4801    0.1598    0.9612 H       1  LIG1        0.0485
     37 H          -5.0594    0.6473    0.3018 H       1  LIG1        0.0485
     38 H          -6.1371   -0.5246   -1.2465 H       1  LIG1        0.0485
     39 H          -5.4979   -2.0346   -1.9379 H       1  LIG1        0.0485
     40 H          -4.5225   -1.7301    2.1435 H       1  LIG1        0.0486
     41 H          -5.3626   -0.2199    2.5808 H       1  LIG1        0.0486
     42 H          -5.8815   -3.2080    0.1909 H       1  LIG1        0.0486
     43 H          -7.3952   -2.4304   -0.3396 H       1  LIG1        0.0486
     44 H           1.3414   -2.6776   -2.3000 H       1  LIG1        0.0249
     45 H           0.5195   -1.1460   -1.9162 H       1  LIG1        0.0249
     46 H           0.5557   -2.4614   -0.7175 H       1  LIG1        0.0249
     47 H          -0.7831   -4.5360   -1.0985 H       1  LIG1        0.0249
     48 H          -1.7732   -4.6989   -2.5688 H       1  LIG1        0.0249
     49 H           0.0024   -4.7524   -2.6810 H       1  LIG1        0.0249
     50 H          -0.8699   -2.5503   -3.4150 H       1  LIG1        0.0497
     51 H          -7.8826   -3.7254    0.5252 H       1  LIG1        0.1529
     52 H          -2.3518   -2.6360   -0.9003 H       1  LIG1        0.1469
     53 H         -14.3770   -4.6051    0.8530 H       1  LIG1        0.2182
@<TRIPOS>BOND
     1     1     3   ar
     2     1     7   ar
     3     2     4   ar
     4     2     9   ar
     5     3    10   ar
     6     4    11   ar
     7     5     8   ar
     8     5    11   ar
     9     6     8   ar
    10     6    12   ar
    11     7    22   ar
    12     8     9   ar
    13     9    23   ar
    14    10    13   ar
    15    10    26    1
    16    11    28    1
    17    12    14    1
    18    12    23   ar
    19    13    22   ar
    20    13    24    1
    21    14    25   am
    22    14    27    2
    23    15    17    1
    24    15    24    1
    25    16    18    1
    26    16    24    1
    27    17    25    1
    28    18    25    1
    29    19    21    1
    30    20    21    1
    31    21    26    1
    32     1    29    1
    33     2    30    1
    34     3    31    1
    35     4    32    1
    36     5    33    1
    37     6    34    1
    38     7    35    1
    39    15    36    1
    40    15    37    1
    41    16    38    1
    42    16    39    1
    43    17    40    1
    44    17    41    1
    45    18    42    1
    46    18    43    1
    47    19    44    1
    48    19    45    1
    49    19    46    1
    50    20    47    1
    51    20    48    1
    52    20    49    1
    53    21    50    1
    54    23    51    1
    55    26    52    1
    56    28    53    1
