@<TRIPOS>MOLECULE
ChEBML227699
 47 50 0 0 0
SMALL
USER_CHARGES

@<TRIPOS>ATOM
      1 C          -1.7607   -0.2227   -3.1290 C.ar    1  LIG1       -0.0618
      2 C          -1.8069    1.1582   -2.9721 C.ar    1  LIG1       -0.0604
      3 C         -11.8874   -5.5548    1.6063 C.ar    1  LIG1       -0.0470
      4 C          -2.8261   -1.0032   -2.6895 C.ar    1  LIG1       -0.0571
      5 C         -10.5582   -5.3643    1.2182 C.ar    1  LIG1       -0.0394
      6 C          -2.9171    1.7611   -2.3751 C.ar    1  LIG1       -0.0402
      7 C         -12.0877   -3.2274    2.2703 C.ar    1  LIG1       -0.0396
      8 C          -9.8861   -1.8803    1.8929 C.ar    1  LIG1       -0.0262
      9 C         -10.7494   -3.0115    1.8859 C.ar    1  LIG1       -0.0014
     10 C         -12.6423   -4.5042    2.1245 C.ar    1  LIG1        0.0477
     11 C          -3.9376   -0.4069   -2.0760 C.ar    1  LIG1       -0.0240
     12 C         -10.0170   -4.0827    1.3697 C.ar    1  LIG1        0.0378
     13 C          -3.9955    0.9884   -1.9140 C.ar    1  LIG1        0.0384
     14 C          -8.6690   -2.2793    1.3906 C.ar    1  LIG1        0.0945
     15 C          -6.1419    0.8165   -0.6715 C.2     1  LIG1        0.2392
     16 C         -14.0234   -4.7352    2.5194 C.2     1  LIG1        0.2924
     17 C          -7.4407   -1.4665    1.1960 C.2     1  LIG1        0.2578
     18 C          -5.1089   -1.2526   -1.6724 C.3     1  LIG1        0.0014
     19 C          -5.7768   -0.6474   -0.4521 C.3     1  LIG1        0.1042
     20 C          -5.3135    3.0341   -1.3700 C.3     1  LIG1        0.0080
     21 C         -16.1658   -5.4233    1.7278 C.3     1  LIG1        0.0456
     22 N          -8.7578   -3.6092    1.0776 N.ar    1  LIG1       -0.3101
     23 N          -5.1546    1.5830   -1.3130 N.am    1  LIG1       -0.2728
     24 N          -6.9700   -1.3783   -0.1067 N.am    1  LIG1       -0.2982
     25 O          -7.1849    1.2864   -0.2109 O.2     1  LIG1       -0.2749
     26 O         -14.4611   -4.5666    3.6649 O.2     1  LIG1       -0.2606
     27 O          -6.9057   -0.9449    2.1708 O.2     1  LIG1       -0.2704
     28 O         -14.7829   -5.1622    1.4647 O.3     1  LIG1       -0.3155
     29 H          -0.9007   -0.6896   -3.5996 H       1  LIG1        0.0623
     30 H          -0.9793    1.7712   -3.3179 H       1  LIG1        0.0623
     31 H         -12.3280   -6.5434    1.4968 H       1  LIG1        0.0632
     32 H          -2.7893   -2.0801   -2.8324 H       1  LIG1        0.0626
     33 H          -9.9714   -6.1827    0.8147 H       1  LIG1        0.0643
     34 H          -2.9061    2.8429   -2.2763 H       1  LIG1        0.0642
     35 H         -12.6782   -2.4096    2.6747 H       1  LIG1        0.0638
     36 H         -10.1333   -0.8826    2.2311 H       1  LIG1        0.0651
     37 H          -5.8076   -1.3086   -2.5172 H       1  LIG1        0.0341
     38 H          -4.7874   -2.2767   -1.4453 H       1  LIG1        0.0341
     39 H          -5.1119   -0.6935    0.4193 H       1  LIG1        0.0608
     40 H          -5.8612    3.3169   -2.2727 H       1  LIG1        0.0437
     41 H          -4.3348    3.5211   -1.3851 H       1  LIG1        0.0437
     42 H          -5.8678    3.3881   -0.4966 H       1  LIG1        0.0437
     43 H         -16.6559   -5.7552    0.8092 H       1  LIG1        0.0536
     44 H         -16.6446   -4.5145    2.1010 H       1  LIG1        0.0536
     45 H         -16.2417   -6.2092    2.4830 H       1  LIG1        0.0536
     46 H          -8.0094   -4.1657    0.6879 H       1  LIG1        0.1529
     47 H          -7.4338   -1.8911   -0.8519 H       1  LIG1        0.1506
@<TRIPOS>BOND
     1     1     2   ar
     2     1     4   ar
     3     2     6   ar
     4     3     5   ar
     5     3    10   ar
     6     4    11   ar
     7     5    12   ar
     8     6    13   ar
     9     7     9   ar
    10     7    10   ar
    11     8     9   ar
    12     8    14   ar
    13     9    12   ar
    14    10    16    1
    15    11    13   ar
    16    11    18    1
    17    12    22   ar
    18    13    23    1
    19    14    17    1
    20    14    22   ar
    21    15    19    1
    22    15    23   am
    23    15    25    2
    24    16    26    2
    25    16    28    1
    26    17    24   am
    27    17    27    2
    28    18    19    1
    29    19    24    1
    30    20    23    1
    31    21    28    1
    32     1    29    1
    33     2    30    1
    34     3    31    1
    35     4    32    1
    36     5    33    1
    37     6    34    1
    38     7    35    1
    39     8    36    1
    40    18    37    1
    41    18    38    1
    42    19    39    1
    43    20    40    1
    44    20    41    1
    45    20    42    1
    46    21    43    1
    47    21    44    1
    48    21    45    1
    49    22    46    1
    50    24    47    1
