@<TRIPOS>MOLECULE
ChEBML910971
 46 49 0 0 0
SMALL
USER_CHARGES

@<TRIPOS>ATOM
      1 C         -12.2958   -4.8296    0.9888 C.ar    1  LIG1       -0.0614
      2 C         -11.3390   -5.5595    0.2973 C.ar    1  LIG1       -0.0596
      3 C         -11.9583   -3.6615    1.6128 C.ar    1  LIG1       -0.0520
      4 C          -2.5285   -0.5308   -3.5518 C.ar    1  LIG1       -0.0450
      5 C         -10.0355   -5.1176    0.2201 C.ar    1  LIG1       -0.0306
      6 C          -3.1279   -1.1461   -2.4680 C.ar    1  LIG1       -0.0211
      7 C          -2.8974    1.5691   -2.4718 C.ar    1  LIG1        0.0413
      8 C         -10.6412   -3.2006    1.5534 C.ar    1  LIG1        0.0110
      9 C          -2.4137    0.8533   -3.5482 C.ar    1  LIG1        0.0739
     10 C          -9.9459   -2.0294    2.0863 C.ar    1  LIG1       -0.0049
     11 C          -9.6675   -3.9349    0.8506 C.ar    1  LIG1        0.0899
     12 C          -8.6529   -2.1461    1.6882 C.ar    1  LIG1        0.1482
     13 C          -3.5931   -0.3622   -1.4168 C.ar    1  LIG1        0.1200
     14 C          -7.5818   -1.1896    2.0017 C.2     1  LIG1        0.2697
     15 C          -4.5793    0.1103    0.5985 C.3     1  LIG1        0.0288
     16 C          -5.4353   -1.5854   -0.8107 C.3     1  LIG1        0.0288
     17 C          -5.2336   -0.4887    1.8478 C.3     1  LIG1        0.0304
     18 C          -6.1447   -2.3006    0.3496 C.3     1  LIG1        0.0304
     19 C         -10.5424   -0.9210    2.9150 C.3     1  LIG1       -0.0363
     20 C          -1.7671    1.5665   -4.7078 C.3     1  LIG1        0.4175
     21 N          -3.4699    0.9555   -1.4532 N.ar    1  LIG1       -0.2408
     22 N          -4.1977   -0.9675   -0.3213 N.pl3   1  LIG1       -0.3127
     23 N          -6.3717   -1.3194    1.4227 N.am    1  LIG1       -0.2929
     24 O          -7.7877   -0.2808    2.7838 O.2     1  LIG1       -0.2693
     25 O          -8.4997   -3.2724    0.9607 O.2     1  LIG1       -0.3039
     26 F          -2.7408    1.8860   -5.6603 F       1  LIG1       -0.1661
     27 F          -1.1576    2.7404   -4.2521 F       1  LIG1       -0.1661
     28 F          -0.8028    0.7351   -5.2875 F       1  LIG1       -0.1661
     29 H         -13.3138   -5.1873    1.0344 H       1  LIG1        0.0623
     30 H         -11.6201   -6.4810   -0.1906 H       1  LIG1        0.0623
     31 H         -12.7066   -3.0976    2.1498 H       1  LIG1        0.0630
     32 H          -2.1576   -1.1134   -4.3821 H       1  LIG1        0.0631
     33 H          -9.2994   -5.6953   -0.3191 H       1  LIG1        0.0650
     34 H          -3.2333   -2.2205   -2.4379 H       1  LIG1        0.0659
     35 H          -2.8099    2.6455   -2.4648 H       1  LIG1        0.0847
     36 H          -5.2849    0.7773    0.1034 H       1  LIG1        0.0485
     37 H          -3.6911    0.6719    0.8880 H       1  LIG1        0.0485
     38 H          -6.0888   -0.8149   -1.2198 H       1  LIG1        0.0485
     39 H          -5.1962   -2.3093   -1.5897 H       1  LIG1        0.0485
     40 H          -5.5862    0.3124    2.4973 H       1  LIG1        0.0486
     41 H          -4.5096   -1.1037    2.3823 H       1  LIG1        0.0486
     42 H          -5.5199   -3.1129    0.7210 H       1  LIG1        0.0486
     43 H          -7.1001   -2.6984    0.0078 H       1  LIG1        0.0486
     44 H         -10.4646   -1.1753    3.9720 H       1  LIG1        0.0281
     45 H         -10.0024    0.0064    2.7238 H       1  LIG1        0.0281
     46 H         -11.5915   -0.7922    2.6486 H       1  LIG1        0.0281
@<TRIPOS>BOND
     1     1     2   ar
     2     1     3   ar
     3     2     5   ar
     4     3     8   ar
     5     4     6   ar
     6     4     9   ar
     7     5    11   ar
     8     6    13   ar
     9     7     9   ar
    10     7    21   ar
    11     8    10   ar
    12     8    11   ar
    13     9    20    1
    14    10    12   ar
    15    10    19    1
    16    11    25   ar
    17    12    14    1
    18    12    25   ar
    19    13    21   ar
    20    13    22    1
    21    14    23   am
    22    14    24    2
    23    15    17    1
    24    15    22    1
    25    16    18    1
    26    16    22    1
    27    17    23    1
    28    18    23    1
    29    20    26    1
    30    20    27    1
    31    20    28    1
    32     1    29    1
    33     2    30    1
    34     3    31    1
    35     4    32    1
    36     5    33    1
    37     6    34    1
    38     7    35    1
    39    15    36    1
    40    15    37    1
    41    16    38    1
    42    16    39    1
    43    17    40    1
    44    17    41    1
    45    18    42    1
    46    18    43    1
    47    19    44    1
    48    19    45    1
    49    19    46    1
