@<TRIPOS>MOLECULE
ChEBML390828
 41 43 0 0 0
SMALL
USER_CHARGES

@<TRIPOS>ATOM
      1 C          -3.8821   -1.9628    1.3293 C.ar    1  LIG1       -0.0589
      2 C          -5.1329   -1.8571    1.9373 C.ar    1  LIG1       -0.0508
      3 C         -11.1883   -5.6521    0.9321 C.ar    1  LIG1       -0.0531
      4 C          -9.8451   -5.2763    1.0259 C.ar    1  LIG1       -0.0396
      5 C          -3.6535   -1.3562    0.0942 C.ar    1  LIG1       -0.0318
      6 C         -11.9160   -3.3863    1.4148 C.ar    1  LIG1       -0.0457
      7 C          -9.9218   -1.7466    1.7879 C.ar    1  LIG1       -0.0276
      8 C          -5.9267   -0.5383    0.0750 C.ar    1  LIG1       -0.0206
      9 C         -10.5693   -2.9840    1.5144 C.ar    1  LIG1       -0.0017
     10 C         -12.2093   -4.7234    1.1231 C.ar    1  LIG1       -0.0247
     11 C          -6.1553   -1.1449    1.3101 C.ar    1  LIG1        0.0264
     12 C          -9.5670   -3.9363    1.3181 C.ar    1  LIG1        0.0378
     13 C          -4.6757   -0.6440   -0.5330 C.ar    1  LIG1        0.0753
     14 C          -8.5643   -1.9678    1.7533 C.ar    1  LIG1        0.0797
     15 C         -13.5977   -5.1479    1.0207 C.2     1  LIG1       -0.0496
     16 C         -14.0264   -6.2644    0.3912 C.2     1  LIG1        0.0033
     17 C          -7.5078   -1.0301    1.9672 C.2     1  LIG1        0.2067
     18 C         -15.4775   -6.5954    0.3396 C.2     1  LIG1        0.2584
     19 C          -3.1511   -0.1994   -2.3032 C.3     1  LIG1        0.0422
     20 N          -8.3601   -3.2913    1.4689 N.ar    1  LIG1       -0.3112
     21 N         -15.7064   -7.7634   -0.3413 N.am    1  LIG1       -0.1945
     22 O          -7.6560   -0.0452    2.7278 O.2     1  LIG1       -0.2871
     23 O         -16.3380   -5.8904    0.8567 O.2     1  LIG1       -0.2703
     24 O         -17.0484   -8.1573   -0.4364 O.3     1  LIG1       -0.2965
     25 O          -4.4529   -0.0520   -1.7380 O.3     1  LIG1       -0.3493
     26 H          -3.0862   -2.5173    1.8177 H       1  LIG1        0.0624
     27 H          -5.3002   -2.3326    2.9001 H       1  LIG1        0.0630
     28 H         -11.4218   -6.6909    0.7061 H       1  LIG1        0.0629
     29 H          -9.0511   -6.0004    0.8772 H       1  LIG1        0.0643
     30 H          -2.6768   -1.4420   -0.3744 H       1  LIG1        0.0650
     31 H         -12.7112   -2.6600    1.5642 H       1  LIG1        0.0636
     32 H         -10.4025   -0.7981    1.9889 H       1  LIG1        0.0651
     33 H          -6.7202    0.0188   -0.4180 H       1  LIG1        0.0658
     34 H         -14.3383   -4.4850    1.4811 H       1  LIG1        0.0631
     35 H         -13.3345   -6.9402   -0.1002 H       1  LIG1        0.0679
     36 H          -3.1089    0.3204   -3.2634 H       1  LIG1        0.0535
     37 H          -2.9310   -1.2610   -2.4414 H       1  LIG1        0.0535
     38 H          -2.4165    0.2374   -1.6225 H       1  LIG1        0.0535
     39 H          -7.4556   -3.7342    1.3831 H       1  LIG1        0.1529
     40 H         -14.9537   -8.3069   -0.7495 H       1  LIG1        0.1839
     41 H         -17.4778   -7.4317    0.0474 H       1  LIG1        0.2427
@<TRIPOS>BOND
     1     1     2   ar
     2     1     5   ar
     3     2    11   ar
     4     3     4   ar
     5     3    10   ar
     6     4    12   ar
     7     5    13   ar
     8     6     9   ar
     9     6    10   ar
    10     7     9   ar
    11     7    14   ar
    12     8    11   ar
    13     8    13   ar
    14     9    12   ar
    15    10    15    1
    16    11    17    1
    17    12    20   ar
    18    13    25    1
    19    14    17    1
    20    14    20   ar
    21    15    16    2
    22    16    18    1
    23    17    22    2
    24    18    21   am
    25    18    23    2
    26    19    25    1
    27    21    24    1
    28     1    26    1
    29     2    27    1
    30     3    28    1
    31     4    29    1
    32     5    30    1
    33     6    31    1
    34     7    32    1
    35     8    33    1
    36    15    34    1
    37    16    35    1
    38    19    36    1
    39    19    37    1
    40    19    38    1
    41    20    39    1
    42    21    40    1
    43    24    41    1
