@<TRIPOS>MOLECULE
ChEBML717123
 58 61 0 0 0
SMALL
USER_CHARGES

@<TRIPOS>ATOM
      1 C          -2.2079    0.6559   -3.5027 C.ar    1  LIG1       -0.0431
      2 C          -1.9332   -0.5989   -2.9704 C.ar    1  LIG1       -0.0449
      3 C         -12.2840   -3.7617    1.7312 C.ar    1  LIG1       -0.0566
      4 C         -11.4962   -5.7899    0.6810 C.ar    1  LIG1       -0.0566
      5 C         -10.9997   -3.2230    1.6543 C.ar    1  LIG1       -0.0405
      6 C         -10.2118   -5.2511    0.6041 C.ar    1  LIG1       -0.0405
      7 C          -3.2537    1.3792   -2.9523 C.ar    1  LIG1        0.0291
      8 C          -7.6468   -1.5878    3.8679 C.ar    1  LIG1        0.1174
      9 C          -7.0122   -1.6692    1.2442 C.ar    1  LIG1        0.0157
     10 C         -12.5322   -5.0452    1.2446 C.ar    1  LIG1       -0.0425
     11 C          -2.7019   -1.0852   -1.9187 C.ar    1  LIG1        0.0957
     12 C          -9.9636   -3.9677    1.0908 C.ar    1  LIG1        0.0314
     13 C          -6.3948   -0.7756    2.1207 C.ar    1  LIG1        0.0505
     14 C          -3.7255   -0.2838   -1.4391 C.ar    1  LIG1        0.1322
     15 C          -7.9737   -2.4937    1.8196 C.ar    1  LIG1        0.1285
     16 C          -6.7259   -1.7678   -0.2309 C.3     1  LIG1       -0.0067
     17 C          -5.3538    0.2249    1.6784 C.3     1  LIG1        0.0059
     18 C          -5.2464   -2.0046   -0.5501 C.3     1  LIG1        0.0171
     19 C          -4.1476   -0.4124    0.9840 C.3     1  LIG1        0.0184
     20 C         -14.9333   -4.7496    0.5422 C.3     1  LIG1       -0.0561
     21 C         -14.3944   -5.7101    2.8057 C.3     1  LIG1       -0.0561
     22 C         -14.0610   -7.0685    0.7502 C.3     1  LIG1       -0.0561
     23 C         -13.9050   -5.6222    1.3267 C.3     1  LIG1       -0.0132
     24 C          -2.4040   -2.4311   -1.3507 C.3     1  LIG1        0.4193
     25 N          -4.0223    0.9401   -1.9306 N.ar    1  LIG1       -0.2408
     26 N          -6.7052   -0.7275    3.4413 N.ar    1  LIG1       -0.2408
     27 N          -8.3130   -2.4823    3.1242 N.ar    1  LIG1       -0.2211
     28 N          -4.4841   -0.7584   -0.4031 N.pl3   1  LIG1       -0.3146
     29 N          -8.6708   -3.4248    1.0114 N.pl3   1  LIG1       -0.2993
     30 F          -1.3573   -3.0634   -1.9596 F       1  LIG1       -0.1660
     31 F          -2.0806   -2.4056   -0.0236 F       1  LIG1       -0.1660
     32 F          -3.4598   -3.2903   -1.4532 F       1  LIG1       -0.1660
     33 H          -1.6215    1.0551   -4.3223 H       1  LIG1        0.0639
     34 H          -1.1190   -1.1893   -3.3815 H       1  LIG1        0.0631
     35 H         -13.0849   -3.1750    2.1728 H       1  LIG1        0.0626
     36 H         -11.6798   -6.7911    0.3008 H       1  LIG1        0.0626
     37 H         -10.8168   -2.2225    2.0378 H       1  LIG1        0.0642
     38 H          -9.4119   -5.8405    0.1636 H       1  LIG1        0.0642
     39 H          -3.5095    2.3630   -3.3319 H       1  LIG1        0.0840
     40 H          -7.8927   -1.5513    4.9220 H       1  LIG1        0.1063
     41 H          -7.2774   -2.5917   -0.6954 H       1  LIG1        0.0334
     42 H          -7.0979   -0.8559   -0.7149 H       1  LIG1        0.0334
     43 H          -5.8366    0.9800    1.0465 H       1  LIG1        0.0348
     44 H          -4.9868    0.7560    2.5663 H       1  LIG1        0.0348
     45 H          -4.8254   -2.7951    0.0838 H       1  LIG1        0.0472
     46 H          -5.1508   -2.3537   -1.5863 H       1  LIG1        0.0472
     47 H          -3.3152    0.3027    0.9754 H       1  LIG1        0.0473
     48 H          -3.7941   -1.2955    1.5307 H       1  LIG1        0.0473
     49 H         -15.9519   -5.1523    0.5867 H       1  LIG1        0.0239
     50 H         -14.9758   -3.7281    0.9360 H       1  LIG1        0.0239
     51 H         -14.6465   -4.6833   -0.5140 H       1  LIG1        0.0239
     52 H         -15.4026   -6.1335    2.8702 H       1  LIG1        0.0239
     53 H         -13.7446   -6.3339    3.4307 H       1  LIG1        0.0239
     54 H         -14.4283   -4.7100    3.2539 H       1  LIG1        0.0239
     55 H         -15.0865   -7.4483    0.8334 H       1  LIG1        0.0239
     56 H         -13.7933   -7.0958   -0.3124 H       1  LIG1        0.0239
     57 H         -13.4128   -7.7731    1.2842 H       1  LIG1        0.0239
     58 H          -8.1263   -3.7600    0.2253 H       1  LIG1        0.1543
@<TRIPOS>BOND
     1     1     2   ar
     2     1     7   ar
     3     2    11   ar
     4     3     5   ar
     5     3    10   ar
     6     4     6   ar
     7     4    10   ar
     8     5    12   ar
     9     6    12   ar
    10     7    25   ar
    11     8    26   ar
    12     8    27   ar
    13     9    13   ar
    14     9    15   ar
    15     9    16    1
    16    10    23    1
    17    11    14   ar
    18    11    24    1
    19    12    29    1
    20    13    17    1
    21    13    26   ar
    22    14    25   ar
    23    14    28    1
    24    15    27   ar
    25    15    29    1
    26    16    18    1
    27    17    19    1
    28    18    28    1
    29    19    28    1
    30    20    23    1
    31    21    23    1
    32    22    23    1
    33    24    30    1
    34    24    31    1
    35    24    32    1
    36     1    33    1
    37     2    34    1
    38     3    35    1
    39     4    36    1
    40     5    37    1
    41     6    38    1
    42     7    39    1
    43     8    40    1
    44    16    41    1
    45    16    42    1
    46    17    43    1
    47    17    44    1
    48    18    45    1
    49    18    46    1
    50    19    47    1
    51    19    48    1
    52    20    49    1
    53    20    50    1
    54    20    51    1
    55    21    52    1
    56    21    53    1
    57    21    54    1
    58    22    55    1
    59    22    56    1
    60    22    57    1
    61    29    58    1
