@<TRIPOS>MOLECULE
ChEBML829824
 43 45 0 0 0
SMALL
USER_CHARGES

@<TRIPOS>ATOM
      1 C         -10.3658   -5.2946    0.7577 C.ar    1  LIG1       -0.0333
      2 C         -11.7330   -5.5817    0.8080 C.ar    1  LIG1       -0.0384
      3 C         -12.2046   -3.3682    1.6781 C.ar    1  LIG1       -0.0243
      4 C          -9.9004   -4.0277    1.1717 C.ar    1  LIG1        0.0800
      5 C         -12.6386   -4.6296    1.2626 C.ar    1  LIG1        0.0360
      6 C         -10.8299   -3.0866    1.6247 C.ar    1  LIG1        0.0427
      7 C          -8.5164   -2.3705    1.6245 C.ar    1  LIG1        0.1606
      8 C         -14.7213   -5.7999    0.4857 C.2     1  LIG1        0.3550
      9 C          -5.6498    0.5467    0.6168 C.3     1  LIG1       -0.0517
     10 C          -4.7437   -0.6329    0.2673 C.3     1  LIG1       -0.0517
     11 C          -6.1470    0.5197    2.0622 C.3     1  LIG1       -0.0373
     12 C          -5.4278   -1.9985    0.2818 C.3     1  LIG1       -0.0373
     13 C          -7.4255   -0.2955    2.2651 C.3     1  LIG1        0.0133
     14 C          -6.0805   -2.3435    1.6187 C.3     1  LIG1        0.0133
     15 C         -17.4097   -4.7307   -0.7698 C.3     1  LIG1       -0.0409
     16 C         -16.9966   -6.0507   -0.1544 C.3     1  LIG1        0.0552
     17 N          -8.5798   -3.6028    1.1772 N.ar    1  LIG1       -0.2254
     18 N          -7.3719   -1.6681    1.7528 N.pl3   1  LIG1       -0.3101
     19 N         -14.0000   -4.9360    1.3052 N.am    1  LIG1       -0.2610
     20 O         -14.2909   -6.4677   -0.4466 O.2     1  LIG1       -0.2421
     21 O         -16.0338   -5.8036    0.8769 O.3     1  LIG1       -0.3004
     22 S         -10.0000   -1.6403    2.0628 S.2     1  LIG1       -0.0520
     23 H          -9.6670   -6.0459    0.4009 H       1  LIG1        0.0646
     24 H         -12.0774   -6.5618    0.4861 H       1  LIG1        0.0643
     25 H         -12.9100   -2.6222    2.0337 H       1  LIG1        0.0655
     26 H          -5.0632    1.4635    0.4766 H       1  LIG1        0.0267
     27 H          -6.4915    0.6051   -0.0833 H       1  LIG1        0.0267
     28 H          -4.3284   -0.4678   -0.7344 H       1  LIG1        0.0267
     29 H          -3.8883   -0.6498    0.9547 H       1  LIG1        0.0267
     30 H          -5.3538    0.1712    2.7343 H       1  LIG1        0.0283
     31 H          -6.3669    1.5502    2.3702 H       1  LIG1        0.0283
     32 H          -6.1666   -2.0482   -0.5275 H       1  LIG1        0.0283
     33 H          -4.6659   -2.7559    0.0595 H       1  LIG1        0.0283
     34 H          -7.6559   -0.3248    3.3373 H       1  LIG1        0.0469
     35 H          -8.2539    0.2351    1.7773 H       1  LIG1        0.0469
     36 H          -6.2325   -3.4308    1.6534 H       1  LIG1        0.0469
     37 H          -5.4208   -2.1117    2.4630 H       1  LIG1        0.0469
     38 H         -17.8616   -4.0752   -0.0202 H       1  LIG1        0.0254
     39 H         -16.5451   -4.2223   -1.2090 H       1  LIG1        0.0254
     40 H         -18.1298   -4.8909   -1.5791 H       1  LIG1        0.0254
     41 H         -16.5454   -6.7016   -0.9092 H       1  LIG1        0.0571
     42 H         -17.8614   -6.5570    0.2848 H       1  LIG1        0.0571
     43 H         -14.5398   -4.4623    2.0364 H       1  LIG1        0.1581
@<TRIPOS>BOND
     1     1     2   ar
     2     1     4   ar
     3     2     5   ar
     4     3     5   ar
     5     3     6   ar
     6     4     6   ar
     7     4    17   ar
     8     5    19    1
     9     6    22   ar
    10     7    17   ar
    11     7    18    1
    12     7    22   ar
    13     8    19   am
    14     8    20    2
    15     8    21    1
    16     9    10    1
    17     9    11    1
    18    10    12    1
    19    11    13    1
    20    12    14    1
    21    13    18    1
    22    14    18    1
    23    15    16    1
    24    16    21    1
    25     1    23    1
    26     2    24    1
    27     3    25    1
    28     9    26    1
    29     9    27    1
    30    10    28    1
    31    10    29    1
    32    11    30    1
    33    11    31    1
    34    12    32    1
    35    12    33    1
    36    13    34    1
    37    13    35    1
    38    14    36    1
    39    14    37    1
    40    15    38    1
    41    15    39    1
    42    15    40    1
    43    16    41    1
    44    16    42    1
    45    19    43    1
