@<TRIPOS>MOLECULE
ChEBML296730
 45 47 0 0 0
SMALL
USER_CHARGES

@<TRIPOS>ATOM
      1 C          -2.2254    0.9423   -3.4715 C.ar    1  LIG1       -0.0434
      2 C          -1.9726   -0.4018   -3.2209 C.ar    1  LIG1       -0.0543
      3 C         -11.9821   -2.9669    0.9347 C.ar    1  LIG1       -0.0482
      4 C         -11.6358   -5.3543    0.8035 C.ar    1  LIG1       -0.0482
      5 C         -10.6159   -2.7803    1.1455 C.ar    1  LIG1       -0.0401
      6 C         -10.2696   -5.1677    1.0142 C.ar    1  LIG1       -0.0401
      7 C          -3.3165    1.5245   -2.8469 C.ar    1  LIG1        0.0291
      8 C         -12.4920   -4.2539    0.7638 C.ar    1  LIG1        0.0556
      9 C          -2.8069   -1.1125   -2.3652 C.ar    1  LIG1       -0.0107
     10 C          -9.7597   -3.8807    1.1852 C.ar    1  LIG1        0.0340
     11 C          -3.8719   -0.4383   -1.7899 C.ar    1  LIG1        0.1229
     12 C          -7.8711   -2.4266    1.6421 C.2     1  LIG1        0.3050
     13 C          -4.8323   -0.6857    0.4435 C.3     1  LIG1        0.0288
     14 C          -5.7848   -1.9241   -1.5253 C.3     1  LIG1        0.0288
     15 C          -6.2993   -0.6746    0.8674 C.3     1  LIG1        0.0315
     16 C          -6.4743   -2.7716   -0.4551 C.3     1  LIG1        0.0315
     17 C          -2.5323   -2.5536   -2.0989 C.3     1  LIG1       -0.0363
     18 C         -13.9527   -4.4533    0.5385 C.3     1  LIG1        0.4160
     19 N          -4.1492    0.8665   -2.0094 N.ar    1  LIG1       -0.2411
     20 N          -4.6964   -1.1351   -0.9448 N.pl3   1  LIG1       -0.3125
     21 N          -6.9179   -1.9884    0.7035 N.am    1  LIG1       -0.2824
     22 N          -8.3887   -3.6938    1.3963 N.am    1  LIG1       -0.2691
     23 O          -8.2156   -1.7441    2.6125 O.2     1  LIG1       -0.2537
     24 F         -14.6683   -3.2898    0.5238 F       1  LIG1       -0.1661
     25 F         -14.2446   -5.0657   -0.6470 F       1  LIG1       -0.1661
     26 F         -14.5319   -5.2269    1.5024 F       1  LIG1       -0.1661
     27 H          -1.5881    1.5160   -4.1346 H       1  LIG1        0.0639
     28 H          -1.1239   -0.8857   -3.6966 H       1  LIG1        0.0627
     29 H         -12.6422   -2.1039    0.9075 H       1  LIG1        0.0629
     30 H         -12.0246   -6.3607    0.6720 H       1  LIG1        0.0629
     31 H         -10.2294   -1.7727    1.2770 H       1  LIG1        0.0642
     32 H          -9.6114   -6.0325    1.0444 H       1  LIG1        0.0642
     33 H          -3.5578    2.5699   -3.0096 H       1  LIG1        0.0840
     34 H          -4.4151    0.3204    0.5746 H       1  LIG1        0.0485
     35 H          -4.2596   -1.3646    1.0866 H       1  LIG1        0.0485
     36 H          -5.3970   -2.5832   -2.3113 H       1  LIG1        0.0485
     37 H          -6.5155   -1.2484   -1.9881 H       1  LIG1        0.0485
     38 H          -6.3834   -0.3447    1.9082 H       1  LIG1        0.0486
     39 H          -6.8741    0.0291    0.2530 H       1  LIG1        0.0486
     40 H          -7.3341   -3.2827   -0.9008 H       1  LIG1        0.0486
     41 H          -5.7861   -3.5363   -0.0754 H       1  LIG1        0.0486
     42 H          -1.8666   -2.6625   -1.2337 H       1  LIG1        0.0281
     43 H          -3.4593   -3.1055   -1.8958 H       1  LIG1        0.0281
     44 H          -2.0592   -3.0360   -2.9644 H       1  LIG1        0.0281
     45 H          -7.8104   -4.5257    1.4165 H       1  LIG1        0.1573
@<TRIPOS>BOND
     1     1     2   ar
     2     1     7   ar
     3     2     9   ar
     4     3     5   ar
     5     3     8   ar
     6     4     6   ar
     7     4     8   ar
     8     5    10   ar
     9     6    10   ar
    10     7    19   ar
    11     8    18    1
    12     9    11   ar
    13     9    17    1
    14    10    22    1
    15    11    19   ar
    16    11    20    1
    17    12    21   am
    18    12    22   am
    19    12    23    2
    20    13    15    1
    21    13    20    1
    22    14    16    1
    23    14    20    1
    24    15    21    1
    25    16    21    1
    26    18    24    1
    27    18    25    1
    28    18    26    1
    29     1    27    1
    30     2    28    1
    31     3    29    1
    32     4    30    1
    33     5    31    1
    34     6    32    1
    35     7    33    1
    36    13    34    1
    37    13    35    1
    38    14    36    1
    39    14    37    1
    40    15    38    1
    41    15    39    1
    42    16    40    1
    43    16    41    1
    44    17    42    1
    45    17    43    1
    46    17    44    1
    47    22    45    1
