@<TRIPOS>MOLECULE
ChEBML331747
 36 38 0 0 0
SMALL
USER_CHARGES

@<TRIPOS>ATOM
      1 C          -9.9020   -1.9504    2.2006 C.ar    1  LIG1       -0.0194
      2 C         -10.7399   -5.0509    0.6582 C.ar    1  LIG1       -0.0031
      3 C         -10.0196   -3.9296    1.0909 C.ar    1  LIG1        0.0497
      4 C         -10.7389   -2.9958    1.8461 C.ar    1  LIG1        0.0368
      5 C          -8.6585   -2.2215    1.6719 C.ar    1  LIG1        0.0952
      6 C         -12.0476   -5.1790    0.9754 C.ar    1  LIG1        0.0831
      7 C          -7.4692   -1.3783    1.8040 C.2     1  LIG1        0.2602
      8 C          -5.1812   -0.7941    1.1382 C.3     1  LIG1        0.0539
      9 C          -6.5754   -2.3706   -0.2542 C.3     1  LIG1        0.0539
     10 C          -4.8175   -0.0649   -0.1594 C.3     1  LIG1       -0.0183
     11 C          -6.1459   -1.5670   -1.4861 C.3     1  LIG1       -0.0183
     12 C         -10.0562   -6.1149   -0.1611 C.3     1  LIG1       -0.0358
     13 C          -4.3433   -0.3482   -2.4921 C.3     1  LIG1       -0.0453
     14 N          -8.7269   -3.4201    0.9920 N.ar    1  LIG1       -0.3094
     15 N          -6.4502   -1.5088    0.9315 N.am    1  LIG1       -0.2863
     16 N          -4.7984   -1.0249   -1.2704 N.4     1  LIG1        0.2462
     17 O          -7.4005   -0.5591    2.7019 O.2     1  LIG1       -0.2701
     18 S         -12.3655   -3.7015    1.9249 S.2     1  LIG1       -0.0753
     19 CL        -13.1436   -6.4605    0.5631 Cl      1  LIG1       -0.0760
     20 H         -10.1738   -1.0831    2.7841 H       1  LIG1        0.0657
     21 H          -4.3961   -1.5071    1.3902 H       1  LIG1        0.0525
     22 H          -5.2956   -0.0705    1.9453 H       1  LIG1        0.0525
     23 H          -5.9312   -3.2427   -0.1429 H       1  LIG1        0.0525
     24 H          -7.6116   -2.6892   -0.3677 H       1  LIG1        0.0525
     25 H          -3.8329    0.3911   -0.0564 H       1  LIG1        0.0831
     26 H          -5.5577    0.7094   -0.3609 H       1  LIG1        0.0831
     27 H          -6.8459   -0.7472   -1.6475 H       1  LIG1        0.0831
     28 H          -6.1402   -2.2176   -2.3606 H       1  LIG1        0.0831
     29 H         -10.1487   -5.8736   -1.2200 H       1  LIG1        0.0281
     30 H          -9.0015   -6.1607    0.1103 H       1  LIG1        0.0281
     31 H         -10.5238   -7.0800    0.0338 H       1  LIG1        0.0281
     32 H          -5.0282    0.4645   -2.7339 H       1  LIG1        0.0777
     33 H          -3.3430    0.0546   -2.3334 H       1  LIG1        0.0777
     34 H          -4.3211   -1.0618   -3.3159 H       1  LIG1        0.0777
     35 H          -7.9910   -3.8420    0.5214 H       1  LIG1        0.1530
     36 H          -4.1653   -1.7789   -1.0493 H       1  LIG1        0.2001
@<TRIPOS>BOND
     1     1     4   ar
     2     1     5   ar
     3     2     3   ar
     4     2     6   ar
     5     2    12    1
     6     3     4   ar
     7     3    14   ar
     8     4    18   ar
     9     5     7    1
    10     5    14   ar
    11     6    18   ar
    12     6    19    1
    13     7    15   am
    14     7    17    2
    15     8    10    1
    16     8    15    1
    17     9    11    1
    18     9    15    1
    19    10    16    1
    20    11    16    1
    21    13    16    1
    22     1    20    1
    23     8    21    1
    24     8    22    1
    25     9    23    1
    26     9    24    1
    27    10    25    1
    28    10    26    1
    29    11    27    1
    30    11    28    1
    31    12    29    1
    32    12    30    1
    33    12    31    1
    34    13    32    1
    35    13    33    1
    36    13    34    1
    37    14    35    1
    38    16    36    1
