@<TRIPOS>MOLECULE
ChEBML1137486
 48 51 0 0 0
SMALL
USER_CHARGES

@<TRIPOS>ATOM
      1 C          -3.6528    1.2135   -3.2081 C.ar    1  LIG1       -0.0602
      2 C          -2.3856    0.8225   -3.5990 C.ar    1  LIG1       -0.0595
      3 C          -4.2546    0.6236   -2.1125 C.ar    1  LIG1       -0.0382
      4 C          -1.7136   -0.1606   -2.8959 C.ar    1  LIG1       -0.0299
      5 C         -12.9991   -2.5174    1.8842 C.ar    1  LIG1       -0.0343
      6 C         -12.5486   -4.6754    0.9399 C.ar    1  LIG1       -0.0343
      7 C         -10.0162   -1.9650    1.8823 C.ar    1  LIG1       -0.0059
      8 C         -14.3412   -2.8362    1.8578 C.ar    1  LIG1        0.0274
      9 C         -13.9073   -4.9151    0.9544 C.ar    1  LIG1        0.0274
     10 C         -12.0708   -3.4527    1.4190 C.ar    1  LIG1        0.0048
     11 C          -3.5887   -0.3671   -1.4056 C.ar    1  LIG1        0.0594
     12 C          -2.3095   -0.7564   -1.7967 C.ar    1  LIG1        0.0957
     13 C         -10.6173   -3.1531    1.4279 C.ar    1  LIG1        0.0906
     14 C          -8.6595   -2.1479    1.6952 C.ar    1  LIG1        0.1123
     15 C          -7.5890   -1.1894    2.0144 C.2     1  LIG1        0.2614
     16 C          -4.5881    0.1134    0.6100 C.3     1  LIG1        0.0275
     17 C          -5.4310   -1.5985   -0.7876 C.3     1  LIG1        0.0275
     18 C          -5.2438   -0.4779    1.8620 C.3     1  LIG1        0.0303
     19 C          -6.1424   -2.3028    0.3722 C.3     1  LIG1        0.0303
     20 C          -0.3819   -1.8952   -1.7409 C.3     1  LIG1        0.0423
     21 N         -14.7506   -4.0048    1.4023 N.ar    1  LIG1       -0.2646
     22 N          -9.6560   -3.9511    1.0122 N.ar    1  LIG1       -0.1834
     23 N          -8.5081   -3.3920    1.1497 N.ar    1  LIG1       -0.2326
     24 N          -4.1982   -0.9701   -0.2993 N.pl3   1  LIG1       -0.3255
     25 N          -6.3764   -1.3179    1.4403 N.am    1  LIG1       -0.2935
     26 O          -7.7986   -0.2817    2.7962 O.2     1  LIG1       -0.2701
     27 O          -1.6494   -1.7231   -1.1040 O.3     1  LIG1       -0.3473
     28 H          -4.1737    1.9819   -3.7600 H       1  LIG1        0.0623
     29 H          -1.9191    1.2864   -4.4554 H       1  LIG1        0.0623
     30 H          -5.2445    0.9311   -1.8091 H       1  LIG1        0.0643
     31 H          -0.7238   -0.4636   -3.2039 H       1  LIG1        0.0651
     32 H         -12.6709   -1.5592    2.2591 H       1  LIG1        0.0646
     33 H         -11.8642   -5.4235    0.5679 H       1  LIG1        0.0646
     34 H         -10.5098   -1.0956    2.2909 H       1  LIG1        0.0668
     35 H         -15.0661   -2.1200    2.2153 H       1  LIG1        0.0840
     36 H         -14.2858   -5.8588    0.5903 H       1  LIG1        0.0840
     37 H          -3.7038    0.6821    0.8975 H       1  LIG1        0.0485
     38 H          -5.2955    0.7728    0.1067 H       1  LIG1        0.0485
     39 H          -6.0869   -0.8346   -1.2054 H       1  LIG1        0.0485
     40 H          -5.1857   -2.3277   -1.5596 H       1  LIG1        0.0485
     41 H          -4.5187   -1.0847    2.4043 H       1  LIG1        0.0486
     42 H          -5.6026    0.3270    2.5035 H       1  LIG1        0.0486
     43 H          -5.5168   -3.1118    0.7495 H       1  LIG1        0.0486
     44 H          -7.0954   -2.7049    0.0283 H       1  LIG1        0.0486
     45 H           0.1861   -2.6646   -1.2179 H       1  LIG1        0.0535
     46 H          -0.5340   -2.1972   -2.7772 H       1  LIG1        0.0535
     47 H           0.1691   -0.9551   -1.7136 H       1  LIG1        0.0535
     48 H          -7.6597   -3.7936    0.9050 H       1  LIG1        0.1757
@<TRIPOS>BOND
     1     1     2   ar
     2     1     3   ar
     3     2     4   ar
     4     3    11   ar
     5     4    12   ar
     6     5     8   ar
     7     5    10   ar
     8     6     9   ar
     9     6    10   ar
    10     7    13   ar
    11     7    14   ar
    12     8    21   ar
    13     9    21   ar
    14    10    13    1
    15    11    12   ar
    16    11    24    1
    17    12    27    1
    18    13    22   ar
    19    14    15    1
    20    14    23   ar
    21    15    25   am
    22    15    26    2
    23    16    18    1
    24    16    24    1
    25    17    19    1
    26    17    24    1
    27    18    25    1
    28    19    25    1
    29    20    27    1
    30    22    23   ar
    31     1    28    1
    32     2    29    1
    33     3    30    1
    34     4    31    1
    35     5    32    1
    36     6    33    1
    37     7    34    1
    38     8    35    1
    39     9    36    1
    40    16    37    1
    41    16    38    1
    42    17    39    1
    43    17    40    1
    44    18    41    1
    45    18    42    1
    46    19    43    1
    47    19    44    1
    48    20    45    1
    49    20    46    1
    50    20    47    1
    51    23    48    1
