@<TRIPOS>MOLECULE
ChEBML300323
 39 41 0 0 0
SMALL
USER_CHARGES

@<TRIPOS>ATOM
      1 C          -3.7641    1.3478   -2.8838 C.ar    1  LIG1       -0.0572
      2 C          -2.5812    0.9846   -3.5180 C.ar    1  LIG1       -0.0437
      3 C         -10.3106   -5.2547    0.5905 C.ar    1  LIG1       -0.0387
      4 C         -11.6844   -5.5098    0.5541 C.ar    1  LIG1       -0.0416
      5 C          -4.1943    0.6383   -1.7680 C.ar    1  LIG1       -0.0213
      6 C         -12.1729   -3.3318    1.5107 C.ar    1  LIG1       -0.0343
      7 C         -10.0209   -1.9386    1.9924 C.ar    1  LIG1       -0.0262
      8 C          -1.8708   -0.0868   -3.0013 C.ar    1  LIG1        0.0291
      9 C         -10.7927   -3.0522    1.5573 C.ar    1  LIG1       -0.0007
     10 C          -9.8952   -4.0181    1.0970 C.ar    1  LIG1        0.0379
     11 C         -12.6030   -4.5646    1.0066 C.ar    1  LIG1        0.0413
     12 C          -8.6945   -2.2445    1.7920 C.ar    1  LIG1        0.0945
     13 C          -3.4119   -0.4178   -1.3298 C.ar    1  LIG1        0.1261
     14 C          -7.5470   -1.4421    2.0757 C.2     1  LIG1        0.2576
     15 C          -4.6272   -0.4719    0.8149 C.2     1  LIG1        0.2368
     16 C          -3.5299   -2.5765   -0.0432 C.3     1  LIG1        0.0094
     17 C          -5.0232   -1.3015    2.0281 C.3     1  LIG1        0.0891
     18 N          -2.2570   -0.8000   -1.9197 N.ar    1  LIG1       -0.2410
     19 N          -8.6288   -3.5006    1.2514 N.ar    1  LIG1       -0.3101
     20 N          -6.2756   -1.9787    1.7793 N.am    1  LIG1       -0.3013
     21 N          -3.8693   -1.1502   -0.1660 N.am    1  LIG1       -0.2579
     22 O          -7.6546   -0.3011    2.5921 O.2     1  LIG1       -0.2704
     23 O          -4.9406    0.7202    0.7641 O.2     1  LIG1       -0.2752
     24 CL        -14.2888   -4.9153    0.9442 Cl      1  LIG1       -0.0843
     25 H          -4.3494    2.1817   -3.2589 H       1  LIG1        0.0624
     26 H          -2.2265    1.5239   -4.3888 H       1  LIG1        0.0639
     27 H          -9.5964   -5.9917    0.2386 H       1  LIG1        0.0643
     28 H         -12.0257   -6.4664    0.1639 H       1  LIG1        0.0639
     29 H          -5.1158    0.9156   -1.2668 H       1  LIG1        0.0659
     30 H         -12.8882   -2.5939    1.8644 H       1  LIG1        0.0645
     31 H         -10.3998   -1.0139    2.4072 H       1  LIG1        0.0651
     32 H          -0.9414   -0.4101   -3.4586 H       1  LIG1        0.0840
     33 H          -2.5794   -2.6925    0.4840 H       1  LIG1        0.0438
     34 H          -3.4406   -3.0304   -1.0338 H       1  LIG1        0.0438
     35 H          -4.3085   -3.1036    0.5149 H       1  LIG1        0.0438
     36 H          -4.2733   -2.0721    2.2239 H       1  LIG1        0.0567
     37 H          -5.1640   -0.6588    2.9009 H       1  LIG1        0.0567
     38 H          -7.7759   -3.9818    1.0008 H       1  LIG1        0.1529
     39 H          -6.2243   -2.9272    1.4222 H       1  LIG1        0.1503
@<TRIPOS>BOND
     1     1     2   ar
     2     1     5   ar
     3     2     8   ar
     4     3     4   ar
     5     3    10   ar
     6     4    11   ar
     7     5    13   ar
     8     6     9   ar
     9     6    11   ar
    10     7     9   ar
    11     7    12   ar
    12     8    18   ar
    13     9    10   ar
    14    10    19   ar
    15    11    24    1
    16    12    14    1
    17    12    19   ar
    18    13    18   ar
    19    13    21    1
    20    14    20   am
    21    14    22    2
    22    15    17    1
    23    15    21   am
    24    15    23    2
    25    16    21    1
    26    17    20    1
    27     1    25    1
    28     2    26    1
    29     3    27    1
    30     4    28    1
    31     5    29    1
    32     6    30    1
    33     7    31    1
    34     8    32    1
    35    16    33    1
    36    16    34    1
    37    16    35    1
    38    17    36    1
    39    17    37    1
    40    19    38    1
    41    20    39    1
