@<TRIPOS>MOLECULE
ChEBML804076
 46 49 0 0 0
SMALL
USER_CHARGES

@<TRIPOS>ATOM
      1 C          -0.2444   -0.0242   -4.4029 C.ar    1  LIG1       -0.0600
      2 C          -0.5568    1.3306   -4.4244 C.ar    1  LIG1       -0.0610
      3 C          -1.0317   -0.9233   -3.6778 C.ar    1  LIG1       -0.0352
      4 C         -10.4835   -5.1586    1.4044 C.ar    1  LIG1       -0.0396
      5 C         -11.0482   -2.8895    0.7970 C.ar    1  LIG1       -0.0396
      6 C          -1.6611    1.8227   -3.7242 C.ar    1  LIG1       -0.0459
      7 C         -11.8387   -5.4872    1.4368 C.ar    1  LIG1       -0.0467
      8 C         -12.4035   -3.2181    0.8292 C.ar    1  LIG1       -0.0467
      9 C          -2.1533   -0.4525   -2.9613 C.ar    1  LIG1        0.0798
     10 C         -10.0883   -3.8598    1.0846 C.ar    1  LIG1        0.0340
     11 C          -2.4474    0.9140   -2.9978 C.ar    1  LIG1        0.0408
     12 C         -12.7987   -4.5170    1.1491 C.ar    1  LIG1        0.0071
     13 C          -3.9479   -0.4543   -1.6783 C.ar    1  LIG1        0.1607
     14 C          -8.2927   -2.2630    1.4255 C.2     1  LIG1        0.3050
     15 C          -5.9019   -1.8924   -1.3766 C.3     1  LIG1        0.0293
     16 C          -5.0329   -0.4807    0.5124 C.3     1  LIG1        0.0293
     17 C          -6.4882   -2.6946   -0.2170 C.3     1  LIG1        0.0315
     18 C          -6.4808   -0.5289    1.0025 C.3     1  LIG1        0.0315
     19 C         -14.5570   -6.2296   -0.0709 C.3     1  LIG1       -0.0136
     20 N          -3.0215   -1.2228   -2.2014 N.ar    1  LIG1       -0.2254
     21 N          -4.9418   -0.8990   -0.8878 N.pl3   1  LIG1       -0.3070
     22 N          -7.1250   -1.8266    0.7714 N.am    1  LIG1       -0.2824
     23 N          -8.7285   -3.5299    1.0520 N.am    1  LIG1       -0.2690
     24 O          -8.8801   -1.5796    2.2703 O.2     1  LIG1       -0.2537
     25 S          -3.8539    1.2135   -2.0464 S.2     1  LIG1       -0.0521
     26 S         -14.5300   -4.9371    1.1904 S.3     1  LIG1       -0.1296
     27 H           0.6182   -0.3888   -4.9538 H       1  LIG1        0.0623
     28 H           0.0649    2.0171   -4.9933 H       1  LIG1        0.0623
     29 H          -0.7784   -1.9797   -3.6682 H       1  LIG1        0.0646
     30 H          -9.7439   -5.9225    1.6306 H       1  LIG1        0.0643
     31 H         -10.7517   -1.8741    0.5463 H       1  LIG1        0.0643
     32 H          -1.8991    2.8818   -3.7456 H       1  LIG1        0.0635
     33 H         -12.1276   -6.5047    1.6882 H       1  LIG1        0.0635
     34 H         -13.1371   -2.4485    0.6020 H       1  LIG1        0.0635
     35 H          -5.4164   -2.5813   -2.0787 H       1  LIG1        0.0485
     36 H          -6.7030   -1.3743   -1.9176 H       1  LIG1        0.0485
     37 H          -4.6465    0.5382    0.6377 H       1  LIG1        0.0485
     38 H          -4.4098   -1.1463    1.1226 H       1  LIG1        0.0485
     39 H          -7.2083   -3.4269   -0.5971 H       1  LIG1        0.0486
     40 H          -5.7003   -3.2507    0.3057 H       1  LIG1        0.0486
     41 H          -6.5056   -0.2950    2.0719 H       1  LIG1        0.0486
     42 H          -7.0841    0.2219    0.4781 H       1  LIG1        0.0486
     43 H         -15.5725   -6.6168   -0.1848 H       1  LIG1        0.0347
     44 H         -13.8944   -7.0478    0.2220 H       1  LIG1        0.0347
     45 H         -14.2205   -5.8220   -1.0273 H       1  LIG1        0.0347
     46 H          -8.0831   -4.2699    0.8009 H       1  LIG1        0.1573
@<TRIPOS>BOND
     1     1     2   ar
     2     1     3   ar
     3     2     6   ar
     4     3     9   ar
     5     4     7   ar
     6     4    10   ar
     7     5     8   ar
     8     5    10   ar
     9     6    11   ar
    10     7    12   ar
    11     8    12   ar
    12     9    11   ar
    13     9    20   ar
    14    10    23    1
    15    11    25   ar
    16    12    26    1
    17    13    20   ar
    18    13    21    1
    19    13    25   ar
    20    14    22   am
    21    14    23   am
    22    14    24    2
    23    15    17    1
    24    15    21    1
    25    16    18    1
    26    16    21    1
    27    17    22    1
    28    18    22    1
    29    19    26    1
    30     1    27    1
    31     2    28    1
    32     3    29    1
    33     4    30    1
    34     5    31    1
    35     6    32    1
    36     7    33    1
    37     8    34    1
    38    15    35    1
    39    15    36    1
    40    16    37    1
    41    16    38    1
    42    17    39    1
    43    17    40    1
    44    18    41    1
    45    18    42    1
    46    19    43    1
    47    19    44    1
    48    19    45    1
    49    23    46    1
