@<TRIPOS>MOLECULE
ChEBML311777
 45 47 0 0 0
SMALL
USER_CHARGES

@<TRIPOS>ATOM
      1 C         -10.3602   -5.1645    0.9829 C.ar    1  LIG1       -0.0381
      2 C         -10.6922   -2.7753    1.1190 C.ar    1  LIG1       -0.0381
      3 C         -11.7262   -5.3419    0.7633 C.ar    1  LIG1       -0.0296
      4 C         -12.0583   -2.9526    0.8993 C.ar    1  LIG1       -0.0296
      5 C          -2.0200   -0.4110   -3.1844 C.ar    1  LIG1       -0.0355
      6 C          -2.3093    0.9222   -3.3953 C.ar    1  LIG1        0.0500
      7 C          -2.8510   -1.1286   -2.3421 C.ar    1  LIG1       -0.0072
      8 C          -9.8432   -3.8813    1.1609 C.ar    1  LIG1        0.0341
      9 C         -12.5752   -4.2359    0.7213 C.ar    1  LIG1        0.0848
     10 C          -3.9160   -0.4654   -1.7662 C.ar    1  LIG1        0.1458
     11 C          -7.9489   -2.4398    1.6342 C.2     1  LIG1        0.3050
     12 C          -4.8922   -0.7137    0.4602 C.3     1  LIG1        0.0289
     13 C          -5.8394   -1.9405   -1.5183 C.3     1  LIG1        0.0289
     14 C          -6.3618   -0.6950    0.8748 C.3     1  LIG1        0.0315
     15 C          -6.5408   -2.7870   -0.4551 C.3     1  LIG1        0.0315
     16 C          -2.5743   -2.5711   -2.0877 C.3     1  LIG1       -0.0362
     17 C         -14.6433   -5.1977    1.4360 C.3     1  LIG1        0.5271
     18 N          -3.3585    1.5455   -2.8184 N.ar    1  LIG1       -0.1572
     19 N          -4.1750    0.8403   -1.9903 N.ar    1  LIG1       -0.1350
     20 N          -4.7501   -1.1597   -0.9285 N.pl3   1  LIG1       -0.3110
     21 N          -6.9871   -2.0046    0.7030 N.am    1  LIG1       -0.2824
     22 N          -8.4725   -3.7032    1.3813 N.am    1  LIG1       -0.2690
     23 O          -8.2956   -1.7582    2.6044 O.2     1  LIG1       -0.2537
     24 O         -13.9081   -4.4090    0.5070 O.3     1  LIG1       -0.2541
     25 F         -14.1059   -5.1193    2.6719 F       1  LIG1       -0.1435
     26 F         -14.5961   -6.4909    1.0427 F       1  LIG1       -0.1435
     27 F         -15.9393   -4.8219    1.4741 F       1  LIG1       -0.1435
     28 H          -9.7078   -6.0335    1.0135 H       1  LIG1        0.0643
     29 H         -10.3005   -1.7706    1.2563 H       1  LIG1        0.0643
     30 H         -12.1230   -6.3440    0.6254 H       1  LIG1        0.0651
     31 H         -12.7146   -2.0872    0.8678 H       1  LIG1        0.0651
     32 H          -1.1665   -0.8729   -3.6692 H       1  LIG1        0.0643
     33 H          -1.6972    1.5382   -4.0436 H       1  LIG1        0.0859
     34 H          -4.4698    0.2895    0.5970 H       1  LIG1        0.0485
     35 H          -4.3277   -1.3979    1.1050 H       1  LIG1        0.0485
     36 H          -5.4506   -2.5996   -2.3038 H       1  LIG1        0.0485
     37 H          -6.5630   -1.2591   -1.9838 H       1  LIG1        0.0485
     38 H          -6.4505   -0.3676    1.9160 H       1  LIG1        0.0486
     39 H          -6.9284    0.0139    0.2588 H       1  LIG1        0.0486
     40 H          -7.4008   -3.2916   -0.9078 H       1  LIG1        0.0486
     41 H          -5.8596   -3.5570   -0.0732 H       1  LIG1        0.0486
     42 H          -1.9112   -2.6865   -1.2213 H       1  LIG1        0.0281
     43 H          -3.5008   -3.1270   -1.8925 H       1  LIG1        0.0281
     44 H          -2.0973   -3.0451   -2.9558 H       1  LIG1        0.0281
     45 H          -7.8994   -4.5386    1.4027 H       1  LIG1        0.1573
@<TRIPOS>BOND
     1     1     3   ar
     2     1     8   ar
     3     2     4   ar
     4     2     8   ar
     5     3     9   ar
     6     4     9   ar
     7     5     6   ar
     8     5     7   ar
     9     6    18   ar
    10     7    10   ar
    11     7    16    1
    12     8    22    1
    13     9    24    1
    14    10    19   ar
    15    10    20    1
    16    11    21   am
    17    11    22   am
    18    11    23    2
    19    12    14    1
    20    12    20    1
    21    13    15    1
    22    13    20    1
    23    14    21    1
    24    15    21    1
    25    17    24    1
    26    17    25    1
    27    17    26    1
    28    17    27    1
    29    18    19   ar
    30     1    28    1
    31     2    29    1
    32     3    30    1
    33     4    31    1
    34     5    32    1
    35     6    33    1
    36    12    34    1
    37    12    35    1
    38    13    36    1
    39    13    37    1
    40    14    38    1
    41    14    39    1
    42    15    40    1
    43    15    41    1
    44    16    42    1
    45    16    43    1
    46    16    44    1
    47    22    45    1
