@<TRIPOS>MOLECULE
ChEBML212774
 37 39 0 0 0
SMALL
USER_CHARGES

@<TRIPOS>ATOM
      1 C         -10.2741   -5.3234    0.9216 C.ar    1  LIG1       -0.0376
      2 C         -11.6252   -5.6652    1.0290 C.ar    1  LIG1       -0.0302
      3 C         -12.1855   -3.4377    1.8174 C.ar    1  LIG1       -0.0229
      4 C         -10.1041   -1.8737    1.9781 C.ar    1  LIG1       -0.0261
      5 C         -10.8290   -3.0702    1.7174 C.ar    1  LIG1        0.0004
      6 C          -9.9064   -4.0197    1.2727 C.ar    1  LIG1        0.0380
      7 C         -12.5679   -4.7385    1.4697 C.ar    1  LIG1        0.0720
      8 C          -8.7802   -2.1154    1.6923 C.ar    1  LIG1        0.0947
      9 C          -7.6685   -1.2163    1.7985 C.2     1  LIG1        0.2602
     10 C          -6.8189   -1.9970   -0.4427 C.3     1  LIG1        0.0539
     11 C          -5.2254   -1.1093    1.2088 C.3     1  LIG1        0.0539
     12 C          -6.2762   -1.0567   -1.5089 C.3     1  LIG1       -0.0183
     13 C          -4.6465   -0.1583    0.1701 C.3     1  LIG1       -0.0183
     14 C          -4.1944    0.0929   -2.2733 C.3     1  LIG1       -0.0453
     15 N          -8.6709   -3.4123    1.2672 N.ar    1  LIG1       -0.3101
     16 N          -6.6179   -1.4305    0.8971 N.am    1  LIG1       -0.2863
     17 N          -4.8225   -0.7600   -1.2072 N.4     1  LIG1        0.2462
     18 O          -7.6684   -0.3206    2.6411 O.2     1  LIG1       -0.2701
     19 O         -13.8782   -5.1017    1.5639 O.3     1  LIG1       -0.3609
     20 H          -9.5409   -6.0454    0.5781 H       1  LIG1        0.0643
     21 H         -11.9375   -6.6722    0.7623 H       1  LIG1        0.0651
     22 H         -12.9269   -2.7206    2.1596 H       1  LIG1        0.0657
     23 H         -10.5119   -0.9378    2.3367 H       1  LIG1        0.0651
     24 H          -7.8740   -2.1997   -0.6418 H       1  LIG1        0.0525
     25 H          -6.2935   -2.9593   -0.4709 H       1  LIG1        0.0525
     26 H          -4.6665   -2.0525    1.2259 H       1  LIG1        0.0525
     27 H          -5.1426   -0.6618    2.2041 H       1  LIG1        0.0525
     28 H          -6.3198   -1.5208   -2.4993 H       1  LIG1        0.0831
     29 H          -6.8109   -0.1003   -1.5206 H       1  LIG1        0.0831
     30 H          -5.1616    0.8089    0.1725 H       1  LIG1        0.0831
     31 H          -3.5742   -0.0092    0.3314 H       1  LIG1        0.0831
     32 H          -4.7144    1.0526   -2.2826 H       1  LIG1        0.0777
     33 H          -3.1399    0.2202   -2.0213 H       1  LIG1        0.0777
     34 H          -4.3101   -0.4253   -3.2272 H       1  LIG1        0.0777
     35 H          -7.8095   -3.8622    0.9888 H       1  LIG1        0.1529
     36 H          -4.3184   -1.6575   -1.2158 H       1  LIG1        0.2001
     37 H         -14.4099   -4.3558    1.8825 H       1  LIG1        0.2182
@<TRIPOS>BOND
     1     1     2   ar
     2     1     6   ar
     3     2     7   ar
     4     3     5   ar
     5     3     7   ar
     6     4     5   ar
     7     4     8   ar
     8     5     6   ar
     9     6    15   ar
    10     7    19    1
    11     8     9    1
    12     8    15   ar
    13     9    16   am
    14     9    18    2
    15    10    12    1
    16    10    16    1
    17    11    13    1
    18    11    16    1
    19    12    17    1
    20    13    17    1
    21    14    17    1
    22     1    20    1
    23     2    21    1
    24     3    22    1
    25     4    23    1
    26    10    24    1
    27    10    25    1
    28    11    26    1
    29    11    27    1
    30    12    28    1
    31    12    29    1
    32    13    30    1
    33    13    31    1
    34    14    32    1
    35    14    33    1
    36    14    34    1
    37    15    35    1
    38    17    36    1
    39    19    37    1
