@<TRIPOS>MOLECULE
ChEBML1318503
 29 31 0 0 0
SMALL
USER_CHARGES

@<TRIPOS>ATOM
      1 C         -12.7782   -4.4073    1.9093 C.ar    1  LIG1       -0.0615
      2 C         -12.1942   -5.1822    0.9040 C.ar    1  LIG1       -0.0596
      3 C         -12.1167   -3.2900    2.4372 C.ar    1  LIG1       -0.0522
      4 C         -10.9317   -4.8713    0.3898 C.ar    1  LIG1       -0.0306
      5 C          -9.8848   -1.9458    2.1908 C.ar    1  LIG1       -0.0158
      6 C          -2.9738   -1.0278   -2.5245 C.ar    1  LIG1       -0.0121
      7 C         -10.8463   -2.9586    1.9346 C.ar    1  LIG1        0.0081
      8 C         -10.2990   -3.7551    0.9339 C.ar    1  LIG1        0.0896
      9 C          -2.0830    0.0429   -2.7761 C.ar    1  LIG1        0.0582
     10 C          -8.8302   -2.1883    1.3413 C.ar    1  LIG1        0.1469
     11 C          -4.1200   -0.4602   -2.0186 C.ar    1  LIG1        0.1039
     12 C          -2.7485    1.1886   -2.4062 C.ar    1  LIG1        0.1389
     13 C          -5.3908   -1.0581   -1.5726 C.2     1  LIG1        0.0760
     14 C          -7.5958   -1.5057    1.1542 C.2     1  LIG1        0.2862
     15 N          -5.8249   -0.9193   -0.3621 N.2     1  LIG1       -0.1868
     16 N          -7.0077   -1.5357   -0.1278 N.am    1  LIG1       -0.2013
     17 O          -7.0203   -0.9005    2.0983 O.2     1  LIG1       -0.2676
     18 O          -9.0717   -3.2838    0.5747 O.2     1  LIG1       -0.3041
     19 O          -3.9909    0.8905   -1.9433 O.2     1  LIG1       -0.3001
     20 BR         -0.3613   -0.1685   -3.4762 Br      1  LIG1       -0.0472
     21 BR         -2.0780    2.9632   -2.5048 Br      1  LIG1       -0.0212
     22 H         -13.7614   -4.6739    2.2887 H       1  LIG1        0.0623
     23 H         -12.7308   -6.0434    0.5137 H       1  LIG1        0.0623
     24 H         -12.5835   -2.6969    3.2179 H       1  LIG1        0.0630
     25 H         -10.4734   -5.4673   -0.3901 H       1  LIG1        0.0650
     26 H          -9.9561   -1.1404    2.9087 H       1  LIG1        0.0660
     27 H          -2.8052   -2.0831   -2.6899 H       1  LIG1        0.0664
     28 H          -5.9560   -1.6340   -2.3293 H       1  LIG1        0.0885
     29 H          -7.4397   -2.0382   -0.8964 H       1  LIG1        0.1790
@<TRIPOS>BOND
     1     1     2   ar
     2     1     3   ar
     3     2     4   ar
     4     3     7   ar
     5     4     8   ar
     6     5     7   ar
     7     5    10   ar
     8     6     9   ar
     9     6    11   ar
    10     7     8   ar
    11     8    18   ar
    12     9    12   ar
    13     9    20    1
    14    10    14    1
    15    10    18   ar
    16    11    13    1
    17    11    19   ar
    18    12    19   ar
    19    12    21    1
    20    13    15    2
    21    14    16   am
    22    14    17    2
    23    15    16    1
    24     1    22    1
    25     2    23    1
    26     3    24    1
    27     4    25    1
    28     5    26    1
    29     6    27    1
    30    13    28    1
    31    16    29    1
