@<TRIPOS>MOLECULE
ChEBML52958
 56 59 0 0 0
SMALL
USER_CHARGES

@<TRIPOS>ATOM
      1 C          -2.3318    1.0002   -3.4492 C.ar    1  LIG1       -0.0418
      2 C         -12.0866   -3.4770    1.9717 C.ar    1  LIG1       -0.0527
      3 C         -12.5661   -4.6289    1.4197 C.ar    1  LIG1       -0.0560
      4 C          -1.7977   -0.2218   -3.0630 C.ar    1  LIG1       -0.0360
      5 C          -9.9625   -2.0200    2.2112 C.ar    1  LIG1       -0.0262
      6 C         -10.4143   -5.1236    0.4704 C.ar    1  LIG1       -0.0347
      7 C          -3.4775    1.4630   -2.8346 C.ar    1  LIG1        0.0292
      8 C         -10.7454   -3.1190    1.7825 C.ar    1  LIG1       -0.0022
      9 C         -11.7359   -5.4534    0.6703 C.ar    1  LIG1       -0.0207
     10 C          -9.9019   -3.9528    1.0227 C.ar    1  LIG1        0.0382
     11 C          -2.4420   -0.9390   -2.0636 C.ar    1  LIG1        0.0672
     12 C          -8.7052   -2.1936    1.7261 C.ar    1  LIG1        0.0947
     13 C          -3.6011   -0.4094   -1.4906 C.ar    1  LIG1        0.1412
     14 C          -7.5751   -1.2770    1.9394 C.2     1  LIG1        0.2599
     15 C          -4.4470   -0.1906    0.6318 C.3     1  LIG1        0.0288
     16 C          -5.5949   -1.4420   -1.0146 C.3     1  LIG1        0.0288
     17 C          -5.1518   -0.9132    1.7843 C.3     1  LIG1        0.0303
     18 C          -6.3754   -2.2472    0.0292 C.3     1  LIG1        0.0303
     19 C           0.5007   -2.2252   -1.7671 C.3     1  LIG1       -0.0470
     20 C          -0.8386   -4.3005   -2.1439 C.3     1  LIG1       -0.0470
     21 C         -12.2876   -6.7211    0.0707 C.3     1  LIG1        0.0683
     22 C          -0.8046   -2.7832   -2.3379 C.3     1  LIG1        0.0142
     23 N          -4.0714    0.7615   -1.8865 N.ar    1  LIG1       -0.2394
     24 N          -8.6593   -3.3652    0.9956 N.ar    1  LIG1       -0.3101
     25 N          -4.2632   -1.1178   -0.4906 N.pl3   1  LIG1       -0.3112
     26 N          -6.4164   -1.4708    1.2788 N.am    1  LIG1       -0.2936
     27 N          -1.9412   -2.1762   -1.6409 N.pl3   1  LIG1       -0.3393
     28 O          -7.6861   -0.3440    2.7120 O.2     1  LIG1       -0.2701
     29 O         -12.7996   -6.4471   -1.2351 O.3     1  LIG1       -0.3916
     30 H          -1.8550    1.5832   -4.2233 H       1  LIG1        0.0639
     31 H         -12.7394   -2.8428    2.5534 H       1  LIG1        0.0630
     32 H         -13.6003   -4.9026    1.5670 H       1  LIG1        0.0626
     33 H          -0.9018   -0.6053   -3.5286 H       1  LIG1        0.0644
     34 H         -10.3034   -1.1923    2.8154 H       1  LIG1        0.0651
     35 H          -9.7769   -5.7714   -0.1131 H       1  LIG1        0.0646
     36 H          -3.8944    2.4135   -3.1333 H       1  LIG1        0.0840
     37 H          -3.4747    0.1685    0.9689 H       1  LIG1        0.0485
     38 H          -5.0539    0.6551    0.3083 H       1  LIG1        0.0485
     39 H          -6.1316   -0.5198   -1.2375 H       1  LIG1        0.0485
     40 H          -5.4927   -2.0316   -1.9257 H       1  LIG1        0.0485
     41 H          -4.5177   -1.7185    2.1551 H       1  LIG1        0.0486
     42 H          -5.3574   -0.2073    2.5891 H       1  LIG1        0.0486
     43 H          -5.8768   -3.2003    0.2055 H       1  LIG1        0.0486
     44 H          -7.3903   -2.4235   -0.3268 H       1  LIG1        0.0486
     45 H           1.3464   -2.6769   -2.2856 H       1  LIG1        0.0249
     46 H           0.5249   -1.1443   -1.9052 H       1  LIG1        0.0249
     47 H           0.5607   -2.4570   -0.7038 H       1  LIG1        0.0249
     48 H          -0.7787   -4.5323   -1.0805 H       1  LIG1        0.0249
     49 H          -1.7685   -4.6980   -2.5505 H       1  LIG1        0.0249
     50 H           0.0071   -4.7521   -2.6625 H       1  LIG1        0.0249
     51 H         -11.4943   -7.4653    0.0010 H       1  LIG1        0.0615
     52 H         -13.0895   -7.1029    0.7025 H       1  LIG1        0.0615
     53 H          -0.8645   -2.5514   -3.4012 H       1  LIG1        0.0497
     54 H          -7.8781   -3.7167    0.5405 H       1  LIG1        0.1529
     55 H          -2.3469   -2.6315   -0.8864 H       1  LIG1        0.1469
     56 H         -13.1418   -7.2822   -1.5821 H       1  LIG1        0.2105
@<TRIPOS>BOND
     1     1     4   ar
     2     1     7   ar
     3     2     3   ar
     4     2     8   ar
     5     3     9   ar
     6     4    11   ar
     7     5     8   ar
     8     5    12   ar
     9     6     9   ar
    10     6    10   ar
    11     7    23   ar
    12     8    10   ar
    13     9    21    1
    14    10    24   ar
    15    11    13   ar
    16    11    27    1
    17    12    14    1
    18    12    24   ar
    19    13    23   ar
    20    13    25    1
    21    14    26   am
    22    14    28    2
    23    15    17    1
    24    15    25    1
    25    16    18    1
    26    16    25    1
    27    17    26    1
    28    18    26    1
    29    19    22    1
    30    20    22    1
    31    21    29    1
    32    22    27    1
    33     1    30    1
    34     2    31    1
    35     3    32    1
    36     4    33    1
    37     5    34    1
    38     6    35    1
    39     7    36    1
    40    15    37    1
    41    15    38    1
    42    16    39    1
    43    16    40    1
    44    17    41    1
    45    17    42    1
    46    18    43    1
    47    18    44    1
    48    19    45    1
    49    19    46    1
    50    19    47    1
    51    20    48    1
    52    20    49    1
    53    20    50    1
    54    21    51    1
    55    21    52    1
    56    22    53    1
    57    24    54    1
    58    27    55    1
    59    29    56    1
