@<TRIPOS>MOLECULE
ChEBML942917
 44 46 0 0 0
SMALL
USER_CHARGES

@<TRIPOS>ATOM
      1 C          -1.4989   -0.0322   -3.1074 C.ar    1  LIG1       -0.0578
      2 C          -2.0220   -0.6056   -1.9485 C.ar    1  LIG1       -0.0405
      3 C          -2.1821    1.0051   -3.7421 C.ar    1  LIG1       -0.0317
      4 C          -9.3870   -2.7702    0.6470 C.ar    1  LIG1       -0.0389
      5 C          -3.9120    0.8954   -2.0591 C.ar    1  LIG1       -0.0103
      6 C         -10.5537   -3.5072    0.9326 C.ar    1  LIG1       -0.0368
      7 C          -3.2286   -0.1418   -1.4243 C.ar    1  LIG1        0.0351
      8 C          -3.3887    1.4689   -3.2180 C.ar    1  LIG1        0.0764
      9 C          -8.8020   -2.3132    1.8176 C.ar    1  LIG1        0.0750
     10 C         -10.8055   -3.5813    2.2749 C.ar    1  LIG1       -0.0068
     11 C          -7.6186   -1.5312    1.9792 C.2     1  LIG1        0.2525
     12 C          -4.9408   -0.3876    0.4067 C.2     1  LIG1        0.2335
     13 C         -11.5856   -4.2311    0.1518 C.3     1  LIG1       -0.0267
     14 C         -12.0240   -4.3495    2.6187 C.3     1  LIG1       -0.0209
     15 C         -12.7029   -4.4646    1.2181 C.3     1  LIG1       -0.0446
     16 C          -6.2495   -3.3263    0.8648 C.3     1  LIG1        0.0036
     17 C          -5.2833    2.9060   -3.2476 C.3     1  LIG1        0.0422
     18 C          -5.1352   -1.2601    1.6316 C.3     1  LIG1        0.0913
     19 N          -3.7589   -0.7237   -0.2483 N.am    1  LIG1       -0.2840
     20 N          -6.3740   -2.0250    1.5062 N.am    1  LIG1       -0.2913
     21 O          -7.7227   -0.4132    2.5297 O.2     1  LIG1       -0.2710
     22 O          -5.7527    0.4728    0.0812 O.2     1  LIG1       -0.2754
     23 O          -4.0558    2.4809   -3.8374 O.3     1  LIG1       -0.3492
     24 S          -9.6823   -2.7918    3.2292 S.2     1  LIG1       -0.0887
     25 H          -0.5590   -0.3930   -3.5146 H       1  LIG1        0.0624
     26 H          -1.4812   -1.4136   -1.4626 H       1  LIG1        0.0642
     27 H          -1.7688    1.4477   -4.6441 H       1  LIG1        0.0650
     28 H          -8.9910   -2.5787   -0.3421 H       1  LIG1        0.0640
     29 H          -4.8529    1.2608   -1.6538 H       1  LIG1        0.0670
     30 H         -11.9622   -3.6513   -0.6954 H       1  LIG1        0.0316
     31 H         -11.1935   -5.1886   -0.2071 H       1  LIG1        0.0316
     32 H         -11.7642   -5.3417    3.0017 H       1  LIG1        0.0322
     33 H         -12.6736   -3.8367    3.3330 H       1  LIG1        0.0322
     34 H         -13.4571   -3.6721    1.1222 H       1  LIG1        0.0273
     35 H         -13.2143   -5.4224    1.0812 H       1  LIG1        0.0273
     36 H          -6.3925   -3.2284   -0.2145 H       1  LIG1        0.0433
     37 H          -7.0017   -4.0153    1.2584 H       1  LIG1        0.0433
     38 H          -5.2575   -3.7464    1.0516 H       1  LIG1        0.0433
     39 H          -5.7114    3.7179   -3.8406 H       1  LIG1        0.0535
     40 H          -5.0992    3.2450   -2.2252 H       1  LIG1        0.0535
     41 H          -5.9796    2.0641   -3.2304 H       1  LIG1        0.0535
     42 H          -5.1811   -0.6340    2.5283 H       1  LIG1        0.0570
     43 H          -4.2844   -1.9429    1.7209 H       1  LIG1        0.0570
     44 H          -3.2014   -1.4739    0.1546 H       1  LIG1        0.1557
@<TRIPOS>BOND
     1     1     2   ar
     2     1     3   ar
     3     2     7   ar
     4     3     8   ar
     5     4     6   ar
     6     4     9   ar
     7     5     7   ar
     8     5     8   ar
     9     6    10   ar
    10     6    13    1
    11     7    19    1
    12     8    23    1
    13     9    11    1
    14     9    24   ar
    15    10    14    1
    16    10    24   ar
    17    11    20   am
    18    11    21    2
    19    12    18    1
    20    12    19   am
    21    12    22    2
    22    13    15    1
    23    14    15    1
    24    16    20    1
    25    17    23    1
    26    18    20    1
    27     1    25    1
    28     2    26    1
    29     3    27    1
    30     4    28    1
    31     5    29    1
    32    13    30    1
    33    13    31    1
    34    14    32    1
    35    14    33    1
    36    15    34    1
    37    15    35    1
    38    16    36    1
    39    16    37    1
    40    16    38    1
    41    17    39    1
    42    17    40    1
    43    17    41    1
    44    18    42    1
    45    18    43    1
    46    19    44    1
