@<TRIPOS>MOLECULE
ChEBML198663
 48 50 0 0 0
SMALL
USER_CHARGES

@<TRIPOS>ATOM
      1 C          -2.2356    0.9600   -3.4727 C.ar    1  LIG1       -0.0422
      2 C         -11.6334   -5.3518    0.8036 C.ar    1  LIG1       -0.0572
      3 C         -11.9784   -2.9639    0.9312 C.ar    1  LIG1       -0.0572
      4 C         -10.2672   -5.1657    1.0142 C.ar    1  LIG1       -0.0404
      5 C         -10.6121   -2.7778    1.1420 C.ar    1  LIG1       -0.0404
      6 C          -1.9711   -0.3830   -3.2287 C.ar    1  LIG1       -0.0384
      7 C          -3.3301    1.5304   -2.8429 C.ar    1  LIG1        0.0292
      8 C         -12.4891   -4.2509    0.7620 C.ar    1  LIG1       -0.0479
      9 C          -9.7566   -3.8788    1.1834 C.ar    1  LIG1        0.0340
     10 C          -2.7974   -1.1044   -2.3742 C.ar    1  LIG1        0.0809
     11 C          -3.8666   -0.4416   -1.7934 C.ar    1  LIG1        0.1388
     12 C          -7.8680   -2.4242    1.6393 C.2     1  LIG1        0.3050
     13 C          -4.8284   -0.6856    0.4398 C.3     1  LIG1        0.0289
     14 C          -5.7798   -1.9268   -1.5276 C.3     1  LIG1        0.0289
     15 C          -6.2955   -0.6735    0.8629 C.3     1  LIG1        0.0315
     16 C          -6.4702   -2.7725   -0.4566 C.3     1  LIG1        0.0315
     17 C         -15.7976   -4.6600   -1.1852 C.3     1  LIG1       -0.0651
     18 C         -13.9498   -4.4500    0.5367 C.3     1  LIG1       -0.0281
     19 C         -14.3133   -4.4227   -0.9556 C.3     1  LIG1       -0.0521
     20 N          -4.1553    0.8618   -2.0065 N.ar    1  LIG1       -0.2398
     21 N          -4.6917   -1.1371   -0.9477 N.pl3   1  LIG1       -0.3115
     22 N          -6.9142   -1.9876    0.7006 N.am    1  LIG1       -0.2824
     23 N          -8.3857   -3.6917    1.3951 N.am    1  LIG1       -0.2691
     24 O          -8.2129   -1.7404    2.6084 O.2     1  LIG1       -0.2537
     25 CL         -2.4550   -2.7671   -2.0826 Cl      1  LIG1       -0.0805
     26 H          -1.6053    1.5420   -4.1355 H       1  LIG1        0.0639
     27 H         -12.0223   -6.3579    0.6705 H       1  LIG1        0.0626
     28 H         -12.6377   -2.1005    0.8997 H       1  LIG1        0.0626
     29 H          -9.6097   -6.0310    1.0452 H       1  LIG1        0.0642
     30 H         -10.2246   -1.7705    1.2715 H       1  LIG1        0.0642
     31 H          -1.1177   -0.8519   -3.7118 H       1  LIG1        0.0640
     32 H          -3.5798    2.5745   -3.0006 H       1  LIG1        0.0840
     33 H          -4.4111    0.3207    0.5696 H       1  LIG1        0.0485
     34 H          -4.2560   -1.3636    1.0843 H       1  LIG1        0.0485
     35 H          -5.3917   -2.5870   -2.3126 H       1  LIG1        0.0485
     36 H          -6.5101   -1.2517   -1.9920 H       1  LIG1        0.0485
     37 H          -6.3802   -0.3422    1.9032 H       1  LIG1        0.0486
     38 H          -6.8699    0.0292    0.2471 H       1  LIG1        0.0486
     39 H          -7.3296   -3.2842   -0.9019 H       1  LIG1        0.0486
     40 H          -5.7822   -3.5368   -0.0753 H       1  LIG1        0.0486
     41 H         -16.1111   -5.6202   -0.7633 H       1  LIG1        0.0230
     42 H         -16.3971   -3.8688   -0.7239 H       1  LIG1        0.0230
     43 H         -16.0181   -4.6721   -2.2572 H       1  LIG1        0.0230
     44 H         -14.2813   -5.4088    0.9707 H       1  LIG1        0.0316
     45 H         -14.5322   -3.6748    1.0633 H       1  LIG1        0.0316
     46 H         -14.0333   -3.4550   -1.3894 H       1  LIG1        0.0267
     47 H         -13.7402   -5.1883   -1.4927 H       1  LIG1        0.0267
     48 H          -7.8075   -4.5237    1.4168 H       1  LIG1        0.1573
@<TRIPOS>BOND
     1     1     6   ar
     2     1     7   ar
     3     2     4   ar
     4     2     8   ar
     5     3     5   ar
     6     3     8   ar
     7     4     9   ar
     8     5     9   ar
     9     6    10   ar
    10     7    20   ar
    11     8    18    1
    12     9    23    1
    13    10    11   ar
    14    10    25    1
    15    11    20   ar
    16    11    21    1
    17    12    22   am
    18    12    23   am
    19    12    24    2
    20    13    15    1
    21    13    21    1
    22    14    16    1
    23    14    21    1
    24    15    22    1
    25    16    22    1
    26    17    19    1
    27    18    19    1
    28     1    26    1
    29     2    27    1
    30     3    28    1
    31     4    29    1
    32     5    30    1
    33     6    31    1
    34     7    32    1
    35    13    33    1
    36    13    34    1
    37    14    35    1
    38    14    36    1
    39    15    37    1
    40    15    38    1
    41    16    39    1
    42    16    40    1
    43    17    41    1
    44    17    42    1
    45    17    43    1
    46    18    44    1
    47    18    45    1
    48    19    46    1
    49    19    47    1
    50    23    48    1
