@<TRIPOS>MOLECULE
ChEBML613748
 50 52 0 0 0
SMALL
USER_CHARGES

@<TRIPOS>ATOM
      1 C         -11.0202   -2.9160    1.2217 C.ar    1  LIG1       -0.0388
      2 C         -10.3141   -5.2263    1.2554 C.ar    1  LIG1       -0.0388
      3 C         -12.3371   -3.3151    1.4498 C.ar    1  LIG1       -0.0378
      4 C         -11.6311   -5.6254    1.4836 C.ar    1  LIG1       -0.0378
      5 C          -6.2286   -1.0458   -0.2846 C.ar    1  LIG1        0.0094
      6 C          -4.6679   -2.9776    0.7363 C.ar    1  LIG1        0.1180
      7 C         -10.0086   -3.8716    1.1244 C.ar    1  LIG1        0.0330
      8 C         -12.6424   -4.6698    1.5808 C.ar    1  LIG1        0.0431
      9 C          -6.7405   -2.0836    0.4674 C.ar    1  LIG1        0.1310
     10 C          -4.8625   -1.0656   -0.4775 C.ar    1  LIG1        0.1217
     11 C          -8.1658   -2.1649    0.7350 C.2     1  LIG1        0.2660
     12 C          -1.6237    0.3825   -4.5155 C.3     1  LIG1       -0.0532
     13 C          -2.2511   -0.9866   -4.2691 C.3     1  LIG1       -0.0515
     14 C          -1.2822    1.0894   -3.2069 C.3     1  LIG1       -0.0515
     15 C          -3.4668   -0.8920   -3.3488 C.3     1  LIG1       -0.0347
     16 C          -2.4972    1.1870   -2.2858 C.3     1  LIG1       -0.0347
     17 C          -3.1167   -0.1916   -2.0313 C.3     1  LIG1        0.0211
     18 C         -15.2807   -4.4862   -0.4654 C.3     1  LIG1        0.0225
     19 N          -5.9862   -3.0699    0.9951 N.ar    1  LIG1       -0.2312
     20 N          -4.0486   -2.0196    0.0204 N.ar    1  LIG1       -0.2217
     21 N          -8.6701   -3.4659    0.8928 N.am    1  LIG1       -0.2800
     22 N         -13.9903   -5.0782    1.8145 N.pl3   1  LIG1       -0.2633
     23 N          -4.3098   -0.0415   -1.2266 N.pl3   1  LIG1       -0.3265
     24 O          -8.8800   -1.1526    0.7829 O.2     1  LIG1       -0.2697
     25 O         -13.8719   -6.6593   -0.2197 O.2     1  LIG1       -0.4814
     26 O         -16.0514   -6.4894    1.0316 O.2     1  LIG1       -0.4814
     27 S         -14.8300   -5.8808    0.5428 S.O2    1  LIG1       -0.1957
     28 H         -10.7936   -1.8576    1.1209 H       1  LIG1        0.0643
     29 H          -9.5339   -5.9797    1.1813 H       1  LIG1        0.0643
     30 H         -13.1179   -2.5626    1.5242 H       1  LIG1        0.0643
     31 H         -11.8585   -6.6835    1.5841 H       1  LIG1        0.0643
     32 H          -6.8612   -0.2676   -0.6953 H       1  LIG1        0.0684
     33 H          -4.0383   -3.7569    1.1480 H       1  LIG1        0.1063
     34 H          -0.7175    0.2694   -5.1211 H       1  LIG1        0.0266
     35 H          -2.3192    1.0030   -5.0942 H       1  LIG1        0.0266
     36 H          -2.5465   -1.4339   -5.2248 H       1  LIG1        0.0267
     37 H          -1.5055   -1.6545   -3.8204 H       1  LIG1        0.0267
     38 H          -0.4798    0.5436   -2.6952 H       1  LIG1        0.0267
     39 H          -0.8999    2.0940   -3.4195 H       1  LIG1        0.0267
     40 H          -4.2696   -0.3477   -3.8637 H       1  LIG1        0.0285
     41 H          -3.8541   -1.8982   -3.1471 H       1  LIG1        0.0285
     42 H          -2.2009    1.6466   -1.3350 H       1  LIG1        0.0285
     43 H          -3.2416    1.8570   -2.7357 H       1  LIG1        0.0285
     44 H          -2.4009   -0.8107   -1.4768 H       1  LIG1        0.0503
     45 H         -15.8336   -4.8520   -1.3320 H       1  LIG1        0.0442
     46 H         -15.9029   -3.8171    0.1308 H       1  LIG1        0.0442
     47 H         -14.3671   -3.9798   -0.7806 H       1  LIG1        0.0442
     48 H          -7.9853   -4.2155    0.8333 H       1  LIG1        0.1560
     49 H         -14.5576   -4.3905    2.3373 H       1  LIG1        0.1702
     50 H          -4.7615    0.8646   -1.2127 H       1  LIG1        0.1483
@<TRIPOS>BOND
     1     1     3   ar
     2     1     7   ar
     3     2     4   ar
     4     2     7   ar
     5     3     8   ar
     6     4     8   ar
     7     5     9   ar
     8     5    10   ar
     9     6    19   ar
    10     6    20   ar
    11     7    21    1
    12     8    22    1
    13     9    11    1
    14     9    19   ar
    15    10    20   ar
    16    10    23    1
    17    11    21   am
    18    11    24    2
    19    12    13    1
    20    12    14    1
    21    13    15    1
    22    14    16    1
    23    15    17    1
    24    16    17    1
    25    17    23    1
    26    18    27    1
    27    22    27    1
    28    25    27    2
    29    26    27    2
    30     1    28    1
    31     2    29    1
    32     3    30    1
    33     4    31    1
    34     5    32    1
    35     6    33    1
    36    12    34    1
    37    12    35    1
    38    13    36    1
    39    13    37    1
    40    14    38    1
    41    14    39    1
    42    15    40    1
    43    15    41    1
    44    16    42    1
    45    16    43    1
    46    17    44    1
    47    18    45    1
    48    18    46    1
    49    18    47    1
    50    21    48    1
    51    22    49    1
    52    23    50    1
