@<TRIPOS>MOLECULE
ChEBML751699
 36 38 0 0 0
SMALL
USER_CHARGES

@<TRIPOS>ATOM
      1 C         -12.5033   -4.9015    1.5100 C.ar    1  LIG1       -0.0615
      2 C         -11.6270   -5.5915    0.6684 C.ar    1  LIG1       -0.0596
      3 C         -12.1113   -3.7157    2.1462 C.ar    1  LIG1       -0.0522
      4 C          -1.7568    0.1327   -1.7217 C.ar    1  LIG1       -0.0556
      5 C          -3.7593    0.8076   -2.8928 C.ar    1  LIG1       -0.0556
      6 C         -10.3308   -5.1246    0.4313 C.ar    1  LIG1       -0.0306
      7 C          -1.0595    0.1059   -2.9294 C.ar    1  LIG1       -0.0260
      8 C          -3.0620    0.7809   -4.1006 C.ar    1  LIG1       -0.0260
      9 C         -10.0581   -2.1068    2.3591 C.ar    1  LIG1       -0.0176
     10 C         -10.8120   -3.2277    1.9219 C.ar    1  LIG1        0.0080
     11 C          -3.1068    0.4835   -1.7034 C.ar    1  LIG1       -0.0379
     12 C          -9.9699   -3.9436    1.0773 C.ar    1  LIG1        0.0895
     13 C          -1.7121    0.4301   -4.1189 C.ar    1  LIG1        0.1228
     14 C          -8.8240   -2.2122    1.7605 C.ar    1  LIG1        0.1282
     15 C          -7.6700   -1.3824    1.8298 C.2     1  LIG1        0.2120
     16 C          -4.5054   -0.8095   -0.0603 C.2     1  LIG1        0.2657
     17 C          -3.8606    0.5134   -0.3989 C.3     1  LIG1        0.0589
     18 C          -6.3842   -1.7372    1.0400 C.3     1  LIG1        0.1217
     19 O          -7.6359   -0.3305    2.5301 O.2     1  LIG1       -0.2892
     20 O          -4.0679   -1.9107   -0.3655 O.2     1  LIG1       -0.2661
     21 O          -8.7603   -3.3232    0.9810 O.2     1  LIG1       -0.3059
     22 O          -5.6616   -0.5852    0.6465 O.3     1  LIG1       -0.3073
     23 F          -1.0418    0.4069   -5.2784 F       1  LIG1       -0.2069
     24 H         -13.5055   -5.2892    1.6745 H       1  LIG1        0.0623
     25 H         -11.9588   -6.5089    0.1884 H       1  LIG1        0.0623
     26 H         -12.8033   -3.1901    2.7972 H       1  LIG1        0.0630
     27 H          -1.2401   -0.1221   -0.8002 H       1  LIG1        0.0627
     28 H          -4.8109    1.0825   -2.8883 H       1  LIG1        0.0627
     29 H          -9.6465   -5.6543   -0.2207 H       1  LIG1        0.0650
     30 H          -0.0085   -0.1665   -2.9438 H       1  LIG1        0.0653
     31 H          -3.5698    1.0327   -5.0268 H       1  LIG1        0.0653
     32 H         -10.3792   -1.3217    3.0295 H       1  LIG1        0.0659
     33 H          -3.1749    0.7867    0.4122 H       1  LIG1        0.0423
     34 H          -4.6414    1.2817   -0.4470 H       1  LIG1        0.0423
     35 H          -6.6695   -2.2763    0.1327 H       1  LIG1        0.0661
     36 H          -5.7340   -2.3556    1.6648 H       1  LIG1        0.0661
@<TRIPOS>BOND
     1     1     2   ar
     2     1     3   ar
     3     2     6   ar
     4     3    10   ar
     5     4     7   ar
     6     4    11   ar
     7     5     8   ar
     8     5    11   ar
     9     6    12   ar
    10     7    13   ar
    11     8    13   ar
    12     9    10   ar
    13     9    14   ar
    14    10    12   ar
    15    11    17    1
    16    12    21   ar
    17    13    23    1
    18    14    15    1
    19    14    21   ar
    20    15    18    1
    21    15    19    2
    22    16    17    1
    23    16    20    2
    24    16    22    1
    25    18    22    1
    26     1    24    1
    27     2    25    1
    28     3    26    1
    29     4    27    1
    30     5    28    1
    31     6    29    1
    32     7    30    1
    33     8    31    1
    34     9    32    1
    35    17    33    1
    36    17    34    1
    37    18    35    1
    38    18    36    1
