@<TRIPOS>MOLECULE
ChEBML715788
 57 60 0 0 0
SMALL
USER_CHARGES

@<TRIPOS>ATOM
      1 C          -2.2080    0.6559   -3.5029 C.ar    1  LIG1       -0.0431
      2 C          -1.9332   -0.5988   -2.9705 C.ar    1  LIG1       -0.0449
      3 C         -12.2841   -3.7616    1.7310 C.ar    1  LIG1       -0.0482
      4 C         -11.4961   -5.7899    0.6812 C.ar    1  LIG1       -0.0482
      5 C         -10.9997   -3.2229    1.6541 C.ar    1  LIG1       -0.0402
      6 C         -10.2117   -5.2511    0.6043 C.ar    1  LIG1       -0.0402
      7 C          -3.2538    1.3791   -2.9523 C.ar    1  LIG1        0.0291
      8 C          -7.0122   -1.6691    1.2441 C.ar    1  LIG1        0.0159
      9 C         -12.5322   -5.0452    1.2446 C.ar    1  LIG1        0.0556
     10 C          -2.7018   -1.0851   -1.9187 C.ar    1  LIG1        0.0957
     11 C          -9.9636   -3.9677    1.0908 C.ar    1  LIG1        0.0314
     12 C          -6.3950   -0.7752    2.1205 C.ar    1  LIG1        0.0525
     13 C          -3.7253   -0.2838   -1.4390 C.ar    1  LIG1        0.1322
     14 C          -7.9737   -2.4935    1.8195 C.ar    1  LIG1        0.1306
     15 C          -7.6473   -1.5871    3.8677 C.ar    1  LIG1        0.2178
     16 C          -6.7257   -1.7679   -0.2309 C.3     1  LIG1       -0.0067
     17 C          -5.3540    0.2253    1.6782 C.3     1  LIG1        0.0060
     18 C          -5.2460   -2.0047   -0.5498 C.3     1  LIG1        0.0171
     19 C          -4.1477   -0.4120    0.9842 C.3     1  LIG1        0.0184
     20 C          -7.2997   -0.6030    6.1195 C.3     1  LIG1        0.0026
     21 C          -8.9817   -2.4220    5.7866 C.3     1  LIG1        0.0026
     22 C         -13.9049   -5.6222    1.3268 C.3     1  LIG1        0.4160
     23 C          -2.4037   -2.4309   -1.3505 C.3     1  LIG1        0.4193
     24 N          -4.0223    0.9401   -1.9306 N.ar    1  LIG1       -0.2408
     25 N          -6.7057   -0.7268    3.4411 N.ar    1  LIG1       -0.2195
     26 N          -8.3134   -2.4819    3.1240 N.ar    1  LIG1       -0.1993
     27 N          -4.4839   -0.7584   -0.4030 N.pl3   1  LIG1       -0.3146
     28 N          -8.6708   -3.4248    1.0114 N.pl3   1  LIG1       -0.2992
     29 N          -7.9688   -1.5411    5.2415 N.pl3   1  LIG1       -0.3062
     30 F         -14.8179   -4.7838    1.9009 F       1  LIG1       -0.1661
     31 F         -14.4353   -5.9468    0.1106 F       1  LIG1       -0.1661
     32 F         -13.9487   -6.7705    2.0634 F       1  LIG1       -0.1661
     33 F          -1.3569   -3.0632   -1.9595 F       1  LIG1       -0.1660
     34 F          -2.0802   -2.4053   -0.0235 F       1  LIG1       -0.1660
     35 F          -3.4593   -3.2902   -1.4530 F       1  LIG1       -0.1660
     36 H          -1.6217    1.0552   -4.3224 H       1  LIG1        0.0639
     37 H          -1.1189   -1.1892   -3.3816 H       1  LIG1        0.0631
     38 H         -13.0851   -3.1748    2.1724 H       1  LIG1        0.0629
     39 H         -11.6796   -6.7913    0.3012 H       1  LIG1        0.0629
     40 H         -10.8170   -2.2223    2.0375 H       1  LIG1        0.0642
     41 H          -9.4117   -5.8407    0.1640 H       1  LIG1        0.0642
     42 H          -3.5098    2.3629   -3.3320 H       1  LIG1        0.0840
     43 H          -7.2770   -2.5920   -0.6953 H       1  LIG1        0.0334
     44 H          -7.0981   -0.8562   -0.7149 H       1  LIG1        0.0334
     45 H          -5.8373    0.9796    1.0457 H       1  LIG1        0.0348
     46 H          -4.9874    0.7568    2.5660 H       1  LIG1        0.0348
     47 H          -4.8249   -2.7949    0.0844 H       1  LIG1        0.0472
     48 H          -5.1502   -2.3541   -1.5858 H       1  LIG1        0.0472
     49 H          -3.3155    0.3032    0.9758 H       1  LIG1        0.0473
     50 H          -3.7942   -1.2950    1.5309 H       1  LIG1        0.0473
     51 H          -7.6752   -0.7107    7.1405 H       1  LIG1        0.0433
     52 H          -7.4795    0.4222    5.7848 H       1  LIG1        0.0433
     53 H          -6.2222   -0.7879    6.1195 H       1  LIG1        0.0433
     54 H          -9.0949   -2.2459    6.8595 H       1  LIG1        0.0433
     55 H          -8.6988   -3.4664    5.6294 H       1  LIG1        0.0433
     56 H          -9.9427   -2.2417    5.2973 H       1  LIG1        0.0433
     57 H          -8.1262   -3.7601    0.2253 H       1  LIG1        0.1543
@<TRIPOS>BOND
     1     1     2   ar
     2     1     7   ar
     3     2    10   ar
     4     3     5   ar
     5     3     9   ar
     6     4     6   ar
     7     4     9   ar
     8     5    11   ar
     9     6    11   ar
    10     7    24   ar
    11     8    12   ar
    12     8    14   ar
    13     8    16    1
    14     9    22    1
    15    10    13   ar
    16    10    23    1
    17    11    28    1
    18    12    17    1
    19    12    25   ar
    20    13    24   ar
    21    13    27    1
    22    14    26   ar
    23    14    28    1
    24    15    25   ar
    25    15    26   ar
    26    15    29    1
    27    16    18    1
    28    17    19    1
    29    18    27    1
    30    19    27    1
    31    20    29    1
    32    21    29    1
    33    22    30    1
    34    22    31    1
    35    22    32    1
    36    23    33    1
    37    23    34    1
    38    23    35    1
    39     1    36    1
    40     2    37    1
    41     3    38    1
    42     4    39    1
    43     5    40    1
    44     6    41    1
    45     7    42    1
    46    16    43    1
    47    16    44    1
    48    17    45    1
    49    17    46    1
    50    18    47    1
    51    18    48    1
    52    19    49    1
    53    19    50    1
    54    20    51    1
    55    20    52    1
    56    20    53    1
    57    21    54    1
    58    21    55    1
    59    21    56    1
    60    28    57    1
