@<TRIPOS>MOLECULE
ChEBML787544
 48 51 0 0 0
SMALL
USER_CHARGES

@<TRIPOS>ATOM
      1 C         -12.1103   -3.4263    1.6973 C.ar    1  LIG1       -0.0517
      2 C         -12.5069   -4.5639    1.0527 C.ar    1  LIG1       -0.0582
      3 C          -2.5170    0.7676   -3.5296 C.ar    1  LIG1       -0.0252
      4 C          -2.9366    1.5223   -2.4454 C.ar    1  LIG1        0.0322
      5 C          -2.7150   -0.6039   -3.4984 C.ar    1  LIG1        0.0322
      6 C         -10.7758   -3.0194    1.6258 C.ar    1  LIG1        0.0113
      7 C         -11.5929   -5.3167    0.3282 C.ar    1  LIG1       -0.0455
      8 C         -10.0232   -1.8916    2.1738 C.ar    1  LIG1       -0.0049
      9 C         -10.2709   -4.9357    0.2499 C.ar    1  LIG1       -0.0167
     10 C          -9.8450   -3.7787    0.8927 C.ar    1  LIG1        0.0931
     11 C          -8.7440   -2.0496    1.7463 C.ar    1  LIG1        0.1482
     12 C          -3.6844   -0.3982   -1.4212 C.ar    1  LIG1        0.2162
     13 C          -7.6301   -1.1426    2.0575 C.2     1  LIG1        0.2697
     14 C          -4.6076    0.0701    0.6194 C.3     1  LIG1        0.0302
     15 C          -5.5581   -1.5595   -0.8074 C.3     1  LIG1        0.0302
     16 C          -5.2597   -0.5304    1.8690 C.3     1  LIG1        0.0304
     17 C          -6.2714   -2.2719    0.3522 C.3     1  LIG1        0.0304
     18 C         -12.0502   -6.5684   -0.3757 C.3     1  LIG1       -0.0394
     19 C         -10.5589   -0.7793    3.0380 C.3     1  LIG1       -0.0363
     20 C          -9.2903   -5.7679   -0.5354 C.3     1  LIG1       -0.0369
     21 N          -3.5099    0.9152   -1.4196 N.ar    1  LIG1       -0.2235
     22 N          -3.2903   -1.1489   -2.4394 N.ar    1  LIG1       -0.2235
     23 N          -4.2875   -1.0010   -0.3310 N.pl3   1  LIG1       -0.2969
     24 N          -6.4379   -1.3066    1.4505 N.am    1  LIG1       -0.2929
     25 O          -7.7841   -0.2441    2.8630 O.2     1  LIG1       -0.2693
     26 O          -8.6501   -3.1648    0.9922 O.2     1  LIG1       -0.3036
     27 H         -12.8255   -2.8441    2.2594 H       1  LIG1        0.0630
     28 H         -13.5384   -4.8792    1.1070 H       1  LIG1        0.0626
     29 H          -2.0464    1.2380   -4.3803 H       1  LIG1        0.0655
     30 H          -2.7975    2.5934   -2.4384 H       1  LIG1        0.0841
     31 H          -2.4000   -1.2206   -4.3273 H       1  LIG1        0.0841
     32 H          -5.2964    0.7749    0.1536 H       1  LIG1        0.0486
     33 H          -3.6923    0.5903    0.9019 H       1  LIG1        0.0486
     34 H          -6.1888   -0.7552   -1.1860 H       1  LIG1        0.0486
     35 H          -5.3634   -2.2746   -1.6066 H       1  LIG1        0.0486
     36 H          -5.5673    0.2693    2.5428 H       1  LIG1        0.0486
     37 H          -4.5498   -1.1847    2.3750 H       1  LIG1        0.0486
     38 H          -5.6717   -3.1159    0.6930 H       1  LIG1        0.0486
     39 H          -7.2484   -2.6247    0.0222 H       1  LIG1        0.0486
     40 H         -11.9519   -7.4202    0.2973 H       1  LIG1        0.0280
     41 H         -13.0932   -6.4580   -0.6721 H       1  LIG1        0.0280
     42 H         -11.4362   -6.7323   -1.2612 H       1  LIG1        0.0280
     43 H         -10.4750   -1.0618    4.0874 H       1  LIG1        0.0281
     44 H          -9.9834    0.1290    2.8592 H       1  LIG1        0.0281
     45 H         -11.6057   -0.6003    2.7925 H       1  LIG1        0.0281
     46 H          -9.2622   -5.4189   -1.5676 H       1  LIG1        0.0281
     47 H          -8.2984   -5.6744   -0.0932 H       1  LIG1        0.0281
     48 H          -9.6008   -6.8125   -0.5134 H       1  LIG1        0.0281
@<TRIPOS>BOND
     1     1     2   ar
     2     1     6   ar
     3     2     7   ar
     4     3     4   ar
     5     3     5   ar
     6     4    21   ar
     7     5    22   ar
     8     6     8   ar
     9     6    10   ar
    10     7     9   ar
    11     7    18    1
    12     8    11   ar
    13     8    19    1
    14     9    10   ar
    15     9    20    1
    16    10    26   ar
    17    11    13    1
    18    11    26   ar
    19    12    21   ar
    20    12    22   ar
    21    12    23    1
    22    13    24   am
    23    13    25    2
    24    14    16    1
    25    14    23    1
    26    15    17    1
    27    15    23    1
    28    16    24    1
    29    17    24    1
    30     1    27    1
    31     2    28    1
    32     3    29    1
    33     4    30    1
    34     5    31    1
    35    14    32    1
    36    14    33    1
    37    15    34    1
    38    15    35    1
    39    16    36    1
    40    16    37    1
    41    17    38    1
    42    17    39    1
    43    18    40    1
    44    18    41    1
    45    18    42    1
    46    19    43    1
    47    19    44    1
    48    19    45    1
    49    20    46    1
    50    20    47    1
    51    20    48    1
