@<TRIPOS>MOLECULE
ChEBML348075
 33 36 0 0 0
SMALL
USER_CHARGES

@<TRIPOS>ATOM
      1 C          -2.9115   -1.3426   -2.0490 C.ar    1  LIG1       -0.0586
      2 C          -3.6132   -2.1433   -1.1404 C.ar    1  LIG1       -0.0528
      3 C         -10.2560   -5.2484    0.6039 C.ar    1  LIG1       -0.0376
      4 C         -11.5892   -5.6426    0.7484 C.ar    1  LIG1       -0.0302
      5 C          -3.3106   -0.0314   -2.3004 C.ar    1  LIG1       -0.0243
      6 C         -12.1687   -3.5149    1.7652 C.ar    1  LIG1       -0.0229
      7 C          -5.6568   -2.1173    0.4806 C.ar    1  LIG1       -0.0275
      8 C         -10.1264   -1.9040    1.9618 C.ar    1  LIG1       -0.0275
      9 C          -4.7352   -1.6083   -0.4768 C.ar    1  LIG1        0.0008
     10 C         -10.8302   -3.0954    1.6300 C.ar    1  LIG1        0.0003
     11 C          -9.9067   -3.9701    1.0536 C.ar    1  LIG1        0.0379
     12 C          -5.1122   -0.2913   -0.7485 C.ar    1  LIG1        0.0741
     13 C         -12.5325   -4.7908    1.3198 C.ar    1  LIG1        0.0720
     14 C          -4.4204    0.5207   -1.6542 C.ar    1  LIG1        0.1446
     15 C          -6.5583   -1.1181    0.7665 C.ar    1  LIG1        0.0811
     16 C          -8.8135   -2.0753    1.5877 C.ar    1  LIG1        0.0811
     17 C          -7.7272   -1.1566    1.7185 C.2     1  LIG1        0.2206
     18 N          -8.6908   -3.3244    1.0408 N.ar    1  LIG1       -0.3112
     19 N          -6.2217   -0.0208    0.0201 N.ar    1  LIG1       -0.3088
     20 O          -7.6913   -0.3199    2.6506 O.2     1  LIG1       -0.2856
     21 O         -13.8250   -5.2040    1.4471 O.3     1  LIG1       -0.3609
     22 F          -4.7979    1.7809   -1.9011 F       1  LIG1       -0.2048
     23 H          -2.0461   -1.7503   -2.5647 H       1  LIG1        0.0624
     24 H          -3.2920   -3.1642   -0.9546 H       1  LIG1        0.0629
     25 H          -9.5224   -5.9120    0.1586 H       1  LIG1        0.0643
     26 H         -11.8870   -6.6313    0.4069 H       1  LIG1        0.0651
     27 H          -2.7512    0.5730   -3.0099 H       1  LIG1        0.0654
     28 H         -12.9103   -2.8562    2.2090 H       1  LIG1        0.0657
     29 H          -5.6566   -3.1098    0.9118 H       1  LIG1        0.0651
     30 H         -10.5404   -1.0182    2.4251 H       1  LIG1        0.0651
     31 H          -7.8334   -3.7189    0.6786 H       1  LIG1        0.1529
     32 H          -6.7144    0.8619    0.0293 H       1  LIG1        0.1530
     33 H         -14.3596   -4.5077    1.8595 H       1  LIG1        0.2182
@<TRIPOS>BOND
     1     1     2   ar
     2     1     5   ar
     3     2     9   ar
     4     3     4   ar
     5     3    11   ar
     6     4    13   ar
     7     5    14   ar
     8     6    10   ar
     9     6    13   ar
    10     7     9   ar
    11     7    15   ar
    12     8    10   ar
    13     8    16   ar
    14     9    12   ar
    15    10    11   ar
    16    11    18   ar
    17    12    14   ar
    18    12    19   ar
    19    13    21    1
    20    14    22    1
    21    15    17    1
    22    15    19   ar
    23    16    17    1
    24    16    18   ar
    25    17    20    2
    26     1    23    1
    27     2    24    1
    28     3    25    1
    29     4    26    1
    30     5    27    1
    31     6    28    1
    32     7    29    1
    33     8    30    1
    34    18    31    1
    35    19    32    1
    36    21    33    1
