@<TRIPOS>MOLECULE
ChEBML11987
 33 35 0 0 0
SMALL
USER_CHARGES

@<TRIPOS>ATOM
      1 C          -2.2226    0.5567   -3.5228 C.ar    1  LIG1       -0.0621
      2 C          -1.7753   -0.3468   -2.5587 C.ar    1  LIG1       -0.0596
      3 C          -3.4299    1.2309   -3.3401 C.ar    1  LIG1       -0.0596
      4 C         -10.7419   -2.7743    2.4073 C.ar    1  LIG1       -0.0552
      5 C          -9.8668   -1.7306    2.6996 C.ar    1  LIG1       -0.0302
      6 C          -2.5355   -0.5760   -1.4119 C.ar    1  LIG1       -0.0311
      7 C          -4.1901    1.0016   -2.1932 C.ar    1  LIG1       -0.0311
      8 C          -9.1573   -3.6647    0.8035 C.ar    1  LIG1       -0.0479
      9 C          -8.2736   -2.6215    1.0904 C.ar    1  LIG1        0.0068
     10 C         -10.3884   -3.7393    1.4616 C.ar    1  LIG1       -0.0324
     11 C          -8.6431   -1.6692    2.0357 C.ar    1  LIG1        0.0929
     12 C          -3.7429    0.0982   -1.2291 C.ar    1  LIG1        0.0857
     13 C          -6.9814   -2.4974    0.4345 C.ar    1  LIG1       -0.0327
     14 C          -6.1697   -1.4815    0.7420 C.ar    1  LIG1        0.1208
     15 C          -6.5370   -0.4567    1.7419 C.ar    1  LIG1        0.3040
     16 C          -4.8851   -1.4463    0.0315 C.2     1  LIG1        0.3040
     17 C         -11.3283   -4.8564    1.1539 C.3     1  LIG1        0.0474
     18 O          -5.7906    0.4743    2.0234 O.2     1  LIG1       -0.2599
     19 O          -4.3247   -2.4650   -0.3495 O.2     1  LIG1       -0.2599
     20 O          -7.7796   -0.6018    2.3530 O.2     1  LIG1       -0.2735
     21 O          -4.5049   -0.1322   -0.0825 O.3     1  LIG1       -0.2741
     22 CL        -12.6770   -4.2829    0.1475 Cl      1  LIG1       -0.1215
     23 H          -1.6306    0.7359   -4.4156 H       1  LIG1        0.0622
     24 H          -0.8353   -0.8719   -2.7009 H       1  LIG1        0.0623
     25 H          -3.7774    1.9344   -4.0911 H       1  LIG1        0.0623
     26 H         -11.6984   -2.8302    2.9200 H       1  LIG1        0.0627
     27 H         -10.1401   -0.9794    3.4340 H       1  LIG1        0.0651
     28 H          -2.1823   -1.2821   -0.6654 H       1  LIG1        0.0650
     29 H          -5.1308    1.5282   -2.0570 H       1  LIG1        0.0650
     30 H          -8.8929   -4.4223    0.0687 H       1  LIG1        0.0633
     31 H          -6.7135   -3.2516   -0.2991 H       1  LIG1        0.0641
     32 H         -11.7497   -5.2907    2.0699 H       1  LIG1        0.0485
     33 H         -10.8241   -5.6688    0.6143 H       1  LIG1        0.0485
@<TRIPOS>BOND
     1     1     2   ar
     2     1     3   ar
     3     2     6   ar
     4     3     7   ar
     5     4     5   ar
     6     4    10   ar
     7     5    11   ar
     8     6    12   ar
     9     7    12   ar
    10     8     9   ar
    11     8    10   ar
    12     9    11   ar
    13     9    13   ar
    14    10    17    1
    15    11    20   ar
    16    12    21    1
    17    13    14   ar
    18    14    15   ar
    19    14    16    1
    20    15    18    2
    21    15    20   ar
    22    16    19    2
    23    16    21    1
    24    17    22    1
    25     1    23    1
    26     2    24    1
    27     3    25    1
    28     4    26    1
    29     5    27    1
    30     6    28    1
    31     7    29    1
    32     8    30    1
    33    13    31    1
    34    17    32    1
    35    17    33    1
