@<TRIPOS>MOLECULE
ChEBML1066936
 30 32 0 0 0
SMALL
USER_CHARGES

@<TRIPOS>ATOM
      1 C          -5.0705   -0.0259   -1.5979 C.ar    1  LIG1       -0.0435
      2 C          -5.6897   -0.9368   -0.7494 C.ar    1  LIG1       -0.0555
      3 C         -10.2962   -5.2294    0.5634 C.ar    1  LIG1       -0.0391
      4 C         -11.6509   -5.5622    0.6516 C.ar    1  LIG1       -0.0461
      5 C         -12.1400   -3.5000    1.8368 C.ar    1  LIG1       -0.0387
      6 C         -10.0212   -2.0234    2.2041 C.ar    1  LIG1       -0.0280
      7 C          -4.2900    0.9659   -1.0262 C.ar    1  LIG1        0.0268
      8 C          -4.7116    0.1980    1.0976 C.ar    1  LIG1        0.0304
      9 C         -10.7791   -3.1430    1.7601 C.ar    1  LIG1       -0.0011
     10 C          -5.5121   -0.8297    0.6254 C.ar    1  LIG1       -0.0218
     11 C          -9.8904   -4.0142    1.1265 C.ar    1  LIG1        0.0378
     12 C         -12.5604   -4.7124    1.2779 C.ar    1  LIG1        0.0182
     13 C          -8.7114   -2.2329    1.8385 C.ar    1  LIG1        0.0750
     14 C          -7.5815   -1.3888    2.0663 C.2     1  LIG1        0.1808
     15 C          -6.1701   -1.8029    1.5726 C.3     1  LIG1        0.0389
     16 N          -4.0939    1.1019    0.3044 N.ar    1  LIG1       -0.2644
     17 N          -8.6425   -3.4361    1.1889 N.ar    1  LIG1       -0.3115
     18 O          -7.6900   -0.2879    2.6729 O.2     1  LIG1       -0.2923
     19 BR        -14.3866   -5.1985    1.3727 Br      1  LIG1       -0.0508
     20 H          -5.1946   -0.0904   -2.6729 H       1  LIG1        0.0639
     21 H          -6.3082   -1.7263   -1.1679 H       1  LIG1        0.0627
     22 H          -9.5889   -5.8923    0.0766 H       1  LIG1        0.0643
     23 H         -11.9824   -6.5040    0.2193 H       1  LIG1        0.0635
     24 H         -12.8465   -2.8347    2.3266 H       1  LIG1        0.0641
     25 H         -10.3977   -1.1587    2.7343 H       1  LIG1        0.0651
     26 H          -3.7860    1.7010   -1.6451 H       1  LIG1        0.0839
     27 H          -4.5363    0.3317    2.1605 H       1  LIG1        0.0842
     28 H          -6.2579   -2.7756    1.0741 H       1  LIG1        0.0401
     29 H          -5.5277   -1.9296    2.4520 H       1  LIG1        0.0401
     30 H          -7.7991   -3.8440    0.8094 H       1  LIG1        0.1529
@<TRIPOS>BOND
     1     1     2   ar
     2     1     7   ar
     3     2    10   ar
     4     3     4   ar
     5     3    11   ar
     6     4    12   ar
     7     5     9   ar
     8     5    12   ar
     9     6     9   ar
    10     6    13   ar
    11     7    16   ar
    12     8    10   ar
    13     8    16   ar
    14     9    11   ar
    15    10    15    1
    16    11    17   ar
    17    12    19    1
    18    13    14    1
    19    13    17   ar
    20    14    15    1
    21    14    18    2
    22     1    20    1
    23     2    21    1
    24     3    22    1
    25     4    23    1
    26     5    24    1
    27     6    25    1
    28     7    26    1
    29     8    27    1
    30    15    28    1
    31    15    29    1
    32    17    30    1
