@<TRIPOS>MOLECULE
ChEBML998413
 52 54 0 0 0
SMALL
USER_CHARGES

@<TRIPOS>ATOM
      1 C          -3.4516   -1.5571   -0.0254 C.ar    1  LIG1       -0.0545
      2 C          -4.6585    0.5357   -0.0484 C.ar    1  LIG1       -0.0545
      3 C          -9.8895   -5.1559    0.2592 C.ar    1  LIG1       -0.0288
      4 C          -2.8148   -1.2031   -1.2149 C.ar    1  LIG1       -0.0260
      5 C          -4.0218    0.8898   -1.2379 C.ar    1  LIG1       -0.0260
      6 C         -11.2130   -5.6032    0.2073 C.ar    1  LIG1       -0.0369
      7 C         -12.0011   -3.6410    1.4179 C.ar    1  LIG1       -0.0293
      8 C         -10.6774   -3.1717    1.4816 C.ar    1  LIG1        0.0129
      9 C          -4.3734   -0.6878    0.5579 C.ar    1  LIG1       -0.0306
     10 C         -10.0292   -2.0295    2.0211 C.ar    1  LIG1       -0.0048
     11 C          -9.6715   -3.9396    0.9040 C.ar    1  LIG1        0.0900
     12 C          -3.0999    0.0205   -1.8211 C.ar    1  LIG1        0.1228
     13 C         -12.2516   -4.8613    0.7754 C.ar    1  LIG1        0.0552
     14 C          -8.6902   -2.1746    1.7403 C.ar    1  LIG1        0.1480
     15 C          -7.5675   -1.3487    2.0318 C.2     1  LIG1        0.2673
     16 C         -10.6662   -0.9082    2.7392 C.3     1  LIG1       -0.0363
     17 C         -13.2490   -3.9231   -2.7358 C.3     1  LIG1       -0.0481
     18 C         -16.5270   -3.4748   -0.4426 C.3     1  LIG1       -0.0481
     19 C          -5.0585   -1.0680    1.8385 C.3     1  LIG1        0.0367
     20 C         -13.7665   -5.1401   -2.0477 C.3     1  LIG1        0.0223
     21 C         -15.9526   -4.7371   -0.9898 C.3     1  LIG1        0.0223
     22 N          -6.2926   -1.7815    1.6005 N.am    1  LIG1       -0.3054
     23 N         -14.4810   -4.7846   -0.7954 N.3     1  LIG1       -0.2775
     24 O          -7.6876   -0.2710    2.6726 O.2     1  LIG1       -0.2695
     25 O         -13.8360   -6.9123    0.5473 O.2     1  LIG1       -0.4762
     26 O         -14.6448   -4.8939    1.7948 O.2     1  LIG1       -0.4762
     27 O          -8.4629   -3.3302    1.0630 O.2     1  LIG1       -0.3039
     28 F          -2.4865    0.3618   -2.9619 F       1  LIG1       -0.2069
     29 S         -13.8912   -5.4614    0.6829 S.O2    1  LIG1       -0.1658
     30 H          -3.2235   -2.5129    0.4391 H       1  LIG1        0.0627
     31 H          -5.3751    1.2195    0.3989 H       1  LIG1        0.0627
     32 H          -9.0794   -5.7262   -0.1792 H       1  LIG1        0.0651
     33 H          -2.0967   -1.8793   -1.6687 H       1  LIG1        0.0653
     34 H          -4.2438    1.8421   -1.7103 H       1  LIG1        0.0653
     35 H         -11.4259   -6.5483   -0.2875 H       1  LIG1        0.0643
     36 H         -12.8122   -3.0673    1.8572 H       1  LIG1        0.0649
     37 H         -10.7056   -1.1022    3.8237 H       1  LIG1        0.0281
     38 H         -10.1246    0.0410    2.5881 H       1  LIG1        0.0281
     39 H         -11.6984   -0.7284    2.3932 H       1  LIG1        0.0281
     40 H         -14.0686   -3.2473   -3.0035 H       1  LIG1        0.0247
     41 H         -12.5341   -3.3895   -2.1002 H       1  LIG1        0.0247
     42 H         -12.7325   -4.2101   -3.6596 H       1  LIG1        0.0247
     43 H         -16.3328   -3.3907    0.6321 H       1  LIG1        0.0247
     44 H         -16.1084   -2.6015   -0.9546 H       1  LIG1        0.0247
     45 H         -17.6135   -3.4662   -0.5913 H       1  LIG1        0.0247
     46 H          -4.4109   -1.7080    2.4475 H       1  LIG1        0.0518
     47 H          -5.2943   -0.1813    2.4362 H       1  LIG1        0.0518
     48 H         -12.9430   -5.8104   -1.7833 H       1  LIG1        0.0479
     49 H         -14.4683   -5.6803   -2.6899 H       1  LIG1        0.0479
     50 H         -16.1502   -4.8145   -2.0632 H       1  LIG1        0.0479
     51 H         -16.3833   -5.6087   -0.4883 H       1  LIG1        0.0479
     52 H          -6.2229   -2.6845    1.1429 H       1  LIG1        0.1501
@<TRIPOS>BOND
     1     1     4   ar
     2     1     9   ar
     3     2     5   ar
     4     2     9   ar
     5     3     6   ar
     6     3    11   ar
     7     4    12   ar
     8     5    12   ar
     9     6    13   ar
    10     7     8   ar
    11     7    13   ar
    12     8    10   ar
    13     8    11   ar
    14     9    19    1
    15    10    14   ar
    16    10    16    1
    17    11    27   ar
    18    12    28    1
    19    13    29    1
    20    14    15    1
    21    14    27   ar
    22    15    22   am
    23    15    24    2
    24    17    20    1
    25    18    21    1
    26    19    22    1
    27    20    23    1
    28    21    23    1
    29    23    29    1
    30    25    29    2
    31    26    29    2
    32     1    30    1
    33     2    31    1
    34     3    32    1
    35     4    33    1
    36     5    34    1
    37     6    35    1
    38     7    36    1
    39    16    37    1
    40    16    38    1
    41    16    39    1
    42    17    40    1
    43    17    41    1
    44    17    42    1
    45    18    43    1
    46    18    44    1
    47    18    45    1
    48    19    46    1
    49    19    47    1
    50    20    48    1
    51    20    49    1
    52    21    50    1
    53    21    51    1
    54    22    52    1
