@<TRIPOS>MOLECULE
ChEBML886606
 40 43 0 0 0
SMALL
USER_CHARGES

@<TRIPOS>ATOM
      1 C          -1.7558    0.2711   -2.9139 C.ar    1  LIG1       -0.0613
      2 C          -2.8224    0.8476   -3.6003 C.ar    1  LIG1       -0.0600
      3 C          -1.9514   -0.2466   -1.6353 C.ar    1  LIG1       -0.0473
      4 C         -10.9068   -2.2941    1.9350 C.ar    1  LIG1       -0.0569
      5 C          -4.0854    0.9057   -3.0071 C.ar    1  LIG1       -0.0337
      6 C          -9.5719   -1.8878    1.9913 C.ar    1  LIG1       -0.0404
      7 C          -8.8278   -4.0652    1.1990 C.ar    1  LIG1       -0.0372
      8 C          -3.2217   -0.1810   -1.0545 C.ar    1  LIG1        0.0667
      9 C         -11.1836   -3.5787    1.4985 C.ar    1  LIG1       -0.0446
     10 C         -10.1547   -4.4553    1.1345 C.ar    1  LIG1       -0.0429
     11 C          -4.2965    0.3891   -1.7231 C.ar    1  LIG1        0.0998
     12 C          -8.5399   -2.7669    1.6258 C.ar    1  LIG1        0.0328
     13 C          -3.4827   -0.7094    0.2844 C.ar    1  LIG1        0.2691
     14 C          -6.7233   -1.0885    2.1028 C.2     1  LIG1        0.2358
     15 C         -12.5172   -4.2480    1.3896 C.3     1  LIG1       -0.0273
     16 C         -10.7047   -5.7923    0.7499 C.3     1  LIG1       -0.0272
     17 C         -12.1772   -5.4430    0.4863 C.3     1  LIG1       -0.0451
     18 C          -5.2093   -1.0440    2.0295 C.3     1  LIG1        0.1166
     19 N          -5.5766    0.4656   -1.1651 N.ar    1  LIG1       -0.1335
     20 N          -5.7832    0.0102   -0.0200 N.ar    1  LIG1       -0.0720
     21 N          -4.7943   -0.5742    0.7321 N.ar    1  LIG1       -0.1614
     22 N          -7.2128   -2.3405    1.6963 N.am    1  LIG1       -0.2840
     23 O          -2.5692   -1.2248    0.9216 O.2     1  LIG1       -0.2696
     24 O          -7.3879   -0.1306    2.4851 O.2     1  LIG1       -0.2753
     25 H          -0.7736    0.2257   -3.3748 H       1  LIG1        0.0623
     26 H          -2.6723    1.2519   -4.5971 H       1  LIG1        0.0623
     27 H          -1.1117   -0.6931   -1.1108 H       1  LIG1        0.0632
     28 H         -11.7019   -1.6181    2.2307 H       1  LIG1        0.0626
     29 H          -4.9078    1.3586   -3.5561 H       1  LIG1        0.0646
     30 H          -9.3395   -0.8801    2.3280 H       1  LIG1        0.0642
     31 H          -8.0359   -4.7556    0.9255 H       1  LIG1        0.0645
     32 H         -12.8544   -4.5808    2.3766 H       1  LIG1        0.0316
     33 H         -13.2730   -3.6046    0.9307 H       1  LIG1        0.0316
     34 H         -10.2261   -6.2014   -0.1441 H       1  LIG1        0.0316
     35 H         -10.6073   -6.4952    1.5835 H       1  LIG1        0.0316
     36 H         -12.8448   -6.2946    0.6510 H       1  LIG1        0.0273
     37 H         -12.2923   -5.1425   -0.5647 H       1  LIG1        0.0273
     38 H          -4.8010   -2.0444    2.2040 H       1  LIG1        0.0593
     39 H          -4.8351   -0.3695    2.8059 H       1  LIG1        0.0593
     40 H          -6.5007   -3.0248    1.4170 H       1  LIG1        0.1557
@<TRIPOS>BOND
     1     1     2   ar
     2     1     3   ar
     3     2     5   ar
     4     3     8   ar
     5     4     6   ar
     6     4     9   ar
     7     5    11   ar
     8     6    12   ar
     9     7    10   ar
    10     7    12   ar
    11     8    11   ar
    12     8    13   ar
    13     9    10   ar
    14     9    15    1
    15    10    16    1
    16    11    19   ar
    17    12    22    1
    18    13    21   ar
    19    13    23    2
    20    14    18    1
    21    14    22   am
    22    14    24    2
    23    15    17    1
    24    16    17    1
    25    18    21    1
    26    19    20   ar
    27    20    21   ar
    28     1    25    1
    29     2    26    1
    30     3    27    1
    31     4    28    1
    32     5    29    1
    33     6    30    1
    34     7    31    1
    35    15    32    1
    36    15    33    1
    37    16    34    1
    38    16    35    1
    39    17    36    1
    40    17    37    1
    41    18    38    1
    42    18    39    1
    43    22    40    1
