@<TRIPOS>MOLECULE
ChEBML1147825
 55 60 0 0 0
SMALL
USER_CHARGES

@<TRIPOS>ATOM
      1 C         -12.1883   -5.1087    1.3396 C.ar    1  LIG1       -0.0615
      2 C         -11.3665   -5.5670    0.3066 C.ar    1  LIG1       -0.0596
      3 C         -11.8201   -4.0044    2.1204 C.ar    1  LIG1       -0.0522
      4 C         -10.1504   -4.9416    0.0155 C.ar    1  LIG1       -0.0306
      5 C          -5.5246    0.4398    1.7543 C.ar    1  LIG1       -0.0160
      6 C          -9.8937   -2.2524    2.3821 C.ar    1  LIG1       -0.0174
      7 C          -3.7753   -1.9336   -0.3301 C.ar    1  LIG1       -0.0244
      8 C          -6.5854    0.5505    2.6299 C.ar    1  LIG1        0.0316
      9 C         -10.6013   -3.3601    1.8452 C.ar    1  LIG1        0.0080
     10 C          -2.9087   -1.6413   -1.4114 C.ar    1  LIG1        0.0567
     11 C          -9.8115   -3.8468    0.8086 C.ar    1  LIG1        0.0895
     12 C          -5.6097   -0.5907    0.8405 C.ar    1  LIG1        0.0885
     13 C          -4.5676   -0.8234   -0.1304 C.ar    1  LIG1        0.0571
     14 C          -8.7362   -2.1387    1.6474 C.ar    1  LIG1        0.1273
     15 C          -3.1980   -0.3582   -1.8368 C.ar    1  LIG1        0.0281
     16 C          -7.6180   -1.2403    1.6843 C.ar    1  LIG1        0.1836
     17 C          -1.8571   -2.4302   -2.0213 C.2     1  LIG1        0.2446
     18 C          -1.3487    1.2350   -2.3354 C.3     1  LIG1       -0.0009
     19 C          -3.4432    1.2909   -3.7407 C.3     1  LIG1       -0.0009
     20 C          -1.9118   -0.7306   -3.8838 C.3     1  LIG1        0.0227
     21 C          -0.6522    2.1382   -3.3477 C.3     1  LIG1       -0.0336
     22 C          -2.7222    2.1609   -4.7637 C.3     1  LIG1       -0.0336
     23 C          -2.4841    0.3768   -2.9451 C.3     1  LIG1        0.0346
     24 C          -1.0232    3.9701   -4.9956 C.3     1  LIG1       -0.0455
     25 N          -7.6523   -0.2753    2.6230 N.ar    1  LIG1       -0.2347
     26 N          -6.6457   -1.4528    0.7771 N.ar    1  LIG1       -0.2248
     27 N          -4.2034    0.1318   -1.0459 N.ar    1  LIG1       -0.3153
     28 N          -1.3154   -1.8633   -3.1701 N.am    1  LIG1       -0.3104
     29 N          -1.6740    2.9878   -4.0604 N.4     1  LIG1        0.2439
     30 O          -1.4713   -3.4931   -1.5437 O.2     1  LIG1       -0.2718
     31 O          -8.6768   -3.1013    0.6905 O.2     1  LIG1       -0.3058
     32 H         -13.1276   -5.6166    1.5419 H       1  LIG1        0.0623
     33 H         -11.6787   -6.4256   -0.2827 H       1  LIG1        0.0623
     34 H         -12.4685   -3.6597    2.9199 H       1  LIG1        0.0630
     35 H          -9.5080   -5.2913   -0.7837 H       1  LIG1        0.0650
     36 H          -4.6865    1.1242    1.7956 H       1  LIG1        0.0662
     37 H         -10.1964   -1.6179    3.2037 H       1  LIG1        0.0659
     38 H          -3.8140   -2.8506    0.2425 H       1  LIG1        0.0652
     39 H          -6.6075    1.3299    3.3842 H       1  LIG1        0.0841
     40 H          -0.5973    0.5969   -1.8527 H       1  LIG1        0.0331
     41 H          -1.7598    1.8678   -1.5360 H       1  LIG1        0.0331
     42 H          -3.9866    1.9568   -3.0574 H       1  LIG1        0.0331
     43 H          -4.2097    0.6924   -4.2498 H       1  LIG1        0.0331
     44 H          -2.7167   -1.1627   -4.4924 H       1  LIG1        0.0476
     45 H          -1.1544   -0.3489   -4.5740 H       1  LIG1        0.0476
     46 H           0.0368    2.8189   -2.8362 H       1  LIG1        0.0815
     47 H          -0.0978    1.5738   -4.1040 H       1  LIG1        0.0815
     48 H          -2.2236    1.5729   -5.5411 H       1  LIG1        0.0815
     49 H          -3.4255    2.8567   -5.2333 H       1  LIG1        0.0815
     50 H          -0.5019    3.4011   -5.7675 H       1  LIG1        0.0777
     51 H          -1.8099    4.5905   -5.4289 H       1  LIG1        0.0777
     52 H          -0.3241    4.5731   -4.4130 H       1  LIG1        0.0777
     53 H          -4.6084    1.0553   -1.1155 H       1  LIG1        0.1526
     54 H          -0.4547   -2.2581   -3.5365 H       1  LIG1        0.1497
     55 H          -2.1575    3.5470   -3.3441 H       1  LIG1        0.2000
@<TRIPOS>BOND
     1     1     2   ar
     2     1     3   ar
     3     2     4   ar
     4     3     9   ar
     5     4    11   ar
     6     5     8   ar
     7     5    12   ar
     8     6     9   ar
     9     6    14   ar
    10     7    10   ar
    11     7    13   ar
    12     8    25   ar
    13     9    11   ar
    14    10    15   ar
    15    10    17    1
    16    11    31   ar
    17    12    13    1
    18    12    26   ar
    19    13    27   ar
    20    14    16    1
    21    14    31   ar
    22    15    23    1
    23    15    27   ar
    24    16    25   ar
    25    16    26   ar
    26    17    28   am
    27    17    30    2
    28    18    21    1
    29    18    23    1
    30    19    22    1
    31    19    23    1
    32    20    23    1
    33    20    28    1
    34    21    29    1
    35    22    29    1
    36    24    29    1
    37     1    32    1
    38     2    33    1
    39     3    34    1
    40     4    35    1
    41     5    36    1
    42     6    37    1
    43     7    38    1
    44     8    39    1
    45    18    40    1
    46    18    41    1
    47    19    42    1
    48    19    43    1
    49    20    44    1
    50    20    45    1
    51    21    46    1
    52    21    47    1
    53    22    48    1
    54    22    49    1
    55    24    50    1
    56    24    51    1
    57    24    52    1
    58    27    53    1
    59    28    54    1
    60    29    55    1
