@<TRIPOS>MOLECULE
ChEBML300380
 45 47 0 0 0
SMALL
USER_CHARGES

@<TRIPOS>ATOM
      1 C         -10.3465   -5.1708    0.4644 C.ar    1  LIG1        0.0000
      2 C         -11.6840   -5.5238    0.6649 C.ar    1  LIG1        0.0000
      3 C         -12.0824   -3.5080    1.9590 C.ar    1  LIG1        0.0000
      4 C          -9.9534   -2.0171    2.1806 C.ar    1  LIG1        0.0000
      5 C         -10.7378   -3.1313    1.7702 C.ar    1  LIG1        0.0000
      6 C          -9.9025   -3.9696    1.0288 C.ar    1  LIG1        0.0000
      7 C         -12.5404   -4.7067    1.4003 C.ar    1  LIG1        0.0000
      8 C          -8.6808   -2.1975    1.6898 C.ar    1  LIG1        0.0000
      9 C          -7.4979   -1.3127    1.8474 C.2     1  LIG1        0.0000
     10 C          -4.6247   -0.6214   -0.0685 C.2     1  LIG1        0.0000
     11 C          -3.1510    1.7607    1.5668 C.2     1  LIG1        0.0000
     12 C          -2.3916    0.0734   -3.6638 C.3     1  LIG1        0.0000
     13 C          -3.1451    1.4017   -3.5518 C.3     1  LIG1        0.0000
     14 C          -2.5706   -0.6274   -2.3196 C.3     1  LIG1        0.0000
     15 C          -3.7376    1.4331   -2.1454 C.3     1  LIG1        0.0000
     16 C          -2.8164    0.5193   -1.3463 C.3     1  LIG1        0.0000
     17 C          -5.0916   -1.0114    1.3228 C.3     1  LIG1        0.0000
     18 C          -2.6444    0.4030    1.1096 C.3     1  LIG1        0.0000
     19 N          -8.6600   -3.3778    0.9963 N.ar    1  LIG1        0.0000
     20 N          -6.3228   -1.7438    1.2398 N.am    1  LIG1        0.0000
     21 N          -3.3971    0.0810   -0.1105 N.am    1  LIG1        0.0000
     22 O          -2.6144    2.2073    2.6199 O.co2   1  LIG1       -0.5000
     23 O          -7.6038   -0.2809    2.5053 O.2     1  LIG1        0.0000
     24 O          -5.2922   -0.9145   -1.0639 O.2     1  LIG1        0.0000
     25 O          -4.0373    2.2792    0.8307 O.co2   1  LIG1       -0.5000
     26 CL        -14.1832   -5.1752    1.6243 Cl      1  LIG1        0.0000
     27 H          -9.6806   -5.8081   -0.1078 H       1  LIG1        0.0000
     28 H         -12.0465   -6.4546    0.2338 H       1  LIG1        0.0000
     29 H         -12.7490   -2.8700    2.5332 H       1  LIG1        0.0000
     30 H         -10.2884   -1.1752    2.7718 H       1  LIG1        0.0000
     31 H          -2.7690   -0.5418   -4.4867 H       1  LIG1        0.0000
     32 H          -1.3295    0.2647   -3.8557 H       1  LIG1        0.0000
     33 H          -2.4478    2.2359   -3.6913 H       1  LIG1        0.0000
     34 H          -3.9245    1.4939   -4.3147 H       1  LIG1        0.0000
     35 H          -3.4365   -1.3006   -2.3602 H       1  LIG1        0.0000
     36 H          -1.6978   -1.2283   -2.0456 H       1  LIG1        0.0000
     37 H          -3.7799    2.4472   -1.7357 H       1  LIG1        0.0000
     38 H          -4.7624    1.0410   -2.1631 H       1  LIG1        0.0000
     39 H          -1.8771    1.0334   -1.1105 H       1  LIG1        0.0000
     40 H          -4.3536   -1.6588    1.8035 H       1  LIG1        0.0000
     41 H          -5.2791   -0.1193    1.9259 H       1  LIG1        0.0000
     42 H          -2.8181   -0.3584    1.8763 H       1  LIG1        0.0000
     43 H          -1.5713    0.4384    0.8976 H       1  LIG1        0.0000
     44 H          -7.8513   -3.7622    0.5272 H       1  LIG1        0.0000
     45 H          -6.3045   -2.6453    0.7640 H       1  LIG1        0.0000
@<TRIPOS>BOND
     1     1     2   ar
     2     1     6   ar
     3     2     7   ar
     4     3     5   ar
     5     3     7   ar
     6     4     5   ar
     7     4     8   ar
     8     5     6   ar
     9     6    19   ar
    10     7    26    1
    11     8     9    1
    12     8    19   ar
    13     9    20   am
    14     9    23    2
    15    10    17    1
    16    10    21   am
    17    10    24    2
    18    11    18    1
    19    11    22   ar
    20    11    25   ar
    21    12    13    1
    22    12    14    1
    23    13    15    1
    24    14    16    1
    25    15    16    1
    26    16    21    1
    27    17    20    1
    28    18    21    1
    29     1    27    1
    30     2    28    1
    31     3    29    1
    32     4    30    1
    33    12    31    1
    34    12    32    1
    35    13    33    1
    36    13    34    1
    37    14    35    1
    38    14    36    1
    39    15    37    1
    40    15    38    1
    41    16    39    1
    42    17    40    1
    43    17    41    1
    44    18    42    1
    45    18    43    1
    46    19    44    1
    47    20    45    1
