@<TRIPOS>MOLECULE
ChEBML300415
 56 58 0 0 0
SMALL
USER_CHARGES

@<TRIPOS>ATOM
      1 C         -10.5055   -4.9946    0.2972 C.ar    1  LIG1       -0.0387
      2 C         -11.7263   -5.4662    0.7241 C.ar    1  LIG1       -0.0416
      3 C         -11.8656   -3.7502    2.3869 C.ar    1  LIG1       -0.0343
      4 C          -9.8200   -2.1666    2.3949 C.ar    1  LIG1       -0.0262
      5 C         -10.6244   -3.2515    1.9699 C.ar    1  LIG1       -0.0007
      6 C          -9.9390   -3.8820    0.9132 C.ar    1  LIG1        0.0379
      7 C         -12.4014   -4.8423    1.7673 C.ar    1  LIG1        0.0413
      8 C          -8.7022   -2.1528    1.6225 C.ar    1  LIG1        0.0945
      9 C          -7.6013   -1.1842    1.7335 C.2     1  LIG1        0.2576
     10 C          -4.3958   -0.6166   -0.0205 C.2     1  LIG1        0.2319
     11 C           0.2155    0.0937   -2.6425 C.3     1  LIG1       -0.0533
     12 C           0.3921   -1.3561   -2.1868 C.3     1  LIG1       -0.0532
     13 C          -0.7657    0.1446   -3.8151 C.3     1  LIG1       -0.0532
     14 C          -0.9745   -2.0418   -2.1270 C.3     1  LIG1       -0.0515
     15 C          -2.0438    0.8645   -3.3802 C.3     1  LIG1       -0.0515
     16 C          -1.7265   -1.5720   -0.8800 C.3     1  LIG1       -0.0345
     17 C          -2.8838   -0.0714   -2.5087 C.3     1  LIG1       -0.0345
     18 C          -2.2659   -0.1592   -1.1121 C.3     1  LIG1        0.0254
     19 C          -5.4462   -0.3039    1.0138 C.3     1  LIG1        0.0887
     20 C          -3.1029    1.2762    0.8057 C.3     1  LIG1        0.0377
     21 C          -3.7065    2.5367    0.1831 C.3     1  LIG1        0.0589
     22 N          -8.7675   -3.1902    0.7127 N.ar    1  LIG1       -0.3101
     23 N          -6.5429   -1.2689    0.9034 N.am    1  LIG1       -0.3013
     24 N          -3.2870    0.1447   -0.1065 N.am    1  LIG1       -0.2952
     25 O          -7.6460   -0.3063    2.5744 O.2     1  LIG1       -0.2704
     26 O          -4.5483   -1.5532   -0.7756 O.2     1  LIG1       -0.2756
     27 O          -5.1212    2.3766    0.0603 O.3     1  LIG1       -0.3947
     28 CL        -13.9391   -5.4581    2.2869 Cl      1  LIG1       -0.0843
     29 H          -9.9884   -5.4865   -0.5135 H       1  LIG1        0.0643
     30 H         -12.1638   -6.3292    0.2443 H       1  LIG1        0.0639
     31 H         -12.3968   -3.2721    3.1967 H       1  LIG1        0.0645
     32 H         -10.0529   -1.4747    3.1907 H       1  LIG1        0.0651
     33 H          -0.1741    0.6890   -1.8168 H       1  LIG1        0.0266
     34 H           1.1786    0.4954   -2.9571 H       1  LIG1        0.0266
     35 H           0.8507   -1.3730   -1.1980 H       1  LIG1        0.0266
     36 H           1.0327   -1.8837   -2.8936 H       1  LIG1        0.0266
     37 H          -0.3106    0.6827   -4.6466 H       1  LIG1        0.0266
     38 H          -1.0094   -0.8704   -4.1292 H       1  LIG1        0.0266
     39 H          -0.8373   -3.1222   -2.0831 H       1  LIG1        0.0267
     40 H          -1.5493   -1.7844   -3.0166 H       1  LIG1        0.0267
     41 H          -1.7826    1.7557   -2.8095 H       1  LIG1        0.0267
     42 H          -2.6168    1.1523   -4.2617 H       1  LIG1        0.0267
     43 H          -1.0479   -1.5663   -0.0270 H       1  LIG1        0.0285
     44 H          -2.5564   -2.2495   -0.6795 H       1  LIG1        0.0285
     45 H          -2.9069   -1.0638   -2.9590 H       1  LIG1        0.0285
     46 H          -3.8995    0.3169   -2.4329 H       1  LIG1        0.0285
     47 H          -1.4501    0.5590   -1.0299 H       1  LIG1        0.0506
     48 H          -5.0060   -0.3665    2.0091 H       1  LIG1        0.0567
     49 H          -5.8301    0.7028    0.8491 H       1  LIG1        0.0567
     50 H          -2.0384    1.4318    0.9813 H       1  LIG1        0.0493
     51 H          -3.6001    1.0645    1.7522 H       1  LIG1        0.0493
     52 H          -3.2721    2.6985   -0.8034 H       1  LIG1        0.0580
     53 H          -3.4920    3.3950    0.8199 H       1  LIG1        0.0580
     54 H          -8.0961   -3.3981    0.0442 H       1  LIG1        0.1529
     55 H          -6.5072   -1.9689    0.2329 H       1  LIG1        0.1503
     56 H          -5.4613    3.1908   -0.3352 H       1  LIG1        0.2101
@<TRIPOS>BOND
     1     1     2   ar
     2     1     6   ar
     3     2     7   ar
     4     3     5   ar
     5     3     7   ar
     6     4     5   ar
     7     4     8   ar
     8     5     6   ar
     9     6    22   ar
    10     7    28    1
    11     8     9    1
    12     8    22   ar
    13     9    23   am
    14     9    25    2
    15    10    19    1
    16    10    24   am
    17    10    26    2
    18    11    12    1
    19    11    13    1
    20    12    14    1
    21    13    15    1
    22    14    16    1
    23    15    17    1
    24    16    18    1
    25    17    18    1
    26    18    24    1
    27    19    23    1
    28    20    21    1
    29    20    24    1
    30    21    27    1
    31     1    29    1
    32     2    30    1
    33     3    31    1
    34     4    32    1
    35    11    33    1
    36    11    34    1
    37    12    35    1
    38    12    36    1
    39    13    37    1
    40    13    38    1
    41    14    39    1
    42    14    40    1
    43    15    41    1
    44    15    42    1
    45    16    43    1
    46    16    44    1
    47    17    45    1
    48    17    46    1
    49    18    47    1
    50    19    48    1
    51    19    49    1
    52    20    50    1
    53    20    51    1
    54    21    52    1
    55    21    53    1
    56    22    54    1
    57    23    55    1
    58    27    56    1
