@<TRIPOS>MOLECULE
ChEBML927056
 27 28 0 0 0
SMALL
USER_CHARGES

@<TRIPOS>ATOM
      1 C          -2.1335    0.1946   -3.3368 C.ar    1  LIG1       -0.0543
      2 C          -8.4251   -3.3926    0.7315 C.ar    1  LIG1       -0.0377
      3 C          -9.5860   -4.1549    0.8614 C.ar    1  LIG1       -0.0214
      4 C          -2.2573   -0.8292   -2.3535 C.ar    1  LIG1       -0.0438
      5 C          -9.4125   -1.6571    2.0917 C.ar    1  LIG1       -0.0019
      6 C          -3.0896    1.1748   -3.1863 C.ar    1  LIG1       -0.0240
      7 C          -8.3384   -2.1437    1.3466 C.ar    1  LIG1        0.0329
      8 C         -10.6601   -3.6683    1.6065 C.ar    1  LIG1        0.1585
      9 C         -10.5733   -2.4194    2.2216 C.ar    1  LIG1        0.1602
     10 C          -3.3034   -0.5922   -1.4888 C.ar    1  LIG1        0.0591
     11 C          -4.9316   -0.9153    0.4376 C.2     1  LIG1        0.0005
     12 C          -6.0305   -1.6716    0.5443 C.2     1  LIG1       -0.0033
     13 C          -3.7619   -1.4080   -0.3384 C.2     1  LIG1        0.1933
     14 N          -7.1642   -1.3736    1.2158 N.pl3   1  LIG1       -0.3208
     15 O          -3.1618   -2.4358   -0.0436 O.2     1  LIG1       -0.2885
     16 F         -11.7751   -4.4001    1.7297 F       1  LIG1       -0.2037
     17 F         -11.6046   -1.9532    2.9380 F       1  LIG1       -0.2036
     18 S          -4.1308    0.8592   -1.8640 S.2     1  LIG1       -0.0940
     19 H          -1.3821    0.2105   -4.1154 H       1  LIG1        0.0628
     20 H          -7.5938   -3.7812    0.1491 H       1  LIG1        0.0643
     21 H          -9.6536   -5.1277    0.3833 H       1  LIG1        0.0655
     22 H          -1.6087   -1.6937   -2.2882 H       1  LIG1        0.0636
     23 H          -9.3557   -0.6853    2.5754 H       1  LIG1        0.0674
     24 H          -3.2269    2.0606   -3.7905 H       1  LIG1        0.0701
     25 H          -4.8804    0.0510    0.9261 H       1  LIG1        0.0677
     26 H          -6.1027   -2.6434    0.0684 H       1  LIG1        0.0790
     27 H          -7.1705   -0.4775    1.6885 H       1  LIG1        0.1522
@<TRIPOS>BOND
     1     1     4   ar
     2     1     6   ar
     3     2     3   ar
     4     2     7   ar
     5     3     8   ar
     6     4    10   ar
     7     5     7   ar
     8     5     9   ar
     9     6    18   ar
    10     7    14    1
    11     8     9   ar
    12     8    16    1
    13     9    17    1
    14    10    13    1
    15    10    18   ar
    16    11    12    2
    17    11    13    1
    18    12    14    1
    19    13    15    2
    20     1    19    1
    21     2    20    1
    22     3    21    1
    23     4    22    1
    24     5    23    1
    25     6    24    1
    26    11    25    1
    27    12    26    1
    28    14    27    1
