@<TRIPOS>MOLECULE
ChEBML368802
 57 62 0 0 0
SMALL
USER_CHARGES

@<TRIPOS>ATOM
      1 C          -6.6384   -1.9038   -0.6917 C.ar    1  LIG1       -0.0488
      2 C         -11.8347   -5.8890    1.3380 C.ar    1  LIG1       -0.0519
      3 C         -10.5481   -5.4966    0.9580 C.ar    1  LIG1       -0.0397
      4 C          -5.5453   -1.4839   -1.4600 C.ar    1  LIG1       -0.0377
      5 C         -12.2463   -3.7349    2.3809 C.ar    1  LIG1       -0.0446
      6 C         -10.2108   -2.1157    2.1832 C.ar    1  LIG1       -0.0293
      7 C          -5.0147    0.2747    0.1382 C.ar    1  LIG1       -0.0149
      8 C          -1.8489    0.0900   -2.9557 C.ar    1  LIG1        0.0702
      9 C          -6.9187   -1.2227    0.5047 C.ar    1  LIG1        0.0266
     10 C         -10.9532   -3.3171    2.0084 C.ar    1  LIG1       -0.0018
     11 C         -12.6724   -5.0235    2.0386 C.ar    1  LIG1       -0.0035
     12 C         -10.1356   -4.2057    1.3070 C.ar    1  LIG1        0.0377
     13 C          -6.1092   -0.1596    0.8892 C.ar    1  LIG1        0.0589
     14 C          -4.7485   -0.4130   -1.0504 C.ar    1  LIG1        0.0598
     15 C          -7.8827   -1.3174    1.5314 C.ar    1  LIG1        0.1116
     16 C          -8.9797   -2.2950    1.5957 C.ar    1  LIG1        0.0593
     17 C          -2.5960   -0.7699   -2.1904 C.ar    1  LIG1        0.0527
     18 C         -17.5215   -5.1611   -0.1505 C.3     1  LIG1       -0.0434
     19 C         -17.0320   -6.5369    0.2888 C.3     1  LIG1       -0.0134
     20 C         -16.3574   -4.1931   -0.3326 C.3     1  LIG1       -0.0134
     21 C         -16.1585   -6.4538    1.5323 C.3     1  LIG1       -0.0340
     22 C         -15.4861   -4.1184    0.9130 C.3     1  LIG1       -0.0340
     23 C          -2.3812   -2.1702   -1.7893 C.3     1  LIG1       -0.0226
     24 C         -14.0477   -5.4760    2.4318 C.3     1  LIG1       -0.0083
     25 N          -2.4815    1.2993   -3.0382 N.ar    1  LIG1       -0.1404
     26 N          -7.7125   -0.4024    2.4883 N.ar    1  LIG1       -0.1816
     27 N          -3.6092    1.2186   -2.3406 N.ar    1  LIG1       -0.0711
     28 N          -8.9439   -3.5586    1.0698 N.ar    1  LIG1       -0.3126
     29 N          -6.6338    0.2828    2.0735 N.ar    1  LIG1       -0.2372
     30 N          -3.6759   -0.0228   -1.8329 N.ar    1  LIG1       -0.1782
     31 N         -15.0111   -5.5051    1.2772 N.4     1  LIG1        0.2493
     32 H          -7.2486   -2.7385   -1.0230 H       1  LIG1        0.0631
     33 H         -12.1772   -6.8884    1.0780 H       1  LIG1        0.0628
     34 H          -9.8961   -6.1711    0.4130 H       1  LIG1        0.0643
     35 H          -5.3267   -2.0097   -2.3876 H       1  LIG1        0.0643
     36 H         -12.9026   -3.0626    2.9272 H       1  LIG1        0.0635
     37 H         -10.5476   -1.2193    2.6870 H       1  LIG1        0.0650
     38 H          -4.4038    1.1087    0.4686 H       1  LIG1        0.0664
     39 H          -0.9044   -0.0929   -3.4451 H       1  LIG1        0.0877
     40 H         -18.0821   -5.2482   -1.0879 H       1  LIG1        0.0271
     41 H         -18.2138   -4.7629    0.6016 H       1  LIG1        0.0271
     42 H         -17.8914   -7.1874    0.4858 H       1  LIG1        0.0320
     43 H         -16.4643   -6.9989   -0.5287 H       1  LIG1        0.0320
     44 H         -15.7491   -4.5116   -1.1882 H       1  LIG1        0.0320
     45 H         -16.7427   -3.1951   -0.5703 H       1  LIG1        0.0320
     46 H         -16.7154   -6.0786    2.3982 H       1  LIG1        0.0814
     47 H         -15.7295   -7.4332    1.7682 H       1  LIG1        0.0814
     48 H         -14.5988   -3.5044    0.7277 H       1  LIG1        0.0814
     49 H         -16.0364   -3.7187    1.7722 H       1  LIG1        0.0814
     50 H          -1.8254   -2.2341   -0.8381 H       1  LIG1        0.0294
     51 H          -3.3320   -2.7167   -1.6557 H       1  LIG1        0.0294
     52 H          -1.8108   -2.7383   -2.5460 H       1  LIG1        0.0294
     53 H         -14.0270   -6.4882    2.8497 H       1  LIG1        0.0869
     54 H         -14.4817   -4.8119    3.1870 H       1  LIG1        0.0869
     55 H          -8.1579   -3.9612    0.5776 H       1  LIG1        0.1528
     56 H          -6.3036    1.0478    2.6486 H       1  LIG1        0.1755
     57 H         -14.4862   -5.8704    0.4705 H       1  LIG1        0.2007
@<TRIPOS>BOND
     1     1     4   ar
     2     1     9   ar
     3     2     3   ar
     4     2    11   ar
     5     3    12   ar
     6     4    14   ar
     7     5    10   ar
     8     5    11   ar
     9     6    10   ar
    10     6    16   ar
    11     7    13   ar
    12     7    14   ar
    13     8    17   ar
    14     8    25   ar
    15     9    13   ar
    16     9    15   ar
    17    10    12   ar
    18    11    24    1
    19    12    28   ar
    20    13    29   ar
    21    14    30    1
    22    15    16    1
    23    15    26   ar
    24    16    28   ar
    25    17    23    1
    26    17    30   ar
    27    18    19    1
    28    18    20    1
    29    19    21    1
    30    20    22    1
    31    21    31    1
    32    22    31    1
    33    24    31    1
    34    25    27   ar
    35    26    29   ar
    36    27    30   ar
    37     1    32    1
    38     2    33    1
    39     3    34    1
    40     4    35    1
    41     5    36    1
    42     6    37    1
    43     7    38    1
    44     8    39    1
    45    18    40    1
    46    18    41    1
    47    19    42    1
    48    19    43    1
    49    20    44    1
    50    20    45    1
    51    21    46    1
    52    21    47    1
    53    22    48    1
    54    22    49    1
    55    23    50    1
    56    23    51    1
    57    23    52    1
    58    24    53    1
    59    24    54    1
    60    28    55    1
    61    29    56    1
    62    31    57    1
