@<TRIPOS>MOLECULE
ChEBML1163574
 42 45 0 0 0
SMALL
USER_CHARGES

@<TRIPOS>ATOM
      1 C         -12.0045   -3.4457    2.0446 C.ar    1  LIG1       -0.0482
      2 C         -12.5496   -4.5718    1.4963 C.ar    1  LIG1       -0.0310
      3 C         -10.4458   -5.1222    0.4608 C.ar    1  LIG1       -0.0097
      4 C          -8.9717   -0.1102    3.2045 C.ar    1  LIG1        0.1180
      5 C         -10.6656   -3.1331    1.8090 C.ar    1  LIG1        0.0238
      6 C          -9.7936   -2.0284    2.2367 C.ar    1  LIG1        0.0988
      7 C          -9.8775   -3.9761    1.0080 C.ar    1  LIG1        0.0426
      8 C          -8.5364   -2.2729    1.6686 C.ar    1  LIG1        0.0981
      9 C         -11.7762   -5.4128    0.7008 C.ar    1  LIG1        0.0765
     10 C          -7.5093   -1.3559    1.9246 C.ar    1  LIG1        0.1457
     11 C          -3.2667    0.0609   -0.9468 C.2     1  LIG1        0.2981
     12 C          -6.3798   -1.4256   -0.0666 C.3     1  LIG1        0.0289
     13 C          -5.4210   -0.4188    1.8469 C.3     1  LIG1        0.0289
     14 C          -5.0164   -1.6481   -0.7292 C.3     1  LIG1        0.0315
     15 C          -3.9943   -0.5748    1.3106 C.3     1  LIG1        0.0315
     16 C         -13.6964   -6.5569    0.5816 C.3     1  LIG1        0.0422
     17 N          -9.9671   -0.9442    2.9921 N.ar    1  LIG1       -0.2341
     18 N          -7.7715   -0.3008    2.6892 N.ar    1  LIG1       -0.2194
     19 N          -8.6046   -3.4436    0.9358 N.ar    1  LIG1       -0.3096
     20 N          -6.2439   -1.5443    1.3896 N.pl3   1  LIG1       -0.3110
     21 N          -4.0592   -0.6888   -0.1553 N.am    1  LIG1       -0.2829
     22 N          -2.3206    0.8497   -0.3999 N.am    1  LIG1       -0.3128
     23 O          -3.4056    0.0257   -2.1543 O.2     1  LIG1       -0.2543
     24 O         -12.3309   -6.5296    0.1612 O.3     1  LIG1       -0.3492
     25 H         -12.6101   -2.7971    2.6602 H       1  LIG1        0.0631
     26 H         -13.5865   -4.8109    1.6807 H       1  LIG1        0.0650
     27 H          -9.8502   -5.7812   -0.1535 H       1  LIG1        0.0670
     28 H          -9.1426    0.7599    3.8211 H       1  LIG1        0.1063
     29 H          -7.0853   -2.1740   -0.4276 H       1  LIG1        0.0485
     30 H          -6.7470   -0.4303   -0.3169 H       1  LIG1        0.0485
     31 H          -5.8468    0.5150    1.4796 H       1  LIG1        0.0485
     32 H          -5.3995   -0.4039    2.9365 H       1  LIG1        0.0485
     33 H          -4.6765   -2.6656   -0.5367 H       1  LIG1        0.0486
     34 H          -5.0996   -1.4853   -1.8037 H       1  LIG1        0.0486
     35 H          -3.5411   -1.4735    1.7290 H       1  LIG1        0.0486
     36 H          -3.4015    0.2977    1.5851 H       1  LIG1        0.0486
     37 H         -14.2046   -5.6611    0.2244 H       1  LIG1        0.0535
     38 H         -14.1855   -7.4402    0.1708 H       1  LIG1        0.0535
     39 H         -13.7409   -6.5901    1.6702 H       1  LIG1        0.0535
     40 H          -7.8661   -3.8343    0.4431 H       1  LIG1        0.1530
     41 H          -2.0807    0.7432    0.5339 H       1  LIG1        0.1471
     42 H          -1.8796    1.5238   -0.9402 H       1  LIG1        0.1471
@<TRIPOS>BOND
     1     1     2   ar
     2     1     5   ar
     3     2     9   ar
     4     3     7   ar
     5     3     9   ar
     6     4    17   ar
     7     4    18   ar
     8     5     6   ar
     9     5     7   ar
    10     6     8   ar
    11     6    17   ar
    12     7    19   ar
    13     8    10   ar
    14     8    19   ar
    15     9    24    1
    16    10    18   ar
    17    10    20    1
    18    11    21   am
    19    11    22   am
    20    11    23    2
    21    12    14    1
    22    12    20    1
    23    13    15    1
    24    13    20    1
    25    14    21    1
    26    15    21    1
    27    16    24    1
    28     1    25    1
    29     2    26    1
    30     3    27    1
    31     4    28    1
    32    12    29    1
    33    12    30    1
    34    13    31    1
    35    13    32    1
    36    14    33    1
    37    14    34    1
    38    15    35    1
    39    15    36    1
    40    16    37    1
    41    16    38    1
    42    16    39    1
    43    19    40    1
    44    22    41    1
    45    22    42    1
