@<TRIPOS>MOLECULE
ChEBML622526
 44 47 0 0 0
SMALL
USER_CHARGES

@<TRIPOS>ATOM
      1 C          -1.9857    0.8372   -3.2613 C.ar    1  LIG1       -0.0432
      2 C          -6.5508   -2.6200   -0.4083 C.3     1  LIG1       -0.0457
      3 C          -5.5592   -2.0692   -1.2229 C.3     1  LIG1       -0.0516
      4 C          -1.7823   -0.4795   -2.8634 C.ar    1  LIG1       -0.0463
      5 C         -11.7457   -5.4022    0.6468 C.ar    1  LIG1       -0.0450
      6 C         -10.3840   -5.1826    0.8224 C.ar    1  LIG1       -0.0209
      7 C          -8.0863   -1.9474    2.9141 C.3     1  LIG1        0.0241
      8 C          -5.1364   -0.3550    0.4276 C.3     1  LIG1        0.0198
      9 C          -3.1305    1.4792   -2.8176 C.ar    1  LIG1        0.0276
     10 C         -12.1292   -3.1141    1.1708 C.ar    1  LIG1        0.0413
     11 C          -7.3499   -0.8289    3.2672 C.3     1  LIG1        0.1690
     12 C          -6.8482   -2.0442    0.8369 C.3     1  LIG1        0.0677
     13 C          -4.8545   -0.9405   -0.8059 C.3     1  LIG1        0.0074
     14 C         -12.6417   -4.3534    0.8225 C.ar    1  LIG1        0.0739
     15 C          -2.7167   -1.1049   -2.0455 C.ar    1  LIG1        0.0818
     16 C          -6.1279   -0.9010    1.2487 C.3     1  LIG1        0.2130
     17 C          -7.8333   -2.5585    1.6908 C.3     1  LIG1        0.0514
     18 C          -3.8287   -0.3759   -1.6561 C.ar    1  LIG1        0.0826
     19 C          -9.9726   -3.9062    1.1705 C.ar    1  LIG1        0.1216
     20 C         -14.1041   -4.5568    0.6426 C.3     1  LIG1        0.4175
     21 C          -2.4965   -2.5172   -1.6217 C.3     1  LIG1        0.4181
     22 N          -4.0606    0.9046   -2.0225 N.ar    1  LIG1       -0.2556
     23 N         -10.8131   -2.8625    1.3500 N.ar    1  LIG1       -0.2407
     24 N          -6.4109   -0.3464    2.4425 N.3     1  LIG1       -0.2109
     25 N          -8.5931   -3.7002    1.3435 N.pl3   1  LIG1       -0.2988
     26 F         -14.4450   -5.8363    0.3005 F       1  LIG1       -0.1661
     27 F         -14.8399   -4.2835    1.7624 F       1  LIG1       -0.1661
     28 F         -14.6314   -3.7663   -0.3394 F       1  LIG1       -0.1661
     29 F          -1.3430   -3.0626   -2.1103 F       1  LIG1       -0.1660
     30 F          -2.4186   -2.6763   -0.2670 F       1  LIG1       -0.1660
     31 F          -3.4969   -3.3510   -2.0309 F       1  LIG1       -0.1660
     32 H          -1.2699    1.3439   -3.8985 H       1  LIG1        0.0639
     33 H          -7.0785   -3.5001   -0.7679 H       1  LIG1        0.0632
     34 H          -5.3472   -2.5336   -2.1832 H       1  LIG1        0.0630
     35 H          -0.8927   -1.0084   -3.1944 H       1  LIG1        0.0630
     36 H         -12.0999   -6.3924    0.3736 H       1  LIG1        0.0631
     37 H          -9.6778   -5.9956    0.6876 H       1  LIG1        0.0659
     38 H          -8.8446   -2.3310    3.5899 H       1  LIG1        0.0706
     39 H          -4.5890    0.5254    0.7571 H       1  LIG1        0.0700
     40 H          -3.3365    2.5059   -3.1016 H       1  LIG1        0.0840
     41 H         -12.7796   -2.2581    1.3218 H       1  LIG1        0.0847
     42 H          -7.4812   -0.2932    4.1974 H       1  LIG1        0.1394
     43 H          -5.8911    0.4796    2.7403 H       1  LIG1        0.4533
     44 H          -8.0282   -4.5285    1.1918 H       1  LIG1        0.1543
@<TRIPOS>BOND
     1     1     4   ar
     2     1     9   ar
     3     2     3    1
     4     2    12    1
     5     3    13    1
     6     4    15   ar
     7     5     6   ar
     8     5    14   ar
     9     6    19   ar
    10     7    11    1
    11     7    17    1
    12     8    13    1
    13     8    16    1
    14     9    22   ar
    15    10    14   ar
    16    10    23   ar
    17    11    24    1
    18    12    16    1
    19    12    17    1
    20    13    18    1
    21    14    20    1
    22    15    18   ar
    23    15    21    1
    24    16    24    1
    25    17    25    1
    26    18    22   ar
    27    19    23   ar
    28    19    25    1
    29    20    26    1
    30    20    27    1
    31    20    28    1
    32    21    29    1
    33    21    30    1
    34    21    31    1
    35     1    32    1
    36     2    33    1
    37     3    34    1
    38     4    35    1
    39     5    36    1
    40     6    37    1
    41     7    38    1
    42     8    39    1
    43     9    40    1
    44    10    41    1
    45    11    42    1
    46    24    43    1
    47    25    44    1
