@<TRIPOS>MOLECULE
ChEBML348110
 39 42 0 0 0
SMALL
USER_CHARGES

@<TRIPOS>ATOM
      1 C          -2.8825   -1.5942   -1.7809 C.ar    1  LIG1       -0.0574
      2 C          -3.6833   -2.2760   -0.8600 C.ar    1  LIG1       -0.0399
      3 C         -10.1064   -5.3267    0.5121 C.ar    1  LIG1       -0.0376
      4 C         -11.4192   -5.7869    0.6491 C.ar    1  LIG1       -0.0299
      5 C          -4.2574    0.3984   -1.5886 C.ar    1  LIG1       -0.0501
      6 C         -12.0927   -3.7193    1.7298 C.ar    1  LIG1       -0.0226
      7 C          -6.2385    0.0968    0.0812 C.ar    1  LIG1       -0.0276
      8 C         -10.1269   -2.0211    1.9674 C.ar    1  LIG1       -0.0275
      9 C          -5.0790   -0.2686   -0.6582 C.ar    1  LIG1       -0.0020
     10 C         -10.7759   -3.2340    1.6029 C.ar    1  LIG1        0.0003
     11 C          -3.1632   -0.2777   -2.1409 C.ar    1  LIG1       -0.0504
     12 C          -4.7735   -1.5877   -0.3162 C.ar    1  LIG1        0.0378
     13 C          -9.8151   -4.0472    0.9982 C.ar    1  LIG1        0.0379
     14 C         -12.3986   -4.9974    1.2482 C.ar    1  LIG1        0.0753
     15 C          -6.6080   -0.9874    0.8434 C.ar    1  LIG1        0.0811
     16 C          -8.8092   -2.1199    1.5844 C.ar    1  LIG1        0.0811
     17 C          -7.7085   -1.1020    1.7473 C.2     1  LIG1        0.2206
     18 C          -2.2882    0.4221   -3.1273 C.3     1  LIG1       -0.0397
     19 C         -14.6264   -4.6187    1.9893 C.3     1  LIG1        0.0422
     20 N          -5.7182   -1.9984    0.5971 N.ar    1  LIG1       -0.3112
     21 N          -8.6308   -3.3454    1.0005 N.ar    1  LIG1       -0.3112
     22 O          -7.8155   -0.3465    2.7413 O.2     1  LIG1       -0.2856
     23 O         -13.6699   -5.4740    1.3673 O.3     1  LIG1       -0.3493
     24 H          -2.0293   -2.1088   -2.2172 H       1  LIG1        0.0626
     25 H          -3.4640   -3.3009   -0.5803 H       1  LIG1        0.0643
     26 H          -9.3447   -5.9420    0.0451 H       1  LIG1        0.0643
     27 H         -11.6720   -6.7781    0.2795 H       1  LIG1        0.0651
     28 H          -4.4727    1.4250   -1.8722 H       1  LIG1        0.0632
     29 H         -12.8623   -3.1094    2.1951 H       1  LIG1        0.0657
     30 H          -6.7453    1.0524    0.0548 H       1  LIG1        0.0651
     31 H         -10.5797   -1.1695    2.4578 H       1  LIG1        0.0651
     32 H          -2.6607    0.2636   -4.1462 H       1  LIG1        0.0280
     33 H          -2.2538    1.5014   -2.9322 H       1  LIG1        0.0280
     34 H          -1.2554    0.0553   -3.0721 H       1  LIG1        0.0280
     35 H         -15.5975   -5.1189    2.0207 H       1  LIG1        0.0535
     36 H         -14.7032   -3.6857    1.4256 H       1  LIG1        0.0535
     37 H         -14.2984   -4.4005    3.0084 H       1  LIG1        0.0535
     38 H          -5.7477   -2.9151    1.0223 H       1  LIG1        0.1529
     39 H          -7.7576   -3.6885    0.6243 H       1  LIG1        0.1529
@<TRIPOS>BOND
     1     1     2   ar
     2     1    11   ar
     3     2    12   ar
     4     3     4   ar
     5     3    13   ar
     6     4    14   ar
     7     5     9   ar
     8     5    11   ar
     9     6    10   ar
    10     6    14   ar
    11     7     9   ar
    12     7    15   ar
    13     8    10   ar
    14     8    16   ar
    15     9    12   ar
    16    10    13   ar
    17    11    18    1
    18    12    20   ar
    19    13    21   ar
    20    14    23    1
    21    15    17    1
    22    15    20   ar
    23    16    17    1
    24    16    21   ar
    25    17    22    2
    26    19    23    1
    27     1    24    1
    28     2    25    1
    29     3    26    1
    30     4    27    1
    31     5    28    1
    32     6    29    1
    33     7    30    1
    34     8    31    1
    35    18    32    1
    36    18    33    1
    37    18    34    1
    38    19    35    1
    39    19    36    1
    40    19    37    1
    41    20    38    1
    42    21    39    1
