@<TRIPOS>MOLECULE
ChEBML942722
 42 45 0 0 0
SMALL
USER_CHARGES

@<TRIPOS>ATOM
      1 C          -2.3525    0.8422   -3.6144 C.ar    1  LIG1       -0.0621
      2 C          -2.8210    1.6302   -2.5791 C.ar    1  LIG1       -0.0604
      3 C          -2.4794   -0.5334   -3.5527 C.ar    1  LIG1       -0.0604
      4 C          -3.4179    1.0452   -1.4796 C.ar    1  LIG1       -0.0409
      5 C          -3.0703   -1.1252   -2.4535 C.ar    1  LIG1       -0.0409
      6 C          -9.9516   -1.9980    1.9463 C.ar    1  LIG1       -0.0389
      7 C         -10.7661   -3.0653    1.5670 C.ar    1  LIG1       -0.0368
      8 C          -3.5471   -0.3364   -1.4144 C.ar    1  LIG1        0.0286
      9 C          -8.5941   -2.1033    1.7253 C.ar    1  LIG1        0.0750
     10 C         -10.1467   -4.1373    1.0049 C.ar    1  LIG1       -0.0068
     11 C          -7.5311   -1.1396    2.0248 C.2     1  LIG1        0.2524
     12 C         -12.2678   -3.3590    1.6212 C.3     1  LIG1       -0.0267
     13 C         -11.1223   -5.2238    0.6440 C.3     1  LIG1       -0.0209
     14 C         -12.3982   -4.8843    1.4450 C.3     1  LIG1       -0.0446
     15 C          -4.5381    0.1582    0.5995 C.3     1  LIG1        0.0274
     16 C          -5.3836   -1.5651   -0.7824 C.3     1  LIG1        0.0274
     17 C          -5.1877   -0.4254    1.8582 C.3     1  LIG1        0.0302
     18 C          -6.0874   -2.2666    0.3894 C.3     1  LIG1        0.0302
     19 N          -4.1499   -0.9313   -0.3036 N.pl3   1  LIG1       -0.3276
     20 N          -6.3204   -1.2703    1.4471 N.am    1  LIG1       -0.2942
     21 O          -7.7402   -0.2242    2.7992 O.2     1  LIG1       -0.2710
     22 S          -8.4713   -3.7152    0.9724 S.2     1  LIG1       -0.0887
     23 H          -1.8867    1.3023   -4.4734 H       1  LIG1        0.0622
     24 H          -2.7202    2.7043   -2.6304 H       1  LIG1        0.0623
     25 H          -2.1126   -1.1459   -4.3630 H       1  LIG1        0.0623
     26 H          -3.7842    1.6613   -0.6717 H       1  LIG1        0.0642
     27 H          -3.1651   -2.1999   -2.4039 H       1  LIG1        0.0642
     28 H         -10.3726   -1.1134    2.4010 H       1  LIG1        0.0640
     29 H         -12.6767   -3.0547    2.5847 H       1  LIG1        0.0316
     30 H         -12.7825   -2.8408    0.8121 H       1  LIG1        0.0316
     31 H         -11.3299   -5.2082   -0.4259 H       1  LIG1        0.0322
     32 H         -10.7342   -6.1976    0.9425 H       1  LIG1        0.0322
     33 H         -13.2934   -5.1355    0.8762 H       1  LIG1        0.0273
     34 H         -12.3976   -5.3894    2.4109 H       1  LIG1        0.0273
     35 H          -5.2485    0.8126    0.0944 H       1  LIG1        0.0485
     36 H          -3.6535    0.7303    0.8794 H       1  LIG1        0.0485
     37 H          -6.0424   -0.8054   -1.2031 H       1  LIG1        0.0485
     38 H          -5.1400   -2.2995   -1.5503 H       1  LIG1        0.0485
     39 H          -5.5453    0.3834    2.4954 H       1  LIG1        0.0486
     40 H          -4.4594   -1.0271    2.4019 H       1  LIG1        0.0486
     41 H          -5.4570   -3.0688    0.7731 H       1  LIG1        0.0486
     42 H          -7.0405   -2.6763    0.0545 H       1  LIG1        0.0486
@<TRIPOS>BOND
     1     1     2   ar
     2     1     3   ar
     3     2     4   ar
     4     3     5   ar
     5     4     8   ar
     6     5     8   ar
     7     6     7   ar
     8     6     9   ar
     9     7    10   ar
    10     7    12    1
    11     8    19    1
    12     9    11    1
    13     9    22   ar
    14    10    13    1
    15    10    22   ar
    16    11    20   am
    17    11    21    2
    18    12    14    1
    19    13    14    1
    20    15    17    1
    21    15    19    1
    22    16    18    1
    23    16    19    1
    24    17    20    1
    25    18    20    1
    26     1    23    1
    27     2    24    1
    28     3    25    1
    29     4    26    1
    30     5    27    1
    31     6    28    1
    32    12    29    1
    33    12    30    1
    34    13    31    1
    35    13    32    1
    36    14    33    1
    37    14    34    1
    38    15    35    1
    39    15    36    1
    40    16    37    1
    41    16    38    1
    42    17    39    1
    43    17    40    1
    44    18    41    1
    45    18    42    1
