@<TRIPOS>MOLECULE
ChEBML232721
 44 46 0 0 0
SMALL
USER_CHARGES

@<TRIPOS>ATOM
      1 C          -6.7310   -1.4713   -0.5577 C.ar    1  LIG1       -0.0455
      2 C         -10.2182   -5.2436    0.5955 C.ar    1  LIG1       -0.0376
      3 C          -5.6619   -1.4370   -1.4530 C.ar    1  LIG1       -0.0282
      4 C         -11.5499   -5.6439    0.7366 C.ar    1  LIG1       -0.0299
      5 C         -12.1410   -3.5203    1.7554 C.ar    1  LIG1       -0.0226
      6 C         -10.1063   -1.9008    1.9588 C.ar    1  LIG1       -0.0275
      7 C         -10.8042   -3.0947    1.6237 C.ar    1  LIG1        0.0003
      8 C          -6.5393   -1.0972    0.7722 C.ar    1  LIG1        0.0570
      9 C          -9.8756   -3.9644    1.0480 C.ar    1  LIG1        0.0379
     10 C         -12.4982   -4.7972    1.3073 C.ar    1  LIG1        0.0753
     11 C          -4.4010   -1.0286   -1.0183 C.ar    1  LIG1        0.1075
     12 C          -5.2783   -0.6887    1.2070 C.ar    1  LIG1        0.1187
     13 C          -4.2092   -0.6544    0.3118 C.ar    1  LIG1        0.1359
     14 C          -8.7919   -2.0657    1.5873 C.ar    1  LIG1        0.0798
     15 C          -7.7100   -1.1423    1.7217 C.2     1  LIG1        0.2093
     16 C         -14.7119   -4.3045    2.0231 C.3     1  LIG1        0.0422
     17 C          -3.1599    0.2156   -2.6206 C.3     1  LIG1        0.0424
     18 C          -4.7054   -1.3492    3.4186 C.3     1  LIG1        0.0424
     19 C          -1.9125   -1.1962    0.6079 C.3     1  LIG1        0.0425
     20 N          -8.6626   -3.3135    1.0386 N.ar    1  LIG1       -0.3112
     21 O          -7.6798   -0.3070    2.6552 O.2     1  LIG1       -0.2870
     22 O         -13.7892   -5.2163    1.4313 O.3     1  LIG1       -0.3493
     23 O          -3.3655   -0.9996   -1.9031 O.3     1  LIG1       -0.3465
     24 O          -5.0843   -0.3216    2.5065 O.3     1  LIG1       -0.3457
     25 O          -2.9761   -0.2554    0.7353 O.3     1  LIG1       -0.3440
     26 H          -7.7089   -1.7915   -0.9084 H       1  LIG1        0.0632
     27 H          -9.4807   -5.9033    0.1508 H       1  LIG1        0.0643
     28 H          -5.8180   -1.7297   -2.4878 H       1  LIG1        0.0651
     29 H         -11.8426   -6.6334    0.3930 H       1  LIG1        0.0651
     30 H         -12.8865   -2.8657    2.1987 H       1  LIG1        0.0657
     31 H         -10.5252   -1.0175    2.4226 H       1  LIG1        0.0651
     32 H         -15.7035   -4.7620    2.0620 H       1  LIG1        0.0535
     33 H         -14.7460   -3.3850    1.4333 H       1  LIG1        0.0535
     34 H         -14.3805   -4.0719    3.0379 H       1  LIG1        0.0535
     35 H          -2.3042    0.1036   -3.2909 H       1  LIG1        0.0535
     36 H          -2.9794    1.0303   -1.9149 H       1  LIG1        0.0535
     37 H          -4.0538    0.4369   -3.2085 H       1  LIG1        0.0535
     38 H          -4.5832   -0.9239    4.4177 H       1  LIG1        0.0535
     39 H          -3.7684   -1.8042    3.0876 H       1  LIG1        0.0535
     40 H          -5.4892   -2.1101    3.4425 H       1  LIG1        0.0535
     41 H          -0.9862   -0.7528    0.9811 H       1  LIG1        0.0535
     42 H          -1.7974   -1.4772   -0.4420 H       1  LIG1        0.0535
     43 H          -2.1516   -2.0849    1.1967 H       1  LIG1        0.0535
     44 H          -7.8026   -3.7035    0.6776 H       1  LIG1        0.1529
@<TRIPOS>BOND
     1     1     3   ar
     2     1     8   ar
     3     2     4   ar
     4     2     9   ar
     5     3    11   ar
     6     4    10   ar
     7     5     7   ar
     8     5    10   ar
     9     6     7   ar
    10     6    14   ar
    11     7     9   ar
    12     8    12   ar
    13     8    15    1
    14     9    20   ar
    15    10    22    1
    16    11    13   ar
    17    11    23    1
    18    12    13   ar
    19    12    24    1
    20    13    25    1
    21    14    15    1
    22    14    20   ar
    23    15    21    2
    24    16    22    1
    25    17    23    1
    26    18    24    1
    27    19    25    1
    28     1    26    1
    29     2    27    1
    30     3    28    1
    31     4    29    1
    32     5    30    1
    33     6    31    1
    34    16    32    1
    35    16    33    1
    36    16    34    1
    37    17    35    1
    38    17    36    1
    39    17    37    1
    40    18    38    1
    41    18    39    1
    42    18    40    1
    43    19    41    1
    44    19    42    1
    45    19    43    1
    46    20    44    1
