@<TRIPOS>MOLECULE
ChEBML204639
 70 74 0 0 0
SMALL
USER_CHARGES

@<TRIPOS>ATOM
      1 C          -2.0333    1.4558   -3.1010 C.ar    1  LIG1       -0.0418
      2 C         -10.4277   -4.5577   -0.1045 C.ar    1  LIG1       -0.0383
      3 C          -1.5284    0.1909   -2.8211 C.ar    1  LIG1       -0.0360
      4 C         -11.8195   -4.6668   -0.1761 C.ar    1  LIG1       -0.0377
      5 C         -12.0718   -3.6125    1.9969 C.ar    1  LIG1       -0.0304
      6 C          -9.7856   -2.9630    3.0720 C.ar    1  LIG1       -0.0261
      7 C          -3.3204    1.7482   -2.6793 C.ar    1  LIG1        0.0292
      8 C         -10.6711   -3.4917    2.0915 C.ar    1  LIG1       -0.0003
      9 C          -9.8830   -3.9661    1.0408 C.ar    1  LIG1        0.0379
     10 C         -12.6307   -4.2021    0.8573 C.ar    1  LIG1        0.0437
     11 C          -2.3149   -0.7299   -2.1378 C.ar    1  LIG1        0.0672
     12 C          -8.5010   -3.1240    2.6064 C.ar    1  LIG1        0.0947
     13 C          -3.5893   -0.3395   -1.7591 C.ar    1  LIG1        0.1416
     14 C          -7.2712   -2.7477    3.2400 C.2     1  LIG1        0.2598
     15 C          -4.7498   -2.7098   -3.1783 C.3     1  LIG1       -0.0327
     16 C          -6.0401   -2.7225   -2.4123 C.3     1  LIG1       -0.0327
     17 C          -4.3652   -1.9872    1.2725 C.3     1  LIG1       -0.0185
     18 C          -6.4311   -0.9546    0.2379 C.3     1  LIG1       -0.0185
     19 C          -5.0082   -1.8100    2.6473 C.3     1  LIG1        0.0162
     20 C          -7.0308   -0.8227    1.6387 C.3     1  LIG1        0.0162
     21 C          -4.7390   -2.5380   -1.6877 C.3     1  LIG1        0.0246
     22 C          -4.8970   -0.9713    0.2537 C.3     1  LIG1        0.0274
     23 C          -0.4996   -2.8074   -3.7116 C.3     1  LIG1       -0.0470
     24 C          -0.0716   -3.5999   -1.3590 C.3     1  LIG1       -0.0470
     25 C         -14.7044   -6.1241    2.6399 C.3     1  LIG1        0.0225
     26 C          -0.4916   -2.4304   -2.2372 C.3     1  LIG1        0.0142
     27 N          -4.1142    0.8801   -2.0132 N.ar    1  LIG1       -0.2394
     28 N          -8.5700   -3.7297    1.3804 N.ar    1  LIG1       -0.3101
     29 N          -6.4733   -1.8333    2.5391 N.am    1  LIG1       -0.2966
     30 N          -1.8056   -2.0108   -1.8533 N.pl3   1  LIG1       -0.3393
     31 N         -14.0500   -4.3280    0.7537 N.pl3   1  LIG1       -0.2633
     32 N          -4.3876   -1.2603   -1.0718 N.pl3   1  LIG1       -0.3081
     33 O          -6.9644   -3.2173    4.3345 O.2     1  LIG1       -0.2702
     34 O         -16.1333   -5.8233    0.4869 O.2     1  LIG1       -0.4814
     35 O         -13.8635   -6.8966    0.2854 O.2     1  LIG1       -0.4814
     36 S         -14.7374   -5.9020    0.8753 S.O2    1  LIG1       -0.1957
     37 H          -1.4384    2.1897   -3.6324 H       1  LIG1        0.0639
     38 H          -9.7969   -4.9196   -0.9094 H       1  LIG1        0.0643
     39 H          -0.5217   -0.0653   -3.1403 H       1  LIG1        0.0644
     40 H         -12.2645   -5.1236   -1.0575 H       1  LIG1        0.0643
     41 H         -12.7071   -3.2510    2.8013 H       1  LIG1        0.0650
     42 H         -10.0633   -2.5137    4.0163 H       1  LIG1        0.0651
     43 H          -3.7615    2.7205   -2.8729 H       1  LIG1        0.0840
     44 H          -4.3932   -3.6497   -3.5807 H       1  LIG1        0.0286
     45 H          -4.5424   -1.8469   -3.7995 H       1  LIG1        0.0286
     46 H          -6.6966   -1.8679   -2.5187 H       1  LIG1        0.0286
     47 H          -6.5507   -3.6709   -2.2994 H       1  LIG1        0.0286
     48 H          -3.2757   -1.9056    1.3638 H       1  LIG1        0.0302
     49 H          -4.5852   -2.9987    0.9075 H       1  LIG1        0.0302
     50 H          -6.7836   -1.8952   -0.2051 H       1  LIG1        0.0302
     51 H          -6.8017   -0.1413   -0.3972 H       1  LIG1        0.0302
     52 H          -4.6420   -2.5918    3.3175 H       1  LIG1        0.0470
     53 H          -4.7280   -0.8501    3.0957 H       1  LIG1        0.0470
     54 H          -6.8060    0.1605    2.0682 H       1  LIG1        0.0470
     55 H          -8.1204   -0.9106    1.5818 H       1  LIG1        0.0470
     56 H          -4.3811   -3.3745   -1.0980 H       1  LIG1        0.0505
     57 H          -4.5371    0.0257    0.5331 H       1  LIG1        0.0507
     58 H          -1.1777   -3.6470   -3.8956 H       1  LIG1        0.0249
     59 H          -0.8194   -1.9667   -4.3377 H       1  LIG1        0.0249
     60 H           0.5022   -3.1016   -4.0429 H       1  LIG1        0.0249
     61 H          -0.7426   -4.4539   -1.5028 H       1  LIG1        0.0249
     62 H          -0.0987   -3.3220   -0.3003 H       1  LIG1        0.0249
     63 H           0.9438   -3.9355   -1.5979 H       1  LIG1        0.0249
     64 H         -15.1215   -7.1056    2.8713 H       1  LIG1        0.0442
     65 H         -13.6683   -6.0601    2.9757 H       1  LIG1        0.0442
     66 H         -15.3044   -5.3361    3.0974 H       1  LIG1        0.0442
     67 H           0.1923   -1.5897   -2.0770 H       1  LIG1        0.0497
     68 H          -7.7744   -3.9703    0.8053 H       1  LIG1        0.1529
     69 H          -2.4085   -2.6433   -1.3592 H       1  LIG1        0.1469
     70 H         -14.5776   -3.5886    1.2459 H       1  LIG1        0.1702
@<TRIPOS>BOND
     1     1     3   ar
     2     1     7   ar
     3     2     4   ar
     4     2     9   ar
     5     3    11   ar
     6     4    10   ar
     7     5     8   ar
     8     5    10   ar
     9     6     8   ar
    10     6    12   ar
    11     7    27   ar
    12     8     9   ar
    13     9    28   ar
    14    10    31    1
    15    11    13   ar
    16    11    30    1
    17    12    14    1
    18    12    28   ar
    19    13    27   ar
    20    13    32    1
    21    14    29   am
    22    14    33    2
    23    15    16    1
    24    15    21    1
    25    16    21    1
    26    17    19    1
    27    17    22    1
    28    18    20    1
    29    18    22    1
    30    19    29    1
    31    20    29    1
    32    21    32    1
    33    22    32    1
    34    23    26    1
    35    24    26    1
    36    25    36    1
    37    26    30    1
    38    31    36    1
    39    34    36    2
    40    35    36    2
    41     1    37    1
    42     2    38    1
    43     3    39    1
    44     4    40    1
    45     5    41    1
    46     6    42    1
    47     7    43    1
    48    15    44    1
    49    15    45    1
    50    16    46    1
    51    16    47    1
    52    17    48    1
    53    17    49    1
    54    18    50    1
    55    18    51    1
    56    19    52    1
    57    19    53    1
    58    20    54    1
    59    20    55    1
    60    21    56    1
    61    22    57    1
    62    23    58    1
    63    23    59    1
    64    23    60    1
    65    24    61    1
    66    24    62    1
    67    24    63    1
    68    25    64    1
    69    25    65    1
    70    25    66    1
    71    26    67    1
    72    28    68    1
    73    30    69    1
    74    31    70    1
