@<TRIPOS>MOLECULE
ChEBML300370
 60 63 0 0 0
SMALL
USER_CHARGES

@<TRIPOS>ATOM
      1 C           2.7000   -2.3902   -2.8363 C.ar    1  LIG1       -0.0622
      2 C           2.3970   -3.5006   -2.0482 C.ar    1  LIG1       -0.0619
      3 C           2.1663   -1.1416   -2.5168 C.ar    1  LIG1       -0.0619
      4 C           1.5603   -3.3624   -0.9408 C.ar    1  LIG1       -0.0567
      5 C           1.3295   -1.0035   -1.4095 C.ar    1  LIG1       -0.0567
      6 C         -10.3464   -5.1708    0.4644 C.ar    1  LIG1       -0.0387
      7 C         -11.6840   -5.5239    0.6649 C.ar    1  LIG1       -0.0416
      8 C         -12.0824   -3.5080    1.9590 C.ar    1  LIG1       -0.0343
      9 C          -9.9534   -2.0171    2.1806 C.ar    1  LIG1       -0.0262
     10 C         -10.7378   -3.1313    1.7702 C.ar    1  LIG1       -0.0007
     11 C           1.0265   -2.1138   -0.6214 C.ar    1  LIG1       -0.0223
     12 C          -9.9025   -3.9696    1.0287 C.ar    1  LIG1        0.0379
     13 C         -12.5403   -4.7067    1.4003 C.ar    1  LIG1        0.0413
     14 C          -8.6808   -2.1975    1.6898 C.ar    1  LIG1        0.0945
     15 C          -7.4978   -1.3127    1.8473 C.2     1  LIG1        0.2576
     16 C          -4.6246   -0.6215   -0.0685 C.2     1  LIG1        0.2319
     17 C          -2.3915    0.0731   -3.6638 C.3     1  LIG1       -0.0515
     18 C          -3.1449    1.4015   -3.5519 C.3     1  LIG1       -0.0515
     19 C          -2.5704   -0.6276   -2.3196 C.3     1  LIG1       -0.0344
     20 C          -3.7375    1.4329   -2.1455 C.3     1  LIG1       -0.0344
     21 C          -2.8162    0.5191   -1.3464 C.3     1  LIG1        0.0254
     22 C           0.1261   -1.9645    0.5696 C.3     1  LIG1        0.0718
     23 C          -5.0915   -1.0116    1.3228 C.3     1  LIG1        0.0887
     24 C          -2.6443    0.4028    1.1095 C.3     1  LIG1        0.0380
     25 C          -1.6783   -0.7248    1.4242 C.3     1  LIG1        0.0629
     26 N          -8.6600   -3.3778    0.9963 N.ar    1  LIG1       -0.3101
     27 N          -6.3227   -1.7439    1.2398 N.am    1  LIG1       -0.3013
     28 N          -3.3969    0.0808   -0.1105 N.am    1  LIG1       -0.2952
     29 O          -7.6036   -0.2810    2.5053 O.2     1  LIG1       -0.2704
     30 O          -5.2921   -0.9147   -1.0639 O.2     1  LIG1       -0.2756
     31 O          -0.7965   -0.9119    0.3245 O.3     1  LIG1       -0.3751
     32 CL        -14.1832   -5.1752    1.6245 Cl      1  LIG1       -0.0843
     33 H           3.3527   -2.4978   -3.6977 H       1  LIG1        0.0622
     34 H           2.8134   -4.4726   -2.2961 H       1  LIG1        0.0623
     35 H           2.4029   -0.2768   -3.1295 H       1  LIG1        0.0623
     36 H           1.3295   -4.2330   -0.3326 H       1  LIG1        0.0626
     37 H           0.9182   -0.0269   -1.1683 H       1  LIG1        0.0626
     38 H          -9.6806   -5.8082   -0.1078 H       1  LIG1        0.0643
     39 H         -12.0465   -6.4546    0.2338 H       1  LIG1        0.0639
     40 H         -12.7490   -2.8699    2.5332 H       1  LIG1        0.0645
     41 H         -10.2884   -1.1752    2.7718 H       1  LIG1        0.0651
     42 H          -2.7689   -0.5421   -4.4868 H       1  LIG1        0.0267
     43 H          -1.3294    0.2644   -3.8558 H       1  LIG1        0.0267
     44 H          -2.4477    2.2357   -3.6913 H       1  LIG1        0.0267
     45 H          -3.9244    1.4936   -4.3147 H       1  LIG1        0.0267
     46 H          -3.4364   -1.3008   -2.3602 H       1  LIG1        0.0285
     47 H          -1.6977   -1.2286   -2.0458 H       1  LIG1        0.0285
     48 H          -3.7797    2.4470   -1.7357 H       1  LIG1        0.0285
     49 H          -4.7623    1.0409   -2.1632 H       1  LIG1        0.0285
     50 H          -1.8769    1.0331   -1.1106 H       1  LIG1        0.0506
     51 H          -0.4294   -2.8893    0.7592 H       1  LIG1        0.0618
     52 H           0.7072   -1.7309    1.4681 H       1  LIG1        0.0618
     53 H          -4.3536   -1.6589    1.8035 H       1  LIG1        0.0567
     54 H          -5.2790   -0.1194    1.9259 H       1  LIG1        0.0567
     55 H          -3.3596    0.5516    1.9246 H       1  LIG1        0.0493
     56 H          -2.0982    1.3353    0.9374 H       1  LIG1        0.0493
     57 H          -2.2289   -1.6580    1.5783 H       1  LIG1        0.0583
     58 H          -1.0848   -0.5086    2.3186 H       1  LIG1        0.0583
     59 H          -7.8514   -3.7623    0.5271 H       1  LIG1        0.1529
     60 H          -6.3044   -2.6454    0.7641 H       1  LIG1        0.1503
@<TRIPOS>BOND
     1     1     2   ar
     2     1     3   ar
     3     2     4   ar
     4     3     5   ar
     5     4    11   ar
     6     5    11   ar
     7     6     7   ar
     8     6    12   ar
     9     7    13   ar
    10     8    10   ar
    11     8    13   ar
    12     9    10   ar
    13     9    14   ar
    14    10    12   ar
    15    11    22    1
    16    12    26   ar
    17    13    32    1
    18    14    15    1
    19    14    26   ar
    20    15    27   am
    21    15    29    2
    22    16    23    1
    23    16    28   am
    24    16    30    2
    25    17    18    1
    26    17    19    1
    27    18    20    1
    28    19    21    1
    29    20    21    1
    30    21    28    1
    31    22    31    1
    32    23    27    1
    33    24    25    1
    34    24    28    1
    35    25    31    1
    36     1    33    1
    37     2    34    1
    38     3    35    1
    39     4    36    1
    40     5    37    1
    41     6    38    1
    42     7    39    1
    43     8    40    1
    44     9    41    1
    45    17    42    1
    46    17    43    1
    47    18    44    1
    48    18    45    1
    49    19    46    1
    50    19    47    1
    51    20    48    1
    52    20    49    1
    53    21    50    1
    54    22    51    1
    55    22    52    1
    56    23    53    1
    57    23    54    1
    58    24    55    1
    59    24    56    1
    60    25    57    1
    61    25    58    1
    62    26    59    1
    63    27    60    1
