@<TRIPOS>MOLECULE
ChEBML1137469
 46 49 0 0 0
SMALL
USER_CHARGES

@<TRIPOS>ATOM
      1 C          -1.5405   -2.0018   -1.4027 C.1     1  LIG1        0.1011
      2 C          -2.1148    0.8828   -3.6680 C.ar    1  LIG1       -0.0608
      3 C          -3.3656    1.3082   -3.2500 C.ar    1  LIG1       -0.0603
      4 C          -1.5130   -0.2030   -3.0702 C.ar    1  LIG1       -0.0425
      5 C         -12.5287   -4.6159    1.3017 C.ar    1  LIG1       -0.0513
      6 C         -12.7749   -2.5626    2.5400 C.ar    1  LIG1       -0.0513
      7 C          -4.0232    0.6496   -2.2308 C.ar    1  LIG1       -0.0396
      8 C         -13.8612   -4.9013    1.5198 C.ar    1  LIG1       -0.0428
      9 C         -14.1076   -2.8540    2.7484 C.ar    1  LIG1       -0.0428
     10 C          -9.8568   -1.9926    2.0384 C.ar    1  LIG1       -0.0059
     11 C          -2.1631   -0.8765   -2.0328 C.ar    1  LIG1        0.0731
     12 C         -11.9774   -3.4426    1.8117 C.ar    1  LIG1        0.0019
     13 C          -3.4327   -0.4468   -1.6160 C.ar    1  LIG1        0.0467
     14 C         -14.6497   -4.0237    2.2441 C.ar    1  LIG1        0.0406
     15 C         -10.5445   -3.1312    1.5803 C.ar    1  LIG1        0.0905
     16 C          -8.5608   -2.1413    1.5825 C.ar    1  LIG1        0.1123
     17 C          -7.4395   -1.2121    1.7963 C.2     1  LIG1        0.2614
     18 C          -4.3164   -0.1274    0.4758 C.3     1  LIG1        0.0274
     19 C          -5.4084   -1.4969   -1.1137 C.3     1  LIG1        0.0274
     20 C          -5.0229   -0.8003    1.6571 C.3     1  LIG1        0.0303
     21 C          -6.1860   -2.2650   -0.0337 C.3     1  LIG1        0.0303
     22 N          -1.0467   -2.8944   -0.9029 N.1     1  LIG1       -0.1923
     23 N          -9.6851   -3.8731    0.9139 N.ar    1  LIG1       -0.1834
     24 N          -8.5257   -3.3213    0.8940 N.ar    1  LIG1       -0.2326
     25 N          -4.0932   -1.1119   -0.5892 N.pl3   1  LIG1       -0.3265
     26 N          -6.2661   -1.4155    1.1654 N.am    1  LIG1       -0.2935
     27 O          -7.5719   -0.2606    2.5424 O.2     1  LIG1       -0.2701
     28 CL        -16.3253   -4.3878    2.5148 Cl      1  LIG1       -0.0843
     29 H          -1.6092    1.4048   -4.4670 H       1  LIG1        0.0623
     30 H          -3.8290    2.1603   -3.7250 H       1  LIG1        0.0623
     31 H          -0.5380   -0.5303   -3.3999 H       1  LIG1        0.0637
     32 H         -11.9143   -5.3012    0.7367 H       1  LIG1        0.0630
     33 H         -12.3519   -1.6518    2.9374 H       1  LIG1        0.0630
     34 H          -4.9981    0.9870   -1.9114 H       1  LIG1        0.0643
     35 H         -14.2894   -5.8108    1.1251 H       1  LIG1        0.0638
     36 H         -14.7276   -2.1705    3.3094 H       1  LIG1        0.0638
     37 H         -10.2566   -1.1762    2.6217 H       1  LIG1        0.0668
     38 H          -4.9372    0.6840    0.0959 H       1  LIG1        0.0485
     39 H          -3.3582    0.2733    0.8063 H       1  LIG1        0.0485
     40 H          -5.9626   -0.6019   -1.3965 H       1  LIG1        0.0485
     41 H          -5.2781   -2.1343   -1.9881 H       1  LIG1        0.0485
     42 H          -5.2577   -0.0551    2.4172 H       1  LIG1        0.0486
     43 H          -4.3765   -1.5681    2.0823 H       1  LIG1        0.0486
     44 H          -5.6663   -3.1924    0.2074 H       1  LIG1        0.0486
     45 H          -7.1905   -2.4893   -0.3925 H       1  LIG1        0.0486
     46 H          -7.7411   -3.6889    0.4579 H       1  LIG1        0.1757
@<TRIPOS>BOND
     1     1    11    1
     2     1    22    3
     3     2     3   ar
     4     2     4   ar
     5     3     7   ar
     6     4    11   ar
     7     5     8   ar
     8     5    12   ar
     9     6     9   ar
    10     6    12   ar
    11     7    13   ar
    12     8    14   ar
    13     9    14   ar
    14    10    15   ar
    15    10    16   ar
    16    11    13   ar
    17    12    15    1
    18    13    25    1
    19    14    28    1
    20    15    23   ar
    21    16    17    1
    22    16    24   ar
    23    17    26   am
    24    17    27    2
    25    18    20    1
    26    18    25    1
    27    19    21    1
    28    19    25    1
    29    20    26    1
    30    21    26    1
    31    23    24   ar
    32     2    29    1
    33     3    30    1
    34     4    31    1
    35     5    32    1
    36     6    33    1
    37     7    34    1
    38     8    35    1
    39     9    36    1
    40    10    37    1
    41    18    38    1
    42    18    39    1
    43    19    40    1
    44    19    41    1
    45    20    42    1
    46    20    43    1
    47    21    44    1
    48    21    45    1
    49    24    46    1
