@<TRIPOS>MOLECULE
ChEBML28432
 43 46 0 0 0
SMALL
USER_CHARGES

@<TRIPOS>ATOM
      1 C          -1.7400    0.8828   -4.0486 C.ar    1  LIG1        0.0000
      2 C         -12.5408   -4.9142    2.0104 C.ar    1  LIG1        0.0000
      3 C         -11.7665   -5.6829    1.1436 C.ar    1  LIG1        0.0000
      4 C          -2.9628    1.4370   -3.6704 C.ar    1  LIG1        0.0000
      5 C          -1.1555   -0.1152   -3.2687 C.ar    1  LIG1        0.0000
      6 C         -12.0507   -3.7122    2.5337 C.ar    1  LIG1        0.0000
      7 C         -10.4815   -5.2768    0.7725 C.ar    1  LIG1        0.0000
      8 C          -3.6013    0.9932   -2.5123 C.ar    1  LIG1        0.0000
      9 C          -1.7939   -0.5589   -2.1107 C.ar    1  LIG1        0.0000
     10 C          -9.9620   -2.1497    2.5037 C.ar    1  LIG1        0.0000
     11 C         -10.7578   -3.2824    2.1740 C.ar    1  LIG1        0.0000
     12 C         -10.0046   -4.0731    1.3034 C.ar    1  LIG1        0.0000
     13 C          -3.0168   -0.0047   -1.7324 C.ar    1  LIG1        0.0000
     14 C          -8.7633   -2.2727    1.8395 C.ar    1  LIG1        0.0000
     15 C          -5.0523   -0.4577   -0.3958 C.2     1  LIG1        0.0000
     16 C          -7.6000   -1.3488    1.8585 C.2     1  LIG1        0.0000
     17 C          -4.0143   -3.1432    0.8803 C.2     1  LIG1        0.0000
     18 C          -2.9616   -0.9576    0.5960 C.3     1  LIG1        0.0000
     19 C          -5.2995   -0.9485    1.0196 C.3     1  LIG1        0.0000
     20 C          -4.0319   -1.7024    1.3757 C.3     1  LIG1        0.0000
     21 N          -8.7986   -3.4357    1.1181 N.ar    1  LIG1        0.0000
     22 N          -3.6529   -0.4466   -0.5790 N.am    1  LIG1        0.0000
     23 N          -6.5030   -1.7216    1.0851 N.am    1  LIG1        0.0000
     24 O          -2.8889   -3.5684    0.4985 O.co2   1  LIG1       -0.5000
     25 O          -5.9116   -0.0875   -1.1826 O.2     1  LIG1        0.0000
     26 O          -7.6488   -0.3366    2.5523 O.2     1  LIG1        0.0000
     27 O          -5.1327   -3.7291    0.9155 O.co2   1  LIG1       -0.5000
     28 H          -1.2430    1.2274   -4.9507 H       1  LIG1        0.0000
     29 H         -13.5375   -5.2504    2.2837 H       1  LIG1        0.0000
     30 H         -12.1670   -6.6133    0.7494 H       1  LIG1        0.0000
     31 H          -3.4187    2.2133   -4.2777 H       1  LIG1        0.0000
     32 H          -0.2037   -0.5472   -3.5640 H       1  LIG1        0.0000
     33 H         -12.6651   -3.1222    3.2082 H       1  LIG1        0.0000
     34 H          -9.8787   -5.8757    0.0981 H       1  LIG1        0.0000
     35 H          -4.5542    1.4324   -2.2276 H       1  LIG1        0.0000
     36 H          -1.3289   -1.3373   -1.5106 H       1  LIG1        0.0000
     37 H         -10.2410   -1.3342    3.1576 H       1  LIG1        0.0000
     38 H          -2.5869   -0.0974    1.1626 H       1  LIG1        0.0000
     39 H          -2.1186   -1.5865    0.2895 H       1  LIG1        0.0000
     40 H          -5.4264   -0.0699    1.6623 H       1  LIG1        0.0000
     41 H          -3.8324   -1.7163    2.4516 H       1  LIG1        0.0000
     42 H          -8.0491   -3.7801    0.5337 H       1  LIG1        0.0000
     43 H          -6.5226   -2.6128    0.5873 H       1  LIG1        0.0000
@<TRIPOS>BOND
     1     1     4   ar
     2     1     5   ar
     3     2     3   ar
     4     2     6   ar
     5     3     7   ar
     6     4     8   ar
     7     5     9   ar
     8     6    11   ar
     9     7    12   ar
    10     8    13   ar
    11     9    13   ar
    12    10    11   ar
    13    10    14   ar
    14    11    12   ar
    15    12    21   ar
    16    13    22    1
    17    14    16    1
    18    14    21   ar
    19    15    19    1
    20    15    22   am
    21    15    25    2
    22    16    23   am
    23    16    26    2
    24    17    20    1
    25    17    24   ar
    26    17    27   ar
    27    18    20    1
    28    18    22    1
    29    19    20    1
    30    19    23    1
    31     1    28    1
    32     2    29    1
    33     3    30    1
    34     4    31    1
    35     5    32    1
    36     6    33    1
    37     7    34    1
    38     8    35    1
    39     9    36    1
    40    10    37    1
    41    18    38    1
    42    18    39    1
    43    19    40    1
    44    20    41    1
    45    21    42    1
    46    23    43    1
