@<TRIPOS>MOLECULE
ChEBML138580
 54 57 0 0 0
SMALL
USER_CHARGES

@<TRIPOS>ATOM
      1 C          -3.8437   -0.2206   -0.7245 C.3     1  LIG1        0.0053
      2 C          -4.7251   -2.2143   -1.7499 C.3     1  LIG1        0.0053
      3 C         -10.5149   -5.1894    0.2665 C.ar    1  LIG1       -0.0207
      4 C          -8.7850   -3.3572    0.8660 C.ar    1  LIG1       -0.0361
      5 C         -12.2346   -3.8464    2.0285 C.ar    1  LIG1       -0.0145
      6 C          -2.6334   -0.4675   -1.3568 C.3     1  LIG1        0.1687
      7 C          -3.4925   -2.4107   -2.3563 C.3     1  LIG1        0.1687
      8 C         -10.0533   -4.0262    0.9290 C.ar    1  LIG1       -0.0076
      9 C          -4.8980   -1.1061   -0.9262 C.3     1  LIG1       -0.0357
     10 C         -11.8111   -5.6621    0.4881 C.ar    1  LIG1        0.1054
     11 C         -12.6602   -4.9961    1.3603 C.ar    1  LIG1        0.1059
     12 C         -10.9273   -3.3725    1.8030 C.ar    1  LIG1        0.0224
     13 C          -8.7269   -2.2437    1.6700 C.ar    1  LIG1        0.0559
     14 C          -7.6410   -1.3390    1.8648 C.2     1  LIG1        0.1694
     15 C           0.6513   -4.6743   -2.4339 C.3     1  LIG1       -0.0523
     16 C          -0.8466   -4.3067   -2.4778 C.3     1  LIG1       -0.0444
     17 C           0.9460   -3.1882   -2.7260 C.3     1  LIG1       -0.0444
     18 C          -0.4266   -2.8717   -2.0968 C.3     1  LIG1        0.0182
     19 C         -12.0020   -8.0326    0.4878 C.3     1  LIG1        0.0424
     20 C         -14.9499   -4.9597    0.7184 C.3     1  LIG1        0.0424
     21 C          -6.2245   -0.8662   -0.2525 C.3     1  LIG1       -0.0201
     22 C          -6.2924   -1.5408    1.1195 C.3     1  LIG1        0.0154
     23 C          -1.2084   -1.7754   -2.7954 C.3     1  LIG1        0.1508
     24 N          -2.4941   -1.5422   -2.1448 N.3     1  LIG1       -0.2048
     25 O          -7.7308   -0.3483    2.6421 O.2     1  LIG1       -0.2935
     26 O         -12.2288   -6.7844   -0.1630 O.3     1  LIG1       -0.3465
     27 O         -13.9255   -5.4568    1.5761 O.3     1  LIG1       -0.3465
     28 S         -10.1873   -1.9846    2.5097 S.2     1  LIG1       -0.0856
     29 H          -3.9559    0.6490   -0.0848 H       1  LIG1        0.0688
     30 H          -5.5336   -2.9180   -1.9212 H       1  LIG1        0.0688
     31 H          -9.8558   -5.7176   -0.4192 H       1  LIG1        0.0658
     32 H          -7.9565   -3.6896    0.2519 H       1  LIG1        0.0642
     33 H         -12.9016   -3.3276    2.7120 H       1  LIG1        0.0663
     34 H          -1.7709    0.1781   -1.2455 H       1  LIG1        0.1394
     35 H          -3.2866   -3.2498   -3.0092 H       1  LIG1        0.1394
     36 H           0.9992   -5.0137   -1.4514 H       1  LIG1        0.0267
     37 H           0.9886   -5.3836   -3.1939 H       1  LIG1        0.0267
     38 H          -1.2892   -4.3854   -3.4778 H       1  LIG1        0.0272
     39 H          -1.4866   -4.8359   -1.7669 H       1  LIG1        0.0272
     40 H           1.8232   -2.7709   -2.2248 H       1  LIG1        0.0272
     41 H           1.0047   -2.9540   -3.7957 H       1  LIG1        0.0272
     42 H          -0.3897   -2.6909   -1.0170 H       1  LIG1        0.0368
     43 H         -12.3816   -8.8446   -0.1372 H       1  LIG1        0.0535
     44 H         -12.5084   -8.0368    1.4564 H       1  LIG1        0.0535
     45 H         -10.9281   -8.1644    0.6398 H       1  LIG1        0.0535
     46 H         -15.9077   -5.4057    0.9970 H       1  LIG1        0.0535
     47 H         -14.7092   -5.2057   -0.3189 H       1  LIG1        0.0535
     48 H         -15.0101   -3.8743    0.8288 H       1  LIG1        0.0535
     49 H          -7.0340   -1.2331   -0.8970 H       1  LIG1        0.0320
     50 H          -6.3941    0.2140   -0.1541 H       1  LIG1        0.0320
     51 H          -5.5001   -1.1385    1.7618 H       1  LIG1        0.0354
     52 H          -6.1421   -2.6204    1.0013 H       1  LIG1        0.0354
     53 H          -1.3853   -2.0441   -3.8429 H       1  LIG1        0.1045
     54 H          -0.6365   -0.8407   -2.7938 H       1  LIG1        0.1045
@<TRIPOS>BOND
     1     1     6    1
     2     1     9    1
     3     2     7    1
     4     2     9    1
     5     3     8   ar
     6     3    10   ar
     7     4     8   ar
     8     4    13   ar
     9     5    11   ar
    10     5    12   ar
    11     6    24    1
    12     7    24    1
    13     8    12   ar
    14     9    21    1
    15    10    11   ar
    16    10    26    1
    17    11    27    1
    18    12    28   ar
    19    13    14    1
    20    13    28   ar
    21    14    22    1
    22    14    25    2
    23    15    16    1
    24    15    17    1
    25    16    18    1
    26    17    18    1
    27    18    23    1
    28    19    26    1
    29    20    27    1
    30    21    22    1
    31    23    24    1
    32     1    29    1
    33     2    30    1
    34     3    31    1
    35     4    32    1
    36     5    33    1
    37     6    34    1
    38     7    35    1
    39    15    36    1
    40    15    37    1
    41    16    38    1
    42    16    39    1
    43    17    40    1
    44    17    41    1
    45    18    42    1
    46    19    43    1
    47    19    44    1
    48    19    45    1
    49    20    46    1
    50    20    47    1
    51    20    48    1
    52    21    49    1
    53    21    50    1
    54    22    51    1
    55    22    52    1
    56    23    53    1
    57    23    54    1
