@<TRIPOS>MOLECULE
ChEBML311417
 47 49 0 0 0
SMALL
USER_CHARGES

@<TRIPOS>ATOM
      1 C         -12.0118   -3.7748    1.9884 C.ar    1  LIG1       -0.0569
      2 C         -11.4322   -5.6864    0.6294 C.ar    1  LIG1       -0.0569
      3 C         -10.7239   -3.2658    1.8217 C.ar    1  LIG1       -0.0404
      4 C         -10.1443   -5.1773    0.4626 C.ar    1  LIG1       -0.0404
      5 C          -2.9467   -0.6765   -2.5806 C.ar    1  LIG1       -0.0167
      6 C          -2.0487    0.0241   -3.3664 C.ar    1  LIG1       -0.0193
      7 C         -12.3659   -4.9852    1.3923 C.ar    1  LIG1       -0.0453
      8 C          -9.7902   -3.9669    1.0588 C.ar    1  LIG1        0.0340
      9 C          -3.8917    0.0453   -1.8793 C.ar    1  LIG1        0.1430
     10 C          -2.1552    1.4000   -3.3993 C.ar    1  LIG1        0.1514
     11 C          -8.2549   -2.0893    0.9722 C.2     1  LIG1        0.3050
     12 C          -5.3177   -0.0107    0.1043 C.3     1  LIG1        0.0289
     13 C          -5.5619   -1.7216   -1.7204 C.3     1  LIG1        0.0289
     14 C          -6.8277   -0.2168    0.1993 C.3     1  LIG1        0.0315
     15 C          -6.3539   -2.4977   -0.6671 C.3     1  LIG1        0.0315
     16 C         -13.7500   -6.8862    2.3002 C.3     1  LIG1       -0.0587
     17 C         -14.5062   -5.6490    0.2380 C.3     1  LIG1       -0.0587
     18 C         -13.7429   -5.5294    1.5707 C.3     1  LIG1       -0.0219
     19 N          -3.9726    1.3918   -1.9300 N.ar    1  LIG1       -0.1337
     20 N          -3.0902    2.0802   -2.7027 N.ar    1  LIG1       -0.1367
     21 N          -4.7810   -0.6492   -1.1005 N.pl3   1  LIG1       -0.3112
     22 N          -7.1801   -1.6351    0.1848 N.am    1  LIG1       -0.2824
     23 N          -8.4979   -3.4562    0.8911 N.am    1  LIG1       -0.2691
     24 O          -8.9251   -1.3359    1.6859 O.2     1  LIG1       -0.2537
     25 CL         -1.0963    2.3643   -4.3381 Cl      1  LIG1       -0.0602
     26 H         -12.7322   -3.2229    2.5863 H       1  LIG1        0.0626
     27 H         -11.6993   -6.6305    0.1620 H       1  LIG1        0.0626
     28 H         -10.4590   -2.3213    2.2905 H       1  LIG1        0.0642
     29 H          -9.4241   -5.7326   -0.1331 H       1  LIG1        0.0642
     30 H          -2.8978   -1.7592   -2.5268 H       1  LIG1        0.0661
     31 H          -1.2897   -0.5036   -3.9341 H       1  LIG1        0.0657
     32 H          -5.1032    1.0652    0.1089 H       1  LIG1        0.0485
     33 H          -4.8221   -0.4476    0.9797 H       1  LIG1        0.0485
     34 H          -4.8988   -2.4132   -2.2537 H       1  LIG1        0.0485
     35 H          -6.2521   -1.2888   -2.4560 H       1  LIG1        0.0485
     36 H          -7.2119    0.2585    1.1078 H       1  LIG1        0.0486
     37 H          -7.3359    0.2482   -0.6542 H       1  LIG1        0.0486
     38 H          -6.9910   -3.2343   -1.1675 H       1  LIG1        0.0486
     39 H          -5.6706   -3.0387   -0.0014 H       1  LIG1        0.0486
     40 H         -13.1799   -7.6426    1.7500 H       1  LIG1        0.0236
     41 H         -14.7692   -7.2666    2.4288 H       1  LIG1        0.0236
     42 H         -13.3009   -6.7877    3.2948 H       1  LIG1        0.0236
     43 H         -13.9754   -6.3187   -0.4479 H       1  LIG1        0.0236
     44 H         -14.6069   -4.6758   -0.2547 H       1  LIG1        0.0236
     45 H         -15.5141   -6.0523    0.3854 H       1  LIG1        0.0236
     46 H         -14.3391   -4.8425    2.2012 H       1  LIG1        0.0346
     47 H          -7.7513   -4.1300    0.7657 H       1  LIG1        0.1573
@<TRIPOS>BOND
     1     1     3   ar
     2     1     7   ar
     3     2     4   ar
     4     2     7   ar
     5     3     8   ar
     6     4     8   ar
     7     5     6   ar
     8     5     9   ar
     9     6    10   ar
    10     7    18    1
    11     8    23    1
    12     9    19   ar
    13     9    21    1
    14    10    20   ar
    15    10    25    1
    16    11    22   am
    17    11    23   am
    18    11    24    2
    19    12    14    1
    20    12    21    1
    21    13    15    1
    22    13    21    1
    23    14    22    1
    24    15    22    1
    25    16    18    1
    26    17    18    1
    27    19    20   ar
    28     1    26    1
    29     2    27    1
    30     3    28    1
    31     4    29    1
    32     5    30    1
    33     6    31    1
    34    12    32    1
    35    12    33    1
    36    13    34    1
    37    13    35    1
    38    14    36    1
    39    14    37    1
    40    15    38    1
    41    15    39    1
    42    16    40    1
    43    16    41    1
    44    16    42    1
    45    17    43    1
    46    17    44    1
    47    17    45    1
    48    18    46    1
    49    23    47    1
