@<TRIPOS>MOLECULE
ChEBML735914
 34 36 0 0 0
SMALL
USER_CHARGES

@<TRIPOS>ATOM
      1 C         -12.4178   -4.9801    0.3170 C.ar    1  LIG1       -0.0615
      2 C         -12.7120   -5.0591    1.6708 C.ar    1  LIG1       -0.0611
      3 C         -11.3128   -4.2468   -0.1232 C.ar    1  LIG1       -0.0523
      4 C         -11.9113   -4.4094    2.6120 C.ar    1  LIG1       -0.0476
      5 C          -1.6208   -0.0411   -3.0340 C.ar    1  LIG1       -0.0197
      6 C          -3.5334    1.3723   -3.0604 C.ar    1  LIG1        0.0478
      7 C         -10.4812   -3.5764    0.8063 C.ar    1  LIG1        0.0084
      8 C         -10.7979   -3.6709    2.1650 C.ar    1  LIG1        0.0213
      9 C          -2.3357    0.9861   -3.6401 C.ar    1  LIG1        0.0605
     10 C          -2.1185   -0.6421   -1.8832 C.ar    1  LIG1        0.0826
     11 C          -9.3090   -2.7740    0.6009 C.ar    1  LIG1        0.0690
     12 C          -8.7784   -2.2918    1.7737 C.ar    1  LIG1        0.1040
     13 C          -3.3258   -0.1829   -1.3821 C.ar    1  LIG1        0.1427
     14 C          -7.6299   -1.4674    1.9804 C.2     1  LIG1        0.3015
     15 C          -5.0385   -0.4589    0.4387 C.2     1  LIG1        0.2438
     16 C          -5.2486   -1.3190    1.6660 C.3     1  LIG1        0.1336
     17 N          -4.0487    0.8123   -1.9430 N.ar    1  LIG1       -0.2380
     18 N          -3.8531   -0.7777   -0.2114 N.am    1  LIG1       -0.2668
     19 O          -7.6355   -0.3373    2.5211 O.2     1  LIG1       -0.2599
     20 O          -5.8617    0.3975    0.1301 O.2     1  LIG1       -0.2745
     21 O          -6.4708   -2.0490    1.5149 O.3     1  LIG1       -0.3018
     22 S          -9.6746   -2.7925    3.1344 S.2     1  LIG1       -0.0815
     23 CL         -1.7556    1.7497   -5.0618 Cl      1  LIG1       -0.0826
     24 CL         -1.2204   -1.9139   -1.1447 Cl      1  LIG1       -0.0804
     25 CL         -8.6524   -2.4600   -0.9559 Cl      1  LIG1       -0.0821
     26 H         -13.0482   -5.4900   -0.4060 H       1  LIG1        0.0623
     27 H         -13.5736   -5.6313    2.0038 H       1  LIG1        0.0623
     28 H         -11.1040   -4.1995   -1.1893 H       1  LIG1        0.0630
     29 H         -12.1501   -4.4764    3.6696 H       1  LIG1        0.0635
     30 H          -0.6754   -0.3707   -3.4596 H       1  LIG1        0.0656
     31 H          -4.1373    2.1686   -3.4851 H       1  LIG1        0.0856
     32 H          -4.4144   -2.0173    1.7836 H       1  LIG1        0.0675
     33 H          -5.3090   -0.6988    2.5654 H       1  LIG1        0.0675
     34 H          -3.2999   -1.5254    0.2019 H       1  LIG1        0.1573
@<TRIPOS>BOND
     1     1     2   ar
     2     1     3   ar
     3     2     4   ar
     4     3     7   ar
     5     4     8   ar
     6     5     9   ar
     7     5    10   ar
     8     6     9   ar
     9     6    17   ar
    10     7     8   ar
    11     7    11   ar
    12     8    22   ar
    13     9    23    1
    14    10    13   ar
    15    10    24    1
    16    11    12   ar
    17    11    25    1
    18    12    14    1
    19    12    22   ar
    20    13    17   ar
    21    13    18    1
    22    14    19    2
    23    14    21    1
    24    15    16    1
    25    15    18   am
    26    15    20    2
    27    16    21    1
    28     1    26    1
    29     2    27    1
    30     3    28    1
    31     4    29    1
    32     5    30    1
    33     6    31    1
    34    16    32    1
    35    16    33    1
    36    18    34    1
