@<TRIPOS>MOLECULE
ChEBML1952
 40 43 0 0 0
SMALL
USER_CHARGES

@<TRIPOS>ATOM
      1 C          -4.3713    0.5287   -1.6471 C.ar    1  LIG1       -0.0376
      2 C         -10.2264   -5.2460    0.6086 C.ar    1  LIG1       -0.0376
      3 C          -3.2645   -0.0335   -2.2898 C.ar    1  LIG1       -0.0299
      4 C         -11.5612   -5.6335    0.7574 C.ar    1  LIG1       -0.0299
      5 C          -3.5740   -2.1340   -1.1109 C.ar    1  LIG1       -0.0226
      6 C         -12.1310   -3.4949    1.7568 C.ar    1  LIG1       -0.0226
      7 C          -5.6154   -2.0856    0.5123 C.ar    1  LIG1       -0.0275
      8 C         -10.0819   -1.8910    1.9384 C.ar    1  LIG1       -0.0275
      9 C          -4.6931   -1.5887   -0.4507 C.ar    1  LIG1        0.0003
     10 C         -10.7911   -3.0821    1.6171 C.ar    1  LIG1        0.0003
     11 C          -5.0651   -0.2726   -0.7334 C.ar    1  LIG1        0.0379
     12 C          -9.8715   -3.9654    1.0474 C.ar    1  LIG1        0.0379
     13 C          -2.8704   -1.3441   -2.0273 C.ar    1  LIG1        0.0753
     14 C         -12.5005   -4.7731    1.3224 C.ar    1  LIG1        0.0753
     15 C          -6.5126   -1.0804    0.7906 C.ar    1  LIG1        0.0811
     16 C          -8.7702   -2.0708    1.5647 C.ar    1  LIG1        0.0811
     17 C          -7.6194   -1.1048    1.6937 C.2     1  LIG1        0.2206
     18 C          -1.4338   -3.2102   -2.3587 C.3     1  LIG1        0.0422
     19 C         -14.7078   -4.2542    2.0397 C.3     1  LIG1        0.0422
     20 N          -6.1727    0.0091    0.0343 N.ar    1  LIG1       -0.3112
     21 N          -8.6530   -3.3249    1.0281 N.ar    1  LIG1       -0.3112
     22 O          -7.6900   -0.3077    2.6581 O.2     1  LIG1       -0.2856
     23 O          -1.7867   -1.8642   -2.6700 O.3     1  LIG1       -0.3493
     24 O         -13.7946   -5.1798    1.4542 O.3     1  LIG1       -0.3493
     25 H          -4.6775    1.5489   -1.8522 H       1  LIG1        0.0643
     26 H          -9.4960   -5.9163    0.1683 H       1  LIG1        0.0643
     27 H          -2.7078    0.5680   -3.0046 H       1  LIG1        0.0651
     28 H         -11.8633   -6.6238    0.4244 H       1  LIG1        0.0651
     29 H          -3.2607   -3.1553   -0.9124 H       1  LIG1        0.0657
     30 H         -12.8696   -2.8297    2.1958 H       1  LIG1        0.0657
     31 H          -5.6184   -3.0741    0.9522 H       1  LIG1        0.0651
     32 H         -10.4919   -0.9995    2.3945 H       1  LIG1        0.0651
     33 H          -0.5543   -3.5005   -2.9386 H       1  LIG1        0.0535
     34 H          -2.2722   -3.8711   -2.5927 H       1  LIG1        0.0535
     35 H          -1.2039   -3.2799   -1.2929 H       1  LIG1        0.0535
     36 H         -15.7031   -4.7029    2.0858 H       1  LIG1        0.0535
     37 H         -14.7357   -3.3404    1.4408 H       1  LIG1        0.0535
     38 H         -14.3714   -4.0144    3.0511 H       1  LIG1        0.0535
     39 H          -6.6617    0.8938    0.0363 H       1  LIG1        0.1529
     40 H          -7.7975   -3.7260    0.6685 H       1  LIG1        0.1529
@<TRIPOS>BOND
     1     1     3   ar
     2     1    11   ar
     3     2     4   ar
     4     2    12   ar
     5     3    13   ar
     6     4    14   ar
     7     5     9   ar
     8     5    13   ar
     9     6    10   ar
    10     6    14   ar
    11     7     9   ar
    12     7    15   ar
    13     8    10   ar
    14     8    16   ar
    15     9    11   ar
    16    10    12   ar
    17    11    20   ar
    18    12    21   ar
    19    13    23    1
    20    14    24    1
    21    15    17    1
    22    15    20   ar
    23    16    17    1
    24    16    21   ar
    25    17    22    2
    26    18    23    1
    27    19    24    1
    28     1    25    1
    29     2    26    1
    30     3    27    1
    31     4    28    1
    32     5    29    1
    33     6    30    1
    34     7    31    1
    35     8    32    1
    36    18    33    1
    37    18    34    1
    38    18    35    1
    39    19    36    1
    40    19    37    1
    41    19    38    1
    42    20    39    1
    43    21    40    1
