@<TRIPOS>MOLECULE
ChEBML304323
 51 53 0 0 0
SMALL
USER_CHARGES

@<TRIPOS>ATOM
      1 C          -2.0189   -0.2788   -3.3033 C.ar    1  LIG1       -0.0573
      2 C          -2.0555    1.1056   -3.4266 C.ar    1  LIG1       -0.0437
      3 C         -12.1450   -3.6937    2.0064 C.ar    1  LIG1       -0.0566
      4 C         -11.5719   -5.6634    0.7302 C.ar    1  LIG1       -0.0566
      5 C         -10.8462   -3.2112    1.8448 C.ar    1  LIG1       -0.0404
      6 C         -10.2732   -5.1809    0.5686 C.ar    1  LIG1       -0.0404
      7 C          -2.9531   -0.9247   -2.5012 C.ar    1  LIG1       -0.0217
      8 C          -3.0386    1.7927   -2.7328 C.ar    1  LIG1        0.0290
      9 C         -12.5077   -4.9199    1.4490 C.ar    1  LIG1       -0.0425
     10 C          -9.9103   -3.9547    1.1260 C.ar    1  LIG1        0.0340
     11 C          -3.8960   -0.1467   -1.8488 C.ar    1  LIG1        0.1199
     12 C          -8.3437   -2.1055    0.9984 C.2     1  LIG1        0.3050
     13 C          -5.3581   -0.1064    0.1087 C.3     1  LIG1        0.0288
     14 C          -5.5971   -1.8803   -1.6555 C.3     1  LIG1        0.0288
     15 C          -6.8728   -0.2856    0.1832 C.3     1  LIG1        0.0315
     16 C          -6.4203   -2.6043   -0.5891 C.3     1  LIG1        0.0315
     17 C         -14.9445   -4.4539    1.0122 C.3     1  LIG1       -0.0561
     18 C         -14.2476   -5.6209    3.1308 C.3     1  LIG1       -0.0561
     19 C         -14.1860   -6.8209    0.9541 C.3     1  LIG1       -0.0561
     20 C         -13.8963   -5.4356    1.6219 C.3     1  LIG1       -0.0132
     21 N          -3.9630    1.2001   -1.9443 N.ar    1  LIG1       -0.2414
     22 N          -4.8103   -0.7978   -1.0615 N.pl3   1  LIG1       -0.3127
     23 N          -7.2477   -1.6978    0.2147 N.am    1  LIG1       -0.2824
     24 N          -8.6072   -3.4707    0.9634 N.am    1  LIG1       -0.2691
     25 O          -9.0143   -1.3158    1.6710 O.2     1  LIG1       -0.2537
     26 H          -1.2628   -0.8533   -3.8303 H       1  LIG1        0.0624
     27 H          -1.3373    1.6306   -4.0459 H       1  LIG1        0.0639
     28 H         -12.8670   -3.1087    2.5699 H       1  LIG1        0.0626
     29 H         -11.8458   -6.6201    0.2932 H       1  LIG1        0.0626
     30 H         -10.5746   -2.2541    2.2832 H       1  LIG1        0.0642
     31 H          -9.5514   -5.7691    0.0073 H       1  LIG1        0.0642
     32 H          -2.9322   -2.0049   -2.3998 H       1  LIG1        0.0659
     33 H          -3.1104    2.8737   -2.7958 H       1  LIG1        0.0840
     34 H          -5.1265    0.9654    0.0774 H       1  LIG1        0.0485
     35 H          -4.8855   -0.5179    1.0088 H       1  LIG1        0.0485
     36 H          -4.9357   -2.6016   -2.1504 H       1  LIG1        0.0485
     37 H          -6.2669   -1.4647   -2.4194 H       1  LIG1        0.0485
     38 H          -7.2655    0.2293    1.0662 H       1  LIG1        0.0486
     39 H          -7.3580    0.1551   -0.6962 H       1  LIG1        0.0486
     40 H          -7.0601   -3.3491   -1.0736 H       1  LIG1        0.0486
     41 H          -5.7579   -3.1305    0.1088 H       1  LIG1        0.0486
     42 H         -15.9750   -4.8100    1.1261 H       1  LIG1        0.0239
     43 H         -14.8929   -3.4672    1.4855 H       1  LIG1        0.0239
     44 H         -14.7558   -4.3151   -0.0590 H       1  LIG1        0.0239
     45 H         -15.2671   -5.9998    3.2618 H       1  LIG1        0.0239
     46 H         -13.5770   -6.3240    3.6387 H       1  LIG1        0.0239
     47 H         -14.1835   -4.6604    3.6557 H       1  LIG1        0.0239
     48 H         -15.2185   -7.1570    1.1088 H       1  LIG1        0.0239
     49 H         -14.0219   -6.7738   -0.1288 H       1  LIG1        0.0239
     50 H         -13.5301   -7.5969    1.3657 H       1  LIG1        0.0239
     51 H          -7.8694   -4.1601    0.8770 H       1  LIG1        0.1573
@<TRIPOS>BOND
     1     1     2   ar
     2     1     7   ar
     3     2     8   ar
     4     3     5   ar
     5     3     9   ar
     6     4     6   ar
     7     4     9   ar
     8     5    10   ar
     9     6    10   ar
    10     7    11   ar
    11     8    21   ar
    12     9    20    1
    13    10    24    1
    14    11    21   ar
    15    11    22    1
    16    12    23   am
    17    12    24   am
    18    12    25    2
    19    13    15    1
    20    13    22    1
    21    14    16    1
    22    14    22    1
    23    15    23    1
    24    16    23    1
    25    17    20    1
    26    18    20    1
    27    19    20    1
    28     1    26    1
    29     2    27    1
    30     3    28    1
    31     4    29    1
    32     5    30    1
    33     6    31    1
    34     7    32    1
    35     8    33    1
    36    13    34    1
    37    13    35    1
    38    14    36    1
    39    14    37    1
    40    15    38    1
    41    15    39    1
    42    16    40    1
    43    16    41    1
    44    17    42    1
    45    17    43    1
    46    17    44    1
    47    18    45    1
    48    18    46    1
    49    18    47    1
    50    19    48    1
    51    19    49    1
    52    19    50    1
    53    24    51    1
