@<TRIPOS>MOLECULE
ChEBML162830
 42 44 0 0 0
SMALL
USER_CHARGES

@<TRIPOS>ATOM
      1 C          -1.8165    1.1014   -2.5723 C.ar    1  LIG1       -0.0622
      2 C          -3.0441    1.7621   -2.5264 C.ar    1  LIG1       -0.0620
      3 C          -1.7463   -0.2611   -2.2816 C.ar    1  LIG1       -0.0620
      4 C          -4.2016    1.0602   -2.1897 C.ar    1  LIG1       -0.0589
      5 C          -2.9038   -0.9628   -1.9448 C.ar    1  LIG1       -0.0589
      6 C         -11.3182   -4.8149    0.4930 C.ar    1  LIG1       -0.0387
      7 C         -12.5225   -5.1471    1.1200 C.ar    1  LIG1       -0.0416
      8 C         -12.2172   -3.3888    2.7668 C.ar    1  LIG1       -0.0343
      9 C         -10.0093   -2.0465    2.4084 C.ar    1  LIG1       -0.0262
     10 C         -10.9997   -3.0356    2.1516 C.ar    1  LIG1       -0.0007
     11 C          -4.1315   -0.3022   -1.8989 C.ar    1  LIG1       -0.0456
     12 C         -10.5791   -3.7553    1.0312 C.ar    1  LIG1        0.0379
     13 C         -12.9669   -4.4464    2.2395 C.ar    1  LIG1        0.0413
     14 C          -9.0250   -2.1826    1.4569 C.ar    1  LIG1        0.0945
     15 C          -7.7801   -1.3875    1.2980 C.2     1  LIG1        0.2579
     16 C          -4.5629   -1.6725    0.7861 C.2     1  LIG1        0.2816
     17 C          -3.2002   -3.5743    1.1375 C.3     1  LIG1        0.0453
     18 C          -5.3857   -1.0635   -1.5335 C.3     1  LIG1        0.0003
     19 C          -5.7070   -1.0879   -0.0318 C.3     1  LIG1        0.1129
     20 N          -9.3776   -3.2156    0.6305 N.ar    1  LIG1       -0.3101
     21 N          -6.9597   -1.7479    0.2382 N.am    1  LIG1       -0.2975
     22 O          -7.5345   -0.4906    2.1003 O.2     1  LIG1       -0.2704
     23 O          -3.9731   -1.0321    1.6504 O.2     1  LIG1       -0.2643
     24 O          -4.2784   -2.9560    0.4282 O.3     1  LIG1       -0.3178
     25 CL        -14.4578   -4.8847    2.9839 Cl      1  LIG1       -0.0843
     26 H          -0.9156    1.6477   -2.8358 H       1  LIG1        0.0622
     27 H          -3.0991    2.8226   -2.7539 H       1  LIG1        0.0623
     28 H          -0.7909   -0.7759   -2.3182 H       1  LIG1        0.0623
     29 H          -5.1537    1.5833   -2.1562 H       1  LIG1        0.0625
     30 H          -2.8395   -2.0241   -1.7196 H       1  LIG1        0.0625
     31 H         -10.9729   -5.3615   -0.3781 H       1  LIG1        0.0643
     32 H         -13.1101   -5.9685    0.7154 H       1  LIG1        0.0639
     33 H         -12.5623   -2.8416    3.6402 H       1  LIG1        0.0645
     34 H         -10.0200   -1.3150    3.2055 H       1  LIG1        0.0651
     35 H          -3.0602   -4.5947    0.7721 H       1  LIG1        0.0536
     36 H          -3.4259   -3.5866    2.2068 H       1  LIG1        0.0536
     37 H          -2.2866   -3.0001    0.9667 H       1  LIG1        0.0536
     38 H          -5.2888   -2.0933   -1.9030 H       1  LIG1        0.0341
     39 H          -6.2314   -0.6327   -2.0858 H       1  LIG1        0.0341
     40 H          -5.8413   -0.0593    0.3235 H       1  LIG1        0.0617
     41 H          -8.8367   -3.5384   -0.1600 H       1  LIG1        0.1529
     42 H          -7.2017   -2.5440   -0.3457 H       1  LIG1        0.1506
@<TRIPOS>BOND
     1     1     2   ar
     2     1     3   ar
     3     2     4   ar
     4     3     5   ar
     5     4    11   ar
     6     5    11   ar
     7     6     7   ar
     8     6    12   ar
     9     7    13   ar
    10     8    10   ar
    11     8    13   ar
    12     9    10   ar
    13     9    14   ar
    14    10    12   ar
    15    11    18    1
    16    12    20   ar
    17    13    25    1
    18    14    15    1
    19    14    20   ar
    20    15    21   am
    21    15    22    2
    22    16    19    1
    23    16    23    2
    24    16    24    1
    25    17    24    1
    26    18    19    1
    27    19    21    1
    28     1    26    1
    29     2    27    1
    30     3    28    1
    31     4    29    1
    32     5    30    1
    33     6    31    1
    34     7    32    1
    35     8    33    1
    36     9    34    1
    37    17    35    1
    38    17    36    1
    39    17    37    1
    40    18    38    1
    41    18    39    1
    42    19    40    1
    43    20    41    1
    44    21    42    1
