@<TRIPOS>MOLECULE
ChEBML122657
 47 50 0 0 0
SMALL
USER_CHARGES

@<TRIPOS>ATOM
      1 C         -12.2091   -5.2386    1.1153 C.ar    1  LIG1       -0.0600
      2 C         -11.2461   -5.7873    0.2654 C.ar    1  LIG1       -0.0602
      3 C         -11.9407   -4.0823    1.8587 C.ar    1  LIG1       -0.0344
      4 C          -9.9828   -5.2027    0.1266 C.ar    1  LIG1       -0.0385
      5 C          -2.9721   -0.8608   -1.6844 C.ar    1  LIG1       -0.0383
      6 C          -3.9150    1.2506   -2.3845 C.ar    1  LIG1       -0.0383
      7 C          -1.9301   -0.6982   -2.5973 C.ar    1  LIG1       -0.0300
      8 C          -2.8729    1.4133   -3.2973 C.ar    1  LIG1       -0.0300
      9 C         -10.6767   -3.4820    1.7316 C.ar    1  LIG1        0.0864
     10 C          -9.7377   -4.0520    0.8764 C.ar    1  LIG1        0.0575
     11 C          -3.9646    0.1135   -1.5781 C.ar    1  LIG1        0.0291
     12 C          -1.8805    0.4389   -3.4037 C.ar    1  LIG1        0.0747
     13 C          -8.9442   -2.2414    1.8698 C.ar    1  LIG1        0.1434
     14 C          -4.5760   -0.1574    0.7299 C.3     1  LIG1        0.0509
     15 C          -6.0518   -0.9736   -1.1007 C.3     1  LIG1        0.0509
     16 C          -5.7785   -0.0755    1.6605 C.3     1  LIG1       -0.0177
     17 C          -7.2507   -0.8947   -0.1640 C.3     1  LIG1       -0.0177
     18 C           0.1173   -0.4370   -4.3513 C.3     1  LIG1        0.0422
     19 C          -7.9484   -1.1733    2.2140 C.3     1  LIG1        0.0233
     20 N         -10.1659   -2.3582    2.3396 N.ar    1  LIG1       -0.2303
     21 N          -8.6395   -3.2378    0.9847 N.ar    1  LIG1       -0.2969
     22 N          -4.9982   -0.0479   -0.6726 N.pl3   1  LIG1       -0.3203
     23 N          -6.7927   -1.1146    1.2548 N.4     1  LIG1        0.2537
     24 O          -0.8637    0.5976   -4.2944 O.3     1  LIG1       -0.3493
     25 H         -13.1822   -5.7156    1.2015 H       1  LIG1        0.0623
     26 H         -11.4816   -6.6865   -0.2986 H       1  LIG1        0.0623
     27 H         -12.6964   -3.6637    2.5155 H       1  LIG1        0.0646
     28 H          -9.2345   -5.6266   -0.5335 H       1  LIG1        0.0643
     29 H          -3.0009   -1.7507   -1.0609 H       1  LIG1        0.0643
     30 H          -4.6832    2.0159   -2.3098 H       1  LIG1        0.0643
     31 H          -1.1598   -1.4606   -2.6757 H       1  LIG1        0.0651
     32 H          -2.8397    2.3012   -3.9228 H       1  LIG1        0.0651
     33 H          -3.8824    0.6546    0.9812 H       1  LIG1        0.0524
     34 H          -4.0448   -1.1057    0.8848 H       1  LIG1        0.0524
     35 H          -5.6600   -1.9991   -1.1214 H       1  LIG1        0.0524
     36 H          -6.3844   -0.7268   -2.1165 H       1  LIG1        0.0524
     37 H          -5.4835   -0.2836    2.6941 H       1  LIG1        0.0831
     38 H          -6.2684    0.9037    1.6078 H       1  LIG1        0.0831
     39 H          -7.7357    0.0874   -0.2062 H       1  LIG1        0.0831
     40 H          -7.9805   -1.6752   -0.4029 H       1  LIG1        0.0831
     41 H           0.8705   -0.1851   -5.1019 H       1  LIG1        0.0535
     42 H          -0.3650   -1.3839   -4.6070 H       1  LIG1        0.0535
     43 H           0.5963   -0.5267   -3.3735 H       1  LIG1        0.0535
     44 H          -8.4132   -0.1816    2.2074 H       1  LIG1        0.0899
     45 H          -7.5225   -1.3356    3.2100 H       1  LIG1        0.0899
     46 H          -7.7623   -3.3557    0.4952 H       1  LIG1        0.1542
     47 H          -6.3308   -2.0336    1.2944 H       1  LIG1        0.2009
@<TRIPOS>BOND
     1     1     2   ar
     2     1     3   ar
     3     2     4   ar
     4     3     9   ar
     5     4    10   ar
     6     5     7   ar
     7     5    11   ar
     8     6     8   ar
     9     6    11   ar
    10     7    12   ar
    11     8    12   ar
    12     9    10   ar
    13     9    20   ar
    14    10    21   ar
    15    11    22    1
    16    12    24    1
    17    13    19    1
    18    13    20   ar
    19    13    21   ar
    20    14    16    1
    21    14    22    1
    22    15    17    1
    23    15    22    1
    24    16    23    1
    25    17    23    1
    26    18    24    1
    27    19    23    1
    28     1    25    1
    29     2    26    1
    30     3    27    1
    31     4    28    1
    32     5    29    1
    33     6    30    1
    34     7    31    1
    35     8    32    1
    36    14    33    1
    37    14    34    1
    38    15    35    1
    39    15    36    1
    40    16    37    1
    41    16    38    1
    42    17    39    1
    43    17    40    1
    44    18    41    1
    45    18    42    1
    46    18    43    1
    47    19    44    1
    48    19    45    1
    49    21    46    1
    50    23    47    1
