@<TRIPOS>MOLECULE
ChEBML300192
 42 44 0 0 0
SMALL
USER_CHARGES

@<TRIPOS>ATOM
      1 C         -10.4538   -5.1770    0.5915 C.ar    1  LIG1       -0.0387
      2 C         -11.8020   -5.4739    0.8111 C.ar    1  LIG1       -0.0416
      3 C          -2.2247    1.4724   -3.2906 C.ar    1  LIG1       -0.0390
      4 C          -2.8564   -0.6657   -2.3886 C.ar    1  LIG1       -0.0390
      5 C         -12.1219   -3.3950    2.0247 C.ar    1  LIG1       -0.0343
      6 C          -9.9404   -1.9732    2.1782 C.ar    1  LIG1       -0.0262
      7 C          -1.6654    0.7949   -4.3619 C.ar    1  LIG1        0.0271
      8 C          -2.2691   -1.2476   -3.5004 C.ar    1  LIG1        0.0271
      9 C         -10.7659   -3.0742    1.8159 C.ar    1  LIG1       -0.0007
     10 C          -2.8295    0.7209   -2.2893 C.ar    1  LIG1       -0.0276
     11 C          -9.9648   -3.9708    1.1055 C.ar    1  LIG1        0.0379
     12 C         -12.6250   -4.5981    1.5164 C.ar    1  LIG1        0.0413
     13 C          -8.6775   -2.2183    1.6902 C.ar    1  LIG1        0.0945
     14 C          -7.4632   -1.3705    1.8076 C.2     1  LIG1        0.2576
     15 C          -4.9240   -0.2437    0.0707 C.2     1  LIG1        0.2316
     16 C          -2.6569    0.3353    0.9690 C.3     1  LIG1        0.0031
     17 C          -3.4507    1.4039   -1.1052 C.3     1  LIG1        0.0390
     18 C          -5.0506   -1.1764    1.2623 C.3     1  LIG1        0.0887
     19 N          -1.6721   -0.5507   -4.4932 N.ar    1  LIG1       -0.2646
     20 N          -8.7022   -3.4254    1.0446 N.ar    1  LIG1       -0.3101
     21 N          -6.3073   -1.8673    1.2135 N.am    1  LIG1       -0.3013
     22 N          -3.7243    0.4710   -0.0191 N.am    1  LIG1       -0.2992
     23 O          -7.5290   -0.3101    2.4240 O.2     1  LIG1       -0.2704
     24 O          -5.8375   -0.1438   -0.7527 O.2     1  LIG1       -0.2756
     25 CL        -14.2822   -4.9984    1.7653 Cl      1  LIG1       -0.0843
     26 H          -9.8139   -5.8601    0.0428 H       1  LIG1        0.0643
     27 H         -12.1994   -6.4077    0.4190 H       1  LIG1        0.0639
     28 H          -2.1863    2.5555   -3.2423 H       1  LIG1        0.0642
     29 H          -3.3209   -1.2791   -1.6242 H       1  LIG1        0.0642
     30 H         -12.7626   -2.7112    2.5754 H       1  LIG1        0.0645
     31 H         -10.2423   -1.0969    2.7364 H       1  LIG1        0.0651
     32 H          -1.1806    1.3350   -5.1687 H       1  LIG1        0.0839
     33 H          -2.2635   -2.3254   -3.6249 H       1  LIG1        0.0839
     34 H          -1.9697   -0.4615    0.6728 H       1  LIG1        0.0433
     35 H          -3.0773    0.0913    1.9484 H       1  LIG1        0.0433
     36 H          -2.0968    1.2706    1.0513 H       1  LIG1        0.0433
     37 H          -2.7880    2.1860   -0.7192 H       1  LIG1        0.0520
     38 H          -4.3957    1.8843   -1.3798 H       1  LIG1        0.0520
     39 H          -4.2584   -1.9293    1.2411 H       1  LIG1        0.0567
     40 H          -5.0232   -0.6081    2.1956 H       1  LIG1        0.0567
     41 H          -7.9101   -3.8568    0.5883 H       1  LIG1        0.1529
     42 H          -6.3233   -2.7871    0.7743 H       1  LIG1        0.1503
@<TRIPOS>BOND
     1     1     2   ar
     2     1    11   ar
     3     2    12   ar
     4     3     7   ar
     5     3    10   ar
     6     4     8   ar
     7     4    10   ar
     8     5     9   ar
     9     5    12   ar
    10     6     9   ar
    11     6    13   ar
    12     7    19   ar
    13     8    19   ar
    14     9    11   ar
    15    10    17    1
    16    11    20   ar
    17    12    25    1
    18    13    14    1
    19    13    20   ar
    20    14    21   am
    21    14    23    2
    22    15    18    1
    23    15    22   am
    24    15    24    2
    25    16    22    1
    26    17    22    1
    27    18    21    1
    28     1    26    1
    29     2    27    1
    30     3    28    1
    31     4    29    1
    32     5    30    1
    33     6    31    1
    34     7    32    1
    35     8    33    1
    36    16    34    1
    37    16    35    1
    38    16    36    1
    39    17    37    1
    40    17    38    1
    41    18    39    1
    42    18    40    1
    43    20    41    1
    44    21    42    1
