@<TRIPOS>MOLECULE
ChEBML962843
 38 41 0 0 0
SMALL
USER_CHARGES

@<TRIPOS>ATOM
      1 C          -2.5733   -0.0198   -3.3182 C.ar    1  LIG1       -0.0364
      2 C         -12.5761   -3.3800    1.8235 C.ar    1  LIG1       -0.0502
      3 C         -13.2456   -4.4883    1.3141 C.ar    1  LIG1       -0.0311
      4 C          -2.3749   -0.6497   -2.0664 C.ar    1  LIG1       -0.0319
      5 C         -10.5168   -2.1056    2.1265 C.ar    1  LIG1       -0.0411
      6 C          -8.1085   -1.0862    2.2037 C.ar    1  LIG1       -0.0141
      7 C         -11.1668   -5.2858    0.3863 C.ar    1  LIG1       -0.0053
      8 C          -3.6338    0.8397   -3.1496 C.ar    1  LIG1        0.0456
      9 C         -11.1961   -3.2217    1.6143 C.ar    1  LIG1        0.0012
     10 C          -9.1417   -2.0025    1.8866 C.ar    1  LIG1        0.0281
     11 C         -10.4686   -4.1895    0.8819 C.ar    1  LIG1        0.0759
     12 C         -12.5395   -5.4426    0.5946 C.ar    1  LIG1        0.0768
     13 C          -6.9590   -1.5986    1.6489 C.ar    1  LIG1        0.1471
     14 C          -3.3283   -0.1300   -1.2219 C.ar    1  LIG1        0.0757
     15 C          -8.5469   -3.0209    1.1529 C.ar    1  LIG1        0.1801
     16 C          -5.6207   -1.1144    1.6432 C.2     1  LIG1        0.2672
     17 C         -14.5845   -6.6297    0.3407 C.3     1  LIG1        0.0422
     18 C          -3.6608   -0.3694    0.2224 C.3     1  LIG1        0.0587
     19 N          -9.1514   -4.1065    0.6423 N.ar    1  LIG1       -0.2232
     20 N          -5.0154   -0.8429    0.3943 N.am    1  LIG1       -0.3034
     21 O          -4.9725   -0.9464    2.7103 O.2     1  LIG1       -0.2695
     22 O          -4.0997    0.7787   -1.8745 O.2     1  LIG1       -0.3208
     23 O          -7.2133   -2.7698    1.0102 O.2     1  LIG1       -0.2854
     24 O         -13.1831   -6.5314    0.0916 O.3     1  LIG1       -0.3492
     25 H          -2.0137   -0.1734   -4.2295 H       1  LIG1        0.0645
     26 H         -13.1398   -2.6382    2.3857 H       1  LIG1        0.0630
     27 H         -14.3129   -4.6000    1.4820 H       1  LIG1        0.0650
     28 H          -1.6293   -1.3903   -1.8144 H       1  LIG1        0.0648
     29 H         -11.0362   -1.3388    2.6947 H       1  LIG1        0.0637
     30 H          -8.1938   -0.1679    2.7678 H       1  LIG1        0.0660
     31 H         -10.6334   -6.0477   -0.1813 H       1  LIG1        0.0673
     32 H          -4.1501    1.5270   -3.8036 H       1  LIG1        0.0901
     33 H         -14.9731   -7.5437   -0.1149 H       1  LIG1        0.0535
     34 H         -15.0920   -5.7569   -0.0779 H       1  LIG1        0.0535
     35 H         -14.7522   -6.6634    1.4198 H       1  LIG1        0.0535
     36 H          -2.9854   -1.1152    0.6557 H       1  LIG1        0.0539
     37 H          -3.5504    0.5489    0.8086 H       1  LIG1        0.0539
     38 H          -5.5427   -1.0489   -0.4479 H       1  LIG1        0.1502
@<TRIPOS>BOND
     1     1     4   ar
     2     1     8   ar
     3     2     3   ar
     4     2     9   ar
     5     3    12   ar
     6     4    14   ar
     7     5     9   ar
     8     5    10   ar
     9     6    10   ar
    10     6    13   ar
    11     7    11   ar
    12     7    12   ar
    13     8    22   ar
    14     9    11   ar
    15    10    15   ar
    16    11    19   ar
    17    12    24    1
    18    13    16    1
    19    13    23   ar
    20    14    18    1
    21    14    22   ar
    22    15    19   ar
    23    15    23   ar
    24    16    20   am
    25    16    21    2
    26    17    24    1
    27    18    20    1
    28     1    25    1
    29     2    26    1
    30     3    27    1
    31     4    28    1
    32     5    29    1
    33     6    30    1
    34     7    31    1
    35     8    32    1
    36    17    33    1
    37    17    34    1
    38    17    35    1
    39    18    36    1
    40    18    37    1
    41    20    38    1
