@<TRIPOS>MOLECULE
ChEBML472389
 40 43 0 0 0
SMALL
USER_CHARGES

@<TRIPOS>ATOM
      1 C          -2.1197    1.2993   -3.1544 C.ar    1  LIG1       -0.0592
      2 C         -12.5552   -4.1450    1.1448 C.ar    1  LIG1       -0.0478
      3 C         -11.5802   -6.0754    0.0678 C.ar    1  LIG1       -0.0478
      4 C         -11.2860   -3.5852    1.2907 C.ar    1  LIG1       -0.0400
      5 C         -10.3110   -5.5156    0.2135 C.ar    1  LIG1       -0.0400
      6 C          -1.5090    0.3697   -2.3127 C.ar    1  LIG1       -0.0415
      7 C          -3.5071    1.3033   -3.2988 C.ar    1  LIG1       -0.0415
      8 C          -8.6420   -0.7695    3.0522 C.ar    1  LIG1        0.1187
      9 C         -12.7024   -5.3900    0.5334 C.ar    1  LIG1        0.0369
     10 C          -7.2800   -1.8724    1.0452 C.ar    1  LIG1        0.1389
     11 C         -10.1638   -4.2706    0.8251 C.ar    1  LIG1        0.0315
     12 C          -3.6729   -0.5518   -1.7601 C.ar    1  LIG1        0.0696
     13 C          -2.2855   -0.5558   -1.6155 C.ar    1  LIG1        0.0635
     14 C          -4.2836    0.3778   -2.6018 C.ar    1  LIG1        0.0635
     15 C          -8.4307   -2.4935    1.5334 C.ar    1  LIG1        0.1523
     16 C          -6.9106   -0.6828    1.6593 C.ar    1  LIG1        0.1347
     17 C          -5.4720   -1.4064   -0.1181 C.ar    1  LIG1        0.1641
     18 C         -14.0257   -5.9736    0.3814 C.2     1  LIG1        0.2404
     19 N          -9.1181   -1.9297    2.5515 N.ar    1  LIG1       -0.2190
     20 N          -7.5517   -0.0749    2.6733 N.ar    1  LIG1       -0.2271
     21 N          -6.4444   -2.2816    0.0214 N.ar    1  LIG1       -0.2199
     22 N         -15.1122   -5.2490    0.8630 N.am    1  LIG1       -0.3251
     23 N          -8.8804   -3.7046    0.9725 N.pl3   1  LIG1       -0.2977
     24 N          -4.4762   -1.5091   -1.0383 N.pl3   1  LIG1       -0.2913
     25 O         -14.1860   -7.0889   -0.1446 O.2     1  LIG1       -0.2721
     26 S          -5.4929   -0.0599    0.9477 S.2     1  LIG1       -0.0317
     27 CL         -1.4835   -1.6866   -0.5836 Cl      1  LIG1       -0.0822
     28 CL         -5.9983    0.4217   -2.8141 Cl      1  LIG1       -0.0822
     29 H          -1.5157    2.0202   -3.6975 H       1  LIG1        0.0624
     30 H         -13.4227   -3.6022    1.5113 H       1  LIG1        0.0631
     31 H         -11.6834   -7.0462   -0.4103 H       1  LIG1        0.0631
     32 H         -11.1826   -2.6144    1.7687 H       1  LIG1        0.0642
     33 H          -9.4432   -6.0582   -0.1530 H       1  LIG1        0.0642
     34 H          -0.4264    0.3811   -2.2118 H       1  LIG1        0.0639
     35 H          -3.9668    2.0348   -3.9592 H       1  LIG1        0.0639
     36 H          -9.2142   -0.3398    3.8674 H       1  LIG1        0.1063
     37 H         -14.9528   -4.3477    1.2998 H       1  LIG1        0.1458
     38 H         -16.0605   -5.6026    0.7866 H       1  LIG1        0.1458
     39 H          -8.1347   -4.2852    0.6000 H       1  LIG1        0.1543
     40 H          -4.2015   -2.4716   -1.3097 H       1  LIG1        0.1549
@<TRIPOS>BOND
     1     1     6   ar
     2     1     7   ar
     3     2     4   ar
     4     2     9   ar
     5     3     5   ar
     6     3     9   ar
     7     4    11   ar
     8     5    11   ar
     9     6    13   ar
    10     7    14   ar
    11     8    19   ar
    12     8    20   ar
    13     9    18    1
    14    10    15   ar
    15    10    16   ar
    16    10    21   ar
    17    11    23    1
    18    12    13   ar
    19    12    14   ar
    20    12    24    1
    21    13    27    1
    22    14    28    1
    23    15    19   ar
    24    15    23    1
    25    16    20   ar
    26    16    26   ar
    27    17    21   ar
    28    17    24    1
    29    17    26   ar
    30    18    22   am
    31    18    25    2
    32     1    29    1
    33     2    30    1
    34     3    31    1
    35     4    32    1
    36     5    33    1
    37     6    34    1
    38     7    35    1
    39     8    36    1
    40    22    37    1
    41    22    38    1
    42    23    39    1
    43    24    40    1
