@<TRIPOS>MOLECULE
ChEBML413506
 55 61 0 0 0
SMALL
USER_CHARGES

@<TRIPOS>ATOM
      1 C          -2.0521    1.0311   -4.1259 C.ar    1  LIG1       -0.0616
      2 C          -2.8847    1.6082   -3.1699 C.ar    1  LIG1       -0.0616
      3 C          -1.6815   -0.3086   -4.0120 C.ar    1  LIG1       -0.0528
      4 C          -3.3505    0.8482   -2.0956 C.ar    1  LIG1       -0.0536
      5 C          -9.6016   -5.2453    0.1957 C.ar    1  LIG1       -0.0367
      6 C         -10.9360   -5.6460    0.0719 C.ar    1  LIG1       -0.0389
      7 C          -5.5582   -1.3662    0.3642 C.ar    1  LIG1       -0.0395
      8 C         -11.7298   -3.5530    1.0295 C.ar    1  LIG1       -0.0131
      9 C          -1.8047   -2.4273   -2.7721 C.ar    1  LIG1        0.0347
     10 C          -3.0344   -2.6158   -0.8415 C.ar    1  LIG1        0.0353
     11 C          -3.9048    0.2692    0.9551 C.ar    1  LIG1        0.0371
     12 C          -2.1443   -1.0827   -2.9351 C.ar    1  LIG1        0.0006
     13 C          -2.9873   -0.5022   -1.9651 C.ar    1  LIG1       -0.0074
     14 C          -6.3410   -0.8304    1.3943 C.ar    1  LIG1        0.0478
     15 C          -4.3058   -0.7907    0.1487 C.ar    1  LIG1        0.0030
     16 C          -3.4376   -1.2905   -0.8998 C.ar    1  LIG1        0.0094
     17 C         -10.3951   -3.1344    1.1616 C.ar    1  LIG1        0.0885
     18 C          -9.3734   -3.9832    0.7451 C.ar    1  LIG1        0.0577
     19 C         -11.9828   -4.8165    0.4807 C.ar    1  LIG1        0.0310
     20 C          -7.6073   -1.0535    1.9707 C.ar    1  LIG1        0.1323
     21 C          -5.8201    0.2275    2.1229 C.ar    1  LIG1        0.1466
     22 C          -8.5780   -2.0837    1.5537 C.ar    1  LIG1        0.1508
     23 C         -14.1388   -4.4060   -0.5112 C.3     1  LIG1        0.0351
     24 C         -13.9229   -5.7307    1.5733 C.3     1  LIG1        0.0351
     25 C         -15.4860   -5.0862   -0.7259 C.3     1  LIG1        0.0624
     26 C         -15.2821   -6.3399    1.2475 C.3     1  LIG1        0.0624
     27 N          -2.2290   -3.2052   -1.7507 N.ar    1  LIG1       -0.2633
     28 N          -4.6247    0.8214    1.9617 N.ar    1  LIG1       -0.2385
     29 N          -9.8818   -1.9593    1.6608 N.ar    1  LIG1       -0.2290
     30 N          -7.8735   -0.2148    2.9774 N.ar    1  LIG1       -0.1785
     31 N          -8.2224   -3.2856    1.0077 N.ar    1  LIG1       -0.2960
     32 N          -6.7697    0.5514    3.0464 N.ar    1  LIG1       -0.2203
     33 N         -13.3179   -5.2572    0.3389 N.pl3   1  LIG1       -0.3261
     34 O         -16.0882   -5.4078    0.5276 O.3     1  LIG1       -0.3781
     35 H          -1.6916    1.6257   -4.9603 H       1  LIG1        0.0623
     36 H          -3.1727    2.6518   -3.2599 H       1  LIG1        0.0623
     37 H          -1.0303   -0.7425   -4.7673 H       1  LIG1        0.0630
     38 H          -3.9981    1.3385   -1.3724 H       1  LIG1        0.0629
     39 H          -8.7874   -5.8872   -0.1208 H       1  LIG1        0.0644
     40 H         -11.1498   -6.6248   -0.3528 H       1  LIG1        0.0643
     41 H          -5.9148   -2.1954   -0.2392 H       1  LIG1        0.0638
     42 H         -12.5429   -2.9073    1.3477 H       1  LIG1        0.0666
     43 H          -1.1594   -2.9357   -3.4832 H       1  LIG1        0.0846
     44 H          -3.3540   -3.2726   -0.0369 H       1  LIG1        0.0846
     45 H          -2.9332    0.7376    0.8086 H       1  LIG1        0.0847
     46 H         -13.6604   -4.2280   -1.4815 H       1  LIG1        0.0492
     47 H         -14.2917   -3.4367   -0.0194 H       1  LIG1        0.0492
     48 H         -14.0557   -4.8880    2.2639 H       1  LIG1        0.0492
     49 H         -13.2947   -6.4826    2.0651 H       1  LIG1        0.0492
     50 H         -16.1623   -4.4125   -1.2616 H       1  LIG1        0.0583
     51 H         -15.3833   -5.9982   -1.3265 H       1  LIG1        0.0583
     52 H         -15.1759   -7.2592    0.6589 H       1  LIG1        0.0583
     53 H         -15.8079   -6.5975    2.1723 H       1  LIG1        0.0583
     54 H          -7.2800   -3.6062    0.8278 H       1  LIG1        0.1544
     55 H          -6.7325    1.2789    3.7493 H       1  LIG1        0.1772
@<TRIPOS>BOND
     1     1     2   ar
     2     1     3   ar
     3     2     4   ar
     4     3    12   ar
     5     4    13   ar
     6     5     6   ar
     7     5    18   ar
     8     6    19   ar
     9     7    14   ar
    10     7    15   ar
    11     8    17   ar
    12     8    19   ar
    13     9    12   ar
    14     9    27   ar
    15    10    16   ar
    16    10    27   ar
    17    11    15   ar
    18    11    28   ar
    19    12    13   ar
    20    13    16   ar
    21    14    20   ar
    22    14    21   ar
    23    15    16    1
    24    17    18   ar
    25    17    29   ar
    26    18    31   ar
    27    19    33    1
    28    20    22    1
    29    20    30   ar
    30    21    28   ar
    31    21    32   ar
    32    22    29   ar
    33    22    31   ar
    34    23    25    1
    35    23    33    1
    36    24    26    1
    37    24    33    1
    38    25    34    1
    39    26    34    1
    40    30    32   ar
    41     1    35    1
    42     2    36    1
    43     3    37    1
    44     4    38    1
    45     5    39    1
    46     6    40    1
    47     7    41    1
    48     8    42    1
    49     9    43    1
    50    10    44    1
    51    11    45    1
    52    23    46    1
    53    23    47    1
    54    24    48    1
    55    24    49    1
    56    25    50    1
    57    25    51    1
    58    26    52    1
    59    26    53    1
    60    31    54    1
    61    32    55    1
