@<TRIPOS>MOLECULE
ChEBML1274711
 29 30 0 0 0
SMALL
USER_CHARGES

@<TRIPOS>ATOM
      1 C         -11.2974   -5.6116   -0.0504 C.ar    1  LIG1       -0.0478
      2 C          -9.9930   -5.1127    0.0102 C.ar    1  LIG1       -0.0394
      3 C         -12.0932   -3.8751    1.4489 C.ar    1  LIG1       -0.0405
      4 C         -10.1956   -2.2551    2.2100 C.ar    1  LIG1       -0.0254
      5 C         -10.7863   -3.3540    1.5255 C.ar    1  LIG1       -0.0014
      6 C         -12.3328   -5.0040    0.6570 C.ar    1  LIG1        0.0375
      7 C          -9.7684   -3.9836    0.8059 C.ar    1  LIG1        0.0379
      8 C          -8.8555   -2.2394    1.8988 C.ar    1  LIG1        0.1046
      9 C         -13.6795   -5.5479    0.5729 C.2     1  LIG1        0.2404
     10 C          -7.8523   -1.3252    2.3451 C.2     1  LIG1        0.3070
     11 C          -5.7126   -1.1718   -0.3514 C.3     1  LIG1       -0.0409
     12 C          -5.9655   -0.6125    1.0324 C.3     1  LIG1        0.0539
     13 N          -8.6074   -3.2855    1.0511 N.ar    1  LIG1       -0.3094
     14 N         -14.6819   -4.9086    1.2961 N.am    1  LIG1       -0.3251
     15 O         -13.9285   -6.5589   -0.1066 O.2     1  LIG1       -0.2721
     16 O          -8.0436   -0.3586    3.1188 O.2     1  LIG1       -0.2591
     17 O          -6.6074   -1.6133    1.8297 O.3     1  LIG1       -0.3114
     18 H         -11.4941   -6.4887   -0.6632 H       1  LIG1        0.0631
     19 H          -9.1875   -5.5863   -0.5409 H       1  LIG1        0.0643
     20 H         -12.9024   -3.4027    1.9998 H       1  LIG1        0.0638
     21 H         -10.7010   -1.5537    2.8605 H       1  LIG1        0.0652
     22 H          -5.0629   -2.0502   -0.3046 H       1  LIG1        0.0254
     23 H          -6.6551   -1.4543   -0.8319 H       1  LIG1        0.0254
     24 H          -5.2422   -0.4184   -0.9920 H       1  LIG1        0.0254
     25 H          -6.6158    0.2657    0.9783 H       1  LIG1        0.0570
     26 H          -5.0228   -0.3314    1.5112 H       1  LIG1        0.0570
     27 H          -7.7040   -3.5149    0.6598 H       1  LIG1        0.1530
     28 H         -14.4489   -4.0936    1.8531 H       1  LIG1        0.1458
     29 H         -15.6410   -5.2399    1.2783 H       1  LIG1        0.1458
@<TRIPOS>BOND
     1     1     2   ar
     2     1     6   ar
     3     2     7   ar
     4     3     5   ar
     5     3     6   ar
     6     4     5   ar
     7     4     8   ar
     8     5     7   ar
     9     6     9    1
    10     7    13   ar
    11     8    10    1
    12     8    13   ar
    13     9    14   am
    14     9    15    2
    15    10    16    2
    16    10    17    1
    17    11    12    1
    18    12    17    1
    19     1    18    1
    20     2    19    1
    21     3    20    1
    22     4    21    1
    23    11    22    1
    24    11    23    1
    25    11    24    1
    26    12    25    1
    27    12    26    1
    28    13    27    1
    29    14    28    1
    30    14    29    1
