@<TRIPOS>MOLECULE
ChEBML296831
 46 48 0 0 0
SMALL
USER_CHARGES

@<TRIPOS>ATOM
      1 C          -2.3353    1.0791   -3.3452 C.ar    1  LIG1       -0.0435
      2 C          -1.6114    0.1082   -2.6621 C.ar    1  LIG1       -0.0560
      3 C         -11.9982   -3.3402    0.4215 C.ar    1  LIG1       -0.0482
      4 C         -11.4912   -5.3239    1.7041 C.ar    1  LIG1       -0.0482
      5 C         -10.6513   -2.9787    0.4482 C.ar    1  LIG1       -0.0401
      6 C         -10.1443   -4.9624    1.7307 C.ar    1  LIG1       -0.0401
      7 C          -3.6266    1.3448   -2.9190 C.ar    1  LIG1        0.0271
      8 C         -12.4181   -4.5128    1.0495 C.ar    1  LIG1        0.0556
      9 C          -2.1928   -0.5579   -1.5890 C.ar    1  LIG1       -0.0292
     10 C          -9.7243   -3.7898    1.1028 C.ar    1  LIG1        0.0340
     11 C          -3.4904   -0.2186   -1.2414 C.ar    1  LIG1        0.0465
     12 C          -7.9960   -2.0906    1.0997 C.2     1  LIG1        0.3049
     13 C          -4.8859   -2.1781   -0.5833 C.3     1  LIG1       -0.0288
     14 C          -5.1591    0.0580    0.5914 C.3     1  LIG1       -0.0288
     15 C          -5.6954   -2.8251    0.5414 C.3     1  LIG1        0.0163
     16 C          -5.9400   -0.6641    1.6872 C.3     1  LIG1        0.0163
     17 C          -4.1656   -0.9026   -0.0971 C.3     1  LIG1        0.0044
     18 C          -1.4223   -1.5988   -0.8530 C.3     1  LIG1       -0.0380
     19 C         -13.8584   -4.8992    1.0211 C.3     1  LIG1        0.4160
     20 N          -4.2249    0.7188   -1.8811 N.ar    1  LIG1       -0.2607
     21 N          -6.6120   -1.8467    1.1308 N.am    1  LIG1       -0.2855
     22 N          -8.3715   -3.4271    1.1295 N.am    1  LIG1       -0.2691
     23 O          -8.8298   -1.1788    1.0547 O.2     1  LIG1       -0.2537
     24 F         -14.6497   -4.0135    0.3462 F       1  LIG1       -0.1661
     25 F         -14.0887   -6.1070    0.4263 F       1  LIG1       -0.1661
     26 F         -14.4008   -4.9966    2.2697 F       1  LIG1       -0.1661
     27 H          -1.9033    1.6124   -4.1842 H       1  LIG1        0.0639
     28 H          -0.5958   -0.1216   -2.9728 H       1  LIG1        0.0626
     29 H         -12.7139   -2.7012   -0.0890 H       1  LIG1        0.0629
     30 H         -11.8098   -6.2389    2.1966 H       1  LIG1        0.0629
     31 H         -10.3350   -2.0629   -0.0449 H       1  LIG1        0.0642
     32 H          -9.4304   -5.6013    2.2447 H       1  LIG1        0.0642
     33 H          -4.2333    2.0930   -3.4185 H       1  LIG1        0.0839
     34 H          -4.1575   -2.8981   -0.9757 H       1  LIG1        0.0289
     35 H          -5.5616   -1.9275   -1.4125 H       1  LIG1        0.0289
     36 H          -5.8619    0.4627   -0.1492 H       1  LIG1        0.0289
     37 H          -4.6214    0.9118    1.0213 H       1  LIG1        0.0289
     38 H          -6.2379   -3.6916    0.1513 H       1  LIG1        0.0470
     39 H          -5.0324   -3.1829    1.3379 H       1  LIG1        0.0470
     40 H          -5.2557   -1.0182    2.4680 H       1  LIG1        0.0470
     41 H          -6.6285    0.0276    2.1717 H       1  LIG1        0.0470
     42 H          -3.3887   -1.1864    0.6234 H       1  LIG1        0.0369
     43 H          -0.8644   -1.1478   -0.0224 H       1  LIG1        0.0280
     44 H          -2.0852   -2.3737   -0.4448 H       1  LIG1        0.0280
     45 H          -0.7081   -2.1097   -1.5131 H       1  LIG1        0.0280
     46 H          -7.6610   -4.1461    1.1708 H       1  LIG1        0.1573
@<TRIPOS>BOND
     1     1     2   ar
     2     1     7   ar
     3     2     9   ar
     4     3     5   ar
     5     3     8   ar
     6     4     6   ar
     7     4     8   ar
     8     5    10   ar
     9     6    10   ar
    10     7    20   ar
    11     8    19    1
    12     9    11   ar
    13     9    18    1
    14    10    22    1
    15    11    17    1
    16    11    20   ar
    17    12    21   am
    18    12    22   am
    19    12    23    2
    20    13    15    1
    21    13    17    1
    22    14    16    1
    23    14    17    1
    24    15    21    1
    25    16    21    1
    26    19    24    1
    27    19    25    1
    28    19    26    1
    29     1    27    1
    30     2    28    1
    31     3    29    1
    32     4    30    1
    33     5    31    1
    34     6    32    1
    35     7    33    1
    36    13    34    1
    37    13    35    1
    38    14    36    1
    39    14    37    1
    40    15    38    1
    41    15    39    1
    42    16    40    1
    43    16    41    1
    44    17    42    1
    45    18    43    1
    46    18    44    1
    47    18    45    1
    48    22    46    1
