@<TRIPOS>MOLECULE
ChEBML937108
 61 64 0 0 0
SMALL
USER_CHARGES

@<TRIPOS>ATOM
      1 C          -2.1651    0.9999   -3.6627 C.ar    1  LIG1       -0.0556
      2 C          -9.9615   -4.9737   -0.0533 C.ar    1  LIG1       -0.0280
      3 C         -11.1911   -5.6209    0.1011 C.ar    1  LIG1       -0.0291
      4 C          -1.4223   -0.1625   -3.8692 C.ar    1  LIG1       -0.0392
      5 C         -11.8717   -4.0678    1.8511 C.ar    1  LIG1       -0.0215
      6 C          -2.5176   -1.1978   -1.9809 C.ar    1  LIG1       -0.0178
      7 C         -10.6415   -3.4016    1.7125 C.ar    1  LIG1        0.0136
      8 C          -3.0840    1.0635   -2.6152 C.ar    1  LIG1       -0.0295
      9 C         -10.0180   -2.2818    2.3233 C.ar    1  LIG1       -0.0040
     10 C          -3.2604   -0.0354   -1.7744 C.ar    1  LIG1        0.0373
     11 C          -9.7326   -3.8734    0.7709 C.ar    1  LIG1        0.0901
     12 C         -12.1308   -5.1780    1.0355 C.ar    1  LIG1        0.0754
     13 C          -1.5986   -1.2614   -3.0283 C.ar    1  LIG1        0.0563
     14 C          -8.7880   -2.1470    1.7220 C.ar    1  LIG1        0.1579
     15 C          -7.6897   -1.1699    1.9308 C.2     1  LIG1        0.3174
     16 C          -4.4729   -0.9953    0.2089 C.2     1  LIG1        0.2427
     17 C           1.4777   -1.1720   -2.6880 C.3     1  LIG1        0.0487
     18 C           0.4713   -2.4465   -0.8402 C.3     1  LIG1        0.0487
     19 C           2.7788   -1.1538   -1.8979 C.3     1  LIG1        0.0637
     20 C           1.8146   -2.3743   -0.1277 C.3     1  LIG1        0.0637
     21 C          -3.8657    2.3216   -2.4177 C.3     1  LIG1       -0.0379
     22 C         -10.5787   -1.4313    3.3914 C.3     1  LIG1       -0.0362
     23 C         -14.2375   -5.3369    2.1274 C.3     1  LIG1        0.0422
     24 C          -5.5279   -0.5598    1.2026 C.3     1  LIG1        0.1337
     25 N           0.7063   -2.3931   -2.3129 N.3     1  LIG1       -0.2723
     26 N          -4.1760    0.0092   -0.7200 N.am    1  LIG1       -0.2831
     27 O          -7.7442   -0.2658    2.7498 O.2     1  LIG1       -0.2582
     28 O          -3.9850   -2.1197    0.2713 O.2     1  LIG1       -0.2746
     29 O          -1.3927   -3.8362   -2.7100 O.2     1  LIG1       -0.4762
     30 O          -0.2478   -2.7575   -4.6780 O.2     1  LIG1       -0.4762
     31 O          -8.6053   -3.1078    0.7790 O.2     1  LIG1       -0.3031
     32 O           2.5076   -1.1794   -0.4948 O.3     1  LIG1       -0.3780
     33 O         -13.3193   -5.8352    1.1574 O.3     1  LIG1       -0.3493
     34 O          -6.6392   -1.4254    1.0963 O.3     1  LIG1       -0.3007
     35 S          -0.6581   -2.7323   -3.2902 S.O2    1  LIG1       -0.1656
     36 H          -2.0203    1.8506   -4.3234 H       1  LIG1        0.0627
     37 H          -9.2278   -5.3111   -0.7756 H       1  LIG1        0.0651
     38 H         -11.4137   -6.4848   -0.5212 H       1  LIG1        0.0651
     39 H          -0.7090   -0.2013   -4.6881 H       1  LIG1        0.0642
     40 H         -12.6088   -3.7316    2.5746 H       1  LIG1        0.0658
     41 H          -2.6541   -2.0555   -1.3259 H       1  LIG1        0.0662
     42 H           0.8764   -0.2855   -2.4551 H       1  LIG1        0.0506
     43 H           1.6981   -1.1861   -3.7600 H       1  LIG1        0.0506
     44 H          -0.0350   -3.3808   -0.5780 H       1  LIG1        0.0506
     45 H          -0.1613   -1.5997   -0.5501 H       1  LIG1        0.0506
     46 H           3.4202   -2.0042   -2.1589 H       1  LIG1        0.0583
     47 H           3.3354   -0.2367   -2.1143 H       1  LIG1        0.0583
     48 H           1.6626   -2.3531    0.9560 H       1  LIG1        0.0583
     49 H           2.4413   -3.2433   -0.3609 H       1  LIG1        0.0583
     50 H          -4.7991    2.2818   -2.9907 H       1  LIG1        0.0280
     51 H          -4.1105    2.4733   -1.3595 H       1  LIG1        0.0280
     52 H          -3.2925    3.1986   -2.7423 H       1  LIG1        0.0280
     53 H         -10.3151   -1.8203    4.3886 H       1  LIG1        0.0281
     54 H         -10.2115   -0.3927    3.3291 H       1  LIG1        0.0281
     55 H         -11.6792   -1.3691    3.3361 H       1  LIG1        0.0281
     56 H         -15.1423   -5.9496    2.1224 H       1  LIG1        0.0535
     57 H         -14.4866   -4.2985    1.8951 H       1  LIG1        0.0535
     58 H         -13.7727   -5.3859    3.1150 H       1  LIG1        0.0535
     59 H          -5.1261   -0.5991    2.2196 H       1  LIG1        0.0675
     60 H          -5.8501    0.4656    0.9982 H       1  LIG1        0.0675
     61 H          -4.6952    0.8872   -0.6132 H       1  LIG1        0.1557
@<TRIPOS>BOND
     1     1     4   ar
     2     1     8   ar
     3     2     3   ar
     4     2    11   ar
     5     3    12   ar
     6     4    13   ar
     7     5     7   ar
     8     5    12   ar
     9     6    10   ar
    10     6    13   ar
    11     7     9   ar
    12     7    11   ar
    13     8    10   ar
    14     8    21    1
    15     9    14   ar
    16     9    22    1
    17    10    26    1
    18    11    31   ar
    19    12    33    1
    20    13    35    1
    21    14    15    1
    22    14    31   ar
    23    15    27    2
    24    15    34    1
    25    16    24    1
    26    16    26   am
    27    16    28    2
    28    17    19    1
    29    17    25    1
    30    18    20    1
    31    18    25    1
    32    19    32    1
    33    20    32    1
    34    23    33    1
    35    24    34    1
    36    25    35    1
    37    29    35    2
    38    30    35    2
    39     1    36    1
    40     2    37    1
    41     3    38    1
    42     4    39    1
    43     5    40    1
    44     6    41    1
    45    17    42    1
    46    17    43    1
    47    18    44    1
    48    18    45    1
    49    19    46    1
    50    19    47    1
    51    20    48    1
    52    20    49    1
    53    21    50    1
    54    21    51    1
    55    21    52    1
    56    22    53    1
    57    22    54    1
    58    22    55    1
    59    23    56    1
    60    23    57    1
    61    23    58    1
    62    24    59    1
    63    24    60    1
    64    26    61    1
