@<TRIPOS>MOLECULE
ChEBML1066943
 30 32 0 0 0
SMALL
USER_CHARGES

@<TRIPOS>ATOM
      1 C          -4.1672   -0.5958   -1.4132 C.ar    1  LIG1       -0.0435
      2 C         -12.1405   -3.4988    1.8345 C.ar    1  LIG1       -0.0501
      3 C          -4.4773   -1.0477   -0.1353 C.ar    1  LIG1       -0.0555
      4 C         -12.5608   -4.7113    1.2759 C.ar    1  LIG1       -0.0256
      5 C         -10.0211   -2.0236    2.2043 C.ar    1  LIG1       -0.0280
      6 C         -10.2958   -5.2306    0.5656 C.ar    1  LIG1       -0.0043
      7 C          -5.2081   -0.4289   -2.3124 C.ar    1  LIG1        0.0268
      8 C          -6.7678   -1.1157   -0.7717 C.ar    1  LIG1        0.0304
      9 C         -10.7791   -3.1430    1.7599 C.ar    1  LIG1       -0.0021
     10 C          -5.8001   -1.3150    0.1996 C.ar    1  LIG1       -0.0218
     11 C          -9.8900   -4.0153    1.1285 C.ar    1  LIG1        0.0407
     12 C         -11.6509   -5.5623    0.6518 C.ar    1  LIG1        0.1246
     13 C          -8.7109   -2.2344    1.8412 C.ar    1  LIG1        0.0750
     14 C          -7.5812   -1.3902    2.0689 C.2     1  LIG1        0.1808
     15 C          -6.1690   -1.8058    1.5781 C.3     1  LIG1        0.0389
     16 N          -6.5051   -0.6781   -2.0235 N.ar    1  LIG1       -0.2644
     17 N          -8.6418   -3.4381    1.1926 N.ar    1  LIG1       -0.3114
     18 O          -7.6900   -0.2879    2.6730 O.2     1  LIG1       -0.2923
     19 F         -12.0807   -6.7174    0.1247 F       1  LIG1       -0.2069
     20 H          -3.1432   -0.3809   -1.6964 H       1  LIG1        0.0639
     21 H         -12.8608   -2.8444    2.3172 H       1  LIG1        0.0631
     22 H          -3.6826   -1.1882    0.5923 H       1  LIG1        0.0627
     23 H         -13.6094   -4.9915    1.3305 H       1  LIG1        0.0653
     24 H         -10.3988   -1.1581    2.7328 H       1  LIG1        0.0651
     25 H          -9.5882   -5.8936    0.0793 H       1  LIG1        0.0673
     26 H          -5.0184   -0.0790   -3.3218 H       1  LIG1        0.0839
     27 H          -7.8169   -1.3075   -0.5684 H       1  LIG1        0.0842
     28 H          -6.1160   -2.9009    1.5885 H       1  LIG1        0.0401
     29 H          -5.4350   -1.4241    2.2975 H       1  LIG1        0.0401
     30 H          -7.7984   -3.8469    0.8141 H       1  LIG1        0.1529
@<TRIPOS>BOND
     1     1     3   ar
     2     1     7   ar
     3     2     4   ar
     4     2     9   ar
     5     3    10   ar
     6     4    12   ar
     7     5     9   ar
     8     5    13   ar
     9     6    11   ar
    10     6    12   ar
    11     7    16   ar
    12     8    10   ar
    13     8    16   ar
    14     9    11   ar
    15    10    15    1
    16    11    17   ar
    17    12    19    1
    18    13    14    1
    19    13    17   ar
    20    14    15    1
    21    14    18    2
    22     1    20    1
    23     2    21    1
    24     3    22    1
    25     4    23    1
    26     5    24    1
    27     6    25    1
    28     7    26    1
    29     8    27    1
    30    15    28    1
    31    15    29    1
    32    17    30    1
