@<TRIPOS>MOLECULE
ChEBML516698
 44 46 0 0 0
SMALL
USER_CHARGES

@<TRIPOS>ATOM
      1 C          -1.6712   -0.1296   -2.9086 C.ar    1  LIG1       -0.0284
      2 C          -2.3532    0.8362   -3.6255 C.ar    1  LIG1       -0.0408
      3 C         -10.7646   -3.0345    1.5661 C.ar    1  LIG1       -0.0430
      4 C          -9.9578   -1.9960    1.9311 C.ar    1  LIG1       -0.0416
      5 C          -4.2179    0.6437   -2.1306 C.ar    1  LIG1       -0.0195
      6 C          -3.5412   -0.3303   -1.4109 C.ar    1  LIG1        0.0609
      7 C          -2.2593   -0.7137   -1.7991 C.ar    1  LIG1        0.0958
      8 C          -3.6239    1.2224   -3.2376 C.ar    1  LIG1        0.0426
      9 C         -10.1822   -4.1653    1.0025 C.ar    1  LIG1        0.0651
     10 C          -8.5898   -2.1089    1.7259 C.ar    1  LIG1        0.0751
     11 C         -10.8242   -5.3938    0.5356 C.2     1  LIG1        0.2726
     12 C          -7.5255   -1.1377    2.0313 C.2     1  LIG1        0.2524
     13 C          -4.5404    0.1717    0.5996 C.3     1  LIG1        0.0275
     14 C          -5.3704   -1.5692   -0.7696 C.3     1  LIG1        0.0275
     15 C          -5.1875   -0.4066    1.8620 C.3     1  LIG1        0.0303
     16 C          -6.0723   -2.2625    0.4026 C.3     1  LIG1        0.0303
     17 C          -0.3212   -1.8339   -1.7300 C.3     1  LIG1        0.0423
     18 C          -9.9901   -6.5050   -0.0482 C.3     1  LIG1        0.4550
     19 N          -4.1424   -0.9220   -0.2941 N.pl3   1  LIG1       -0.3255
     20 N          -6.3131   -1.2635    1.4562 N.am    1  LIG1       -0.2942
     21 O         -12.0286   -5.5184    0.6182 O.2     1  LIG1       -0.2833
     22 O          -7.7407   -0.2222    2.8023 O.2     1  LIG1       -0.2710
     23 O          -1.5889   -1.6636   -1.0929 O.3     1  LIG1       -0.3473
     24 F         -10.8218   -7.5666   -0.4200 F       1  LIG1       -0.1630
     25 F          -9.3057   -6.0326   -1.1731 F       1  LIG1       -0.1630
     26 F          -9.0683   -6.9472    0.9068 F       1  LIG1       -0.1630
     27 S          -8.4511   -3.7294    0.9898 S.2     1  LIG1       -0.0804
     28 CL         -4.4744    2.4360   -4.1418 Cl      1  LIG1       -0.0842
     29 H          -0.6793   -0.4286   -3.2138 H       1  LIG1        0.0651
     30 H          -1.8926    1.2908   -4.4903 H       1  LIG1        0.0639
     31 H         -11.8333   -2.9798    1.7121 H       1  LIG1        0.0636
     32 H         -10.3760   -1.1032    2.3719 H       1  LIG1        0.0637
     33 H          -5.2097    0.9467   -1.8293 H       1  LIG1        0.0659
     34 H          -3.6607    0.7529    0.8761 H       1  LIG1        0.0485
     35 H          -5.2550    0.8165    0.0880 H       1  LIG1        0.0485
     36 H          -6.0344   -0.8182   -1.1975 H       1  LIG1        0.0485
     37 H          -5.1201   -2.3080   -1.5309 H       1  LIG1        0.0485
     38 H          -4.4554   -0.9982    2.4118 H       1  LIG1        0.0486
     39 H          -5.5523    0.4046    2.4921 H       1  LIG1        0.0486
     40 H          -5.4383   -3.0597    0.7906 H       1  LIG1        0.0486
     41 H          -7.0223   -2.6787    0.0674 H       1  LIG1        0.0486
     42 H           0.2212   -0.8885   -1.7184 H       1  LIG1        0.0535
     43 H           0.2550   -2.5899   -1.1965 H       1  LIG1        0.0535
     44 H          -0.4727   -2.1532   -2.7611 H       1  LIG1        0.0535
@<TRIPOS>BOND
     1     1     2   ar
     2     1     7   ar
     3     2     8   ar
     4     3     4   ar
     5     3     9   ar
     6     4    10   ar
     7     5     6   ar
     8     5     8   ar
     9     6     7   ar
    10     6    19    1
    11     7    23    1
    12     8    28    1
    13     9    11    1
    14     9    27   ar
    15    10    12    1
    16    10    27   ar
    17    11    18    1
    18    11    21    2
    19    12    20   am
    20    12    22    2
    21    13    15    1
    22    13    19    1
    23    14    16    1
    24    14    19    1
    25    15    20    1
    26    16    20    1
    27    17    23    1
    28    18    24    1
    29    18    25    1
    30    18    26    1
    31     1    29    1
    32     2    30    1
    33     3    31    1
    34     4    32    1
    35     5    33    1
    36    13    34    1
    37    13    35    1
    38    14    36    1
    39    14    37    1
    40    15    38    1
    41    15    39    1
    42    16    40    1
    43    16    41    1
    44    17    42    1
    45    17    43    1
    46    17    44    1
