@<TRIPOS>MOLECULE
ChEBML856247
 37 38 0 0 0
SMALL
USER_CHARGES

@<TRIPOS>ATOM
      1 C          -3.5339    1.3918   -3.1512 C.ar    1  LIG1       -0.0602
      2 C          -2.3183    0.9543   -3.6771 C.ar    1  LIG1       -0.0595
      3 C          -4.0352    0.8182   -1.9826 C.ar    1  LIG1       -0.0380
      4 C          -1.6040   -0.0570   -3.0346 C.ar    1  LIG1       -0.0299
      5 C         -10.0194   -1.8666    2.2413 C.ar    1  LIG1        0.0591
      6 C          -9.6306   -4.2473    1.0976 C.ar    1  LIG1        0.0491
      7 C          -3.3208   -0.1931   -1.3401 C.ar    1  LIG1        0.0632
      8 C          -2.1052   -0.6306   -1.8660 C.ar    1  LIG1        0.0959
      9 C          -8.7616   -2.2711    1.8515 C.ar    1  LIG1        0.1536
     10 C         -10.8882   -3.8434    1.4880 C.ar    1  LIG1        0.0556
     11 C          -7.5729   -1.4043    2.0522 C.2     1  LIG1        0.3135
     12 C          -5.0303   -0.4418    0.4877 C.2     1  LIG1        0.2427
     13 C         -12.0654   -4.7315    1.2814 C.3     1  LIG1       -0.0207
     14 C          -1.6656   -2.9582   -1.6546 C.3     1  LIG1        0.0423
     15 C          -5.2369   -1.2815    1.7296 C.3     1  LIG1        0.1336
     16 N          -8.5446   -3.4685    1.2724 N.ar    1  LIG1       -0.2469
     17 N         -11.1053   -2.6457    2.0668 N.ar    1  LIG1       -0.2575
     18 N          -3.8360   -0.7582   -0.1712 N.am    1  LIG1       -0.2812
     19 O          -7.6297   -0.2978    2.5657 O.2     1  LIG1       -0.2587
     20 O          -5.8577    0.4047    0.1636 O.2     1  LIG1       -0.2746
     21 O          -1.3915   -1.6175   -1.2539 O.3     1  LIG1       -0.3473
     22 O          -6.4390   -2.0107    1.5921 O.3     1  LIG1       -0.3010
     23 H          -4.0896    2.1795   -3.6514 H       1  LIG1        0.0623
     24 H          -1.9277    1.4014   -4.5865 H       1  LIG1        0.0623
     25 H          -4.9835    1.1677   -1.5824 H       1  LIG1        0.0643
     26 H          -0.6576   -0.3929   -3.4496 H       1  LIG1        0.0651
     27 H         -10.2023   -0.9052    2.7072 H       1  LIG1        0.0865
     28 H          -9.4487   -5.2087    0.6316 H       1  LIG1        0.0859
     29 H         -12.2161   -5.3793    2.1547 H       1  LIG1        0.0296
     30 H         -12.9832   -4.1497    1.1199 H       1  LIG1        0.0296
     31 H         -11.9360   -5.3690    0.3959 H       1  LIG1        0.0296
     32 H          -1.0298   -3.6451   -1.0907 H       1  LIG1        0.0535
     33 H          -1.4761   -3.0654   -2.7255 H       1  LIG1        0.0535
     34 H          -2.7146   -3.1836   -1.4479 H       1  LIG1        0.0535
     35 H          -4.3992   -1.9733    1.8599 H       1  LIG1        0.0675
     36 H          -5.3014   -0.6462    2.6180 H       1  LIG1        0.0675
     37 H          -3.2686   -1.4971    0.2581 H       1  LIG1        0.1558
@<TRIPOS>BOND
     1     1     2   ar
     2     1     3   ar
     3     2     4   ar
     4     3     7   ar
     5     4     8   ar
     6     5     9   ar
     7     5    17   ar
     8     6    10   ar
     9     6    16   ar
    10     7     8   ar
    11     7    18    1
    12     8    21    1
    13     9    11    1
    14     9    16   ar
    15    10    13    1
    16    10    17   ar
    17    11    19    2
    18    11    22    1
    19    12    15    1
    20    12    18   am
    21    12    20    2
    22    14    21    1
    23    15    22    1
    24     1    23    1
    25     2    24    1
    26     3    25    1
    27     4    26    1
    28     5    27    1
    29     6    28    1
    30    13    29    1
    31    13    30    1
    32    13    31    1
    33    14    32    1
    34    14    33    1
    35    14    34    1
    36    15    35    1
    37    15    36    1
    38    18    37    1
