@<TRIPOS>MOLECULE
ChEBML1144629
 45 48 0 0 0
SMALL
USER_CHARGES

@<TRIPOS>ATOM
      1 C          -1.8589    0.9773   -3.4027 C.ar    1  LIG1       -0.0622
      2 C          -3.2224    1.2361   -3.5425 C.ar    1  LIG1       -0.0620
      3 C          -1.3956    0.2524   -2.3048 C.ar    1  LIG1       -0.0620
      4 C          -8.4168   -2.9720    0.8230 C.ar    1  LIG1       -0.0506
      5 C          -4.1225    0.7700   -2.5842 C.ar    1  LIG1       -0.0590
      6 C          -2.2956   -0.2136   -1.3465 C.ar    1  LIG1       -0.0590
      7 C          -9.4127   -3.8545    0.3944 C.ar    1  LIG1       -0.0345
      8 C          -7.4763   -0.8395    3.6546 C.ar    1  LIG1       -0.0173
      9 C          -9.8569   -2.1447    2.5895 C.ar    1  LIG1       -0.0365
     10 C          -6.4411    0.0289    3.9349 C.ar    1  LIG1        0.0311
     11 C          -8.6382   -2.1291    1.9064 C.ar    1  LIG1        0.0015
     12 C          -3.6592    0.0452   -1.4862 C.ar    1  LIG1       -0.0475
     13 C         -10.6534   -3.8905    1.0669 C.ar    1  LIG1        0.0799
     14 C         -10.8527   -3.0337    2.1536 C.ar    1  LIG1        0.0415
     15 C          -7.5941   -1.2216    2.3339 C.ar    1  LIG1        0.0740
     16 C          -5.8004    0.0486    1.7540 C.ar    1  LIG1        0.1288
     17 C         -12.7155   -4.4748    1.5896 C.ar    1  LIG1        0.1644
     18 C         -14.4667   -6.0830    0.7701 C.2     1  LIG1        0.2144
     19 C         -15.8748   -6.4790    1.1369 C.3     1  LIG1        0.0131
     20 C          -4.6325   -0.4591   -0.4488 C.3     1  LIG1       -0.0208
     21 C          -4.8703    0.5428    0.6986 C.3     1  LIG1        0.0115
     22 N          -5.5811    0.4948    3.0056 N.ar    1  LIG1       -0.2413
     23 N         -11.7290   -4.7097    0.7563 N.ar    1  LIG1       -0.2252
     24 N          -6.7706   -0.7953    1.3538 N.ar    1  LIG1       -0.2329
     25 N         -13.9473   -5.0732    1.6180 N.am    1  LIG1       -0.2645
     26 O         -13.8882   -6.6183   -0.1699 O.2     1  LIG1       -0.2775
     27 S         -12.4381   -3.2820    2.7839 S.2     1  LIG1       -0.0519
     28 H          -1.1583    1.3391   -4.1496 H       1  LIG1        0.0622
     29 H          -3.5835    1.7995   -4.3979 H       1  LIG1        0.0623
     30 H          -0.3341    0.0498   -2.1962 H       1  LIG1        0.0623
     31 H          -7.4672   -2.9578    0.2922 H       1  LIG1        0.0630
     32 H          -5.1832    0.9767   -2.7012 H       1  LIG1        0.0625
     33 H          -1.9256   -0.7774   -0.4942 H       1  LIG1        0.0625
     34 H          -9.2290   -4.5086   -0.4534 H       1  LIG1        0.0646
     35 H          -8.1451   -1.1898    4.4310 H       1  LIG1        0.0662
     36 H         -10.0363   -1.4880    3.4369 H       1  LIG1        0.0642
     37 H          -6.2700    0.3851    4.9452 H       1  LIG1        0.0841
     38 H         -16.5887   -5.8543    0.5927 H       1  LIG1        0.0328
     39 H         -16.0302   -6.3416    2.2108 H       1  LIG1        0.0328
     40 H         -16.0438   -7.5307    0.8874 H       1  LIG1        0.0328
     41 H          -5.5846   -0.6787   -0.9495 H       1  LIG1        0.0320
     42 H          -4.2831   -1.4180   -0.0451 H       1  LIG1        0.0320
     43 H          -5.2771    1.4724    0.2647 H       1  LIG1        0.0352
     44 H          -3.9016    0.8375    1.1383 H       1  LIG1        0.0352
     45 H         -14.6148   -4.7660    2.3515 H       1  LIG1        0.1577
@<TRIPOS>BOND
     1     1     2   ar
     2     1     3   ar
     3     2     5   ar
     4     3     6   ar
     5     4     7   ar
     6     4    11   ar
     7     5    12   ar
     8     6    12   ar
     9     7    13   ar
    10     8    10   ar
    11     8    15   ar
    12     9    11   ar
    13     9    14   ar
    14    10    22   ar
    15    11    15    1
    16    12    20    1
    17    13    14   ar
    18    13    23   ar
    19    14    27   ar
    20    15    24   ar
    21    16    21    1
    22    16    22   ar
    23    16    24   ar
    24    17    23   ar
    25    17    25    1
    26    17    27   ar
    27    18    19    1
    28    18    25   am
    29    18    26    2
    30    20    21    1
    31     1    28    1
    32     2    29    1
    33     3    30    1
    34     4    31    1
    35     5    32    1
    36     6    33    1
    37     7    34    1
    38     8    35    1
    39     9    36    1
    40    10    37    1
    41    19    38    1
    42    19    39    1
    43    19    40    1
    44    20    41    1
    45    20    42    1
    46    21    43    1
    47    21    44    1
    48    25    45    1
