@<TRIPOS>MOLECULE
ChEBML198585
 39 41 0 0 0
SMALL
USER_CHARGES

@<TRIPOS>ATOM
      1 C          -2.2355    0.9601   -3.4728 C.ar    1  LIG1       -0.0422
      2 C         -10.2670   -5.1656    1.0141 C.ar    1  LIG1       -0.0396
      3 C         -10.6127   -2.7778    1.1421 C.ar    1  LIG1       -0.0396
      4 C          -1.9711   -0.3829   -3.2288 C.ar    1  LIG1       -0.0384
      5 C         -11.6332   -5.3521    0.8037 C.ar    1  LIG1       -0.0470
      6 C         -11.9788   -2.9644    0.9317 C.ar    1  LIG1       -0.0470
      7 C          -3.3299    1.5306   -2.8428 C.ar    1  LIG1        0.0292
      8 C          -9.7567   -3.8785    1.1834 C.ar    1  LIG1        0.0340
      9 C          -2.7974   -1.1044   -2.3744 C.ar    1  LIG1        0.0809
     10 C         -12.4892   -4.2515    0.7625 C.ar    1  LIG1        0.0131
     11 C          -3.8665   -0.4415   -1.7935 C.ar    1  LIG1        0.1388
     12 C          -7.8680   -2.4241    1.6392 C.2     1  LIG1        0.3050
     13 C          -4.8282   -0.6856    0.4397 C.3     1  LIG1        0.0289
     14 C          -5.7799   -1.9265   -1.5278 C.3     1  LIG1        0.0289
     15 C          -6.2954   -0.6736    0.8629 C.3     1  LIG1        0.0315
     16 C          -6.4702   -2.7723   -0.4568 C.3     1  LIG1        0.0315
     17 N          -4.1551    0.8619   -2.0065 N.ar    1  LIG1       -0.2398
     18 N          -4.6917   -1.1369   -0.9478 N.pl3   1  LIG1       -0.3115
     19 N          -6.9142   -1.9875    0.7005 N.am    1  LIG1       -0.2824
     20 N          -8.3858   -3.6916    1.3949 N.am    1  LIG1       -0.2690
     21 O          -8.2128   -1.7402    2.6084 O.2     1  LIG1       -0.2537
     22 CL         -2.4552   -2.7671   -2.0831 Cl      1  LIG1       -0.0805
     23 I         -14.5240   -4.5290    0.4492 I       1  LIG1       -0.0443
     24 H          -1.6052    1.5421   -4.1354 H       1  LIG1        0.0639
     25 H          -9.6090   -6.0302    1.0446 H       1  LIG1        0.0643
     26 H         -10.2256   -1.7705    1.2727 H       1  LIG1        0.0643
     27 H          -1.1178   -0.8519   -3.7120 H       1  LIG1        0.0640
     28 H         -12.0105   -6.3631    0.6740 H       1  LIG1        0.0634
     29 H         -12.6286   -2.0934    0.9029 H       1  LIG1        0.0634
     30 H          -3.5796    2.5746   -3.0004 H       1  LIG1        0.0840
     31 H          -4.4108    0.3206    0.5697 H       1  LIG1        0.0485
     32 H          -4.2560   -1.3638    1.0841 H       1  LIG1        0.0485
     33 H          -5.3919   -2.5868   -2.3127 H       1  LIG1        0.0485
     34 H          -6.5102   -1.2513   -1.9920 H       1  LIG1        0.0485
     35 H          -6.3799   -0.3422    1.9032 H       1  LIG1        0.0486
     36 H          -6.8697    0.0294    0.2472 H       1  LIG1        0.0486
     37 H          -7.3299   -3.2839   -0.9022 H       1  LIG1        0.0486
     38 H          -5.7823   -3.5367   -0.0756 H       1  LIG1        0.0486
     39 H          -7.8077   -4.5236    1.4165 H       1  LIG1        0.1573
@<TRIPOS>BOND
     1     1     4   ar
     2     1     7   ar
     3     2     5   ar
     4     2     8   ar
     5     3     6   ar
     6     3     8   ar
     7     4     9   ar
     8     5    10   ar
     9     6    10   ar
    10     7    17   ar
    11     8    20    1
    12     9    11   ar
    13     9    22    1
    14    10    23    1
    15    11    17   ar
    16    11    18    1
    17    12    19   am
    18    12    20   am
    19    12    21    2
    20    13    15    1
    21    13    18    1
    22    14    16    1
    23    14    18    1
    24    15    19    1
    25    16    19    1
    26     1    24    1
    27     2    25    1
    28     3    26    1
    29     4    27    1
    30     5    28    1
    31     6    29    1
    32     7    30    1
    33    13    31    1
    34    13    32    1
    35    14    33    1
    36    14    34    1
    37    15    35    1
    38    15    36    1
    39    16    37    1
    40    16    38    1
    41    20    39    1
