@<TRIPOS>MOLECULE
ChEBML459906
 56 60 0 0 0
SMALL
USER_CHARGES

@<TRIPOS>ATOM
      1 C          -1.8460    2.4787   -4.6068 C.ar    1  LIG1       -0.0600
      2 C          -0.9911    1.3966   -4.8289 C.ar    1  LIG1       -0.0602
      3 C         -11.1670   -1.9277    1.3006 C.ar    1  LIG1       -0.0536
      4 C         -10.0538   -3.9229    2.0862 C.ar    1  LIG1       -0.0536
      5 C         -13.6630   -3.3862    1.6313 C.ar    1  LIG1       -0.0518
      6 C         -12.3947   -5.3915    1.1761 C.ar    1  LIG1       -0.0518
      7 C          -9.9800   -1.2093    1.4430 C.ar    1  LIG1       -0.0491
      8 C          -8.8666   -3.2046    2.2285 C.ar    1  LIG1       -0.0491
      9 C          -2.8852    2.3971   -3.6715 C.ar    1  LIG1       -0.0344
     10 C          -1.1421    0.1964   -4.1267 C.ar    1  LIG1       -0.0385
     11 C         -14.8500   -4.1048    1.4891 C.ar    1  LIG1       -0.0312
     12 C         -13.5817   -6.1101    1.0339 C.ar    1  LIG1       -0.0312
     13 C         -11.2039   -3.2845    1.6223 C.ar    1  LIG1       -0.0183
     14 C         -12.4353   -4.0296    1.4748 C.ar    1  LIG1       -0.0182
     15 C          -8.8297   -1.8477    1.9069 C.ar    1  LIG1        0.0373
     16 C          -3.0516    1.1985   -2.9571 C.ar    1  LIG1        0.0862
     17 C          -2.1836    0.1377   -3.2002 C.ar    1  LIG1        0.0573
     18 C         -14.8094   -5.4667    1.1904 C.ar    1  LIG1        0.0746
     19 C          -3.6869   -0.3739   -1.6596 C.ar    1  LIG1        0.1020
     20 C          -7.5880   -1.0963    2.0558 C.2     1  LIG1        0.2455
     21 C          -5.8621   -1.4211   -1.0608 C.3     1  LIG1       -0.0275
     22 C          -4.3028   -0.5614    0.7430 C.3     1  LIG1       -0.0275
     23 C          -6.6297   -2.1896    0.0143 C.3     1  LIG1        0.0151
     24 C          -5.1075   -1.3592    1.7670 C.3     1  LIG1        0.0151
     25 C          -4.3895   -1.2089   -0.6543 C.3     1  LIG1        0.0179
     26 C         -15.8538   -7.5567    0.7467 C.3     1  LIG1        0.0422
     27 N          -3.9783    0.8624   -1.9972 N.ar    1  LIG1       -0.2357
     28 N          -2.6134   -0.8544   -2.3566 N.ar    1  LIG1       -0.3011
     29 N          -6.4948   -1.5282    1.3133 N.am    1  LIG1       -0.2978
     30 O          -7.6215   -0.1442    2.8296 O.2     1  LIG1       -0.2716
     31 O         -15.9678   -6.1676    1.0523 O.3     1  LIG1       -0.3493
     32 H          -1.7029    3.3987   -5.1680 H       1  LIG1        0.0623
     33 H          -0.1936    1.4879   -5.5624 H       1  LIG1        0.0623
     34 H         -12.0552   -1.4160    0.9378 H       1  LIG1        0.0629
     35 H         -10.0667   -4.9800    2.3410 H       1  LIG1        0.0629
     36 H         -13.7110   -2.3252    1.8642 H       1  LIG1        0.0630
     37 H         -11.4457   -5.9074    1.0512 H       1  LIG1        0.0630
     38 H          -9.9623   -0.1524    1.1895 H       1  LIG1        0.0631
     39 H          -7.9762   -3.7119    2.5908 H       1  LIG1        0.0631
     40 H          -3.5432    3.2440   -3.5059 H       1  LIG1        0.0646
     41 H          -0.4789   -0.6441   -4.2970 H       1  LIG1        0.0643
     42 H         -15.8034   -3.5982    1.6123 H       1  LIG1        0.0650
     43 H         -13.5439   -7.1709    0.8015 H       1  LIG1        0.0650
     44 H          -5.9185   -1.9635   -2.0126 H       1  LIG1        0.0290
     45 H          -6.3459   -0.4481   -1.2223 H       1  LIG1        0.0290
     46 H          -4.6874    0.4666    0.7013 H       1  LIG1        0.0290
     47 H          -3.2566   -0.4961    1.0658 H       1  LIG1        0.0290
     48 H          -7.6839   -2.2723   -0.2694 H       1  LIG1        0.0470
     49 H          -6.2342   -3.2069    0.1173 H       1  LIG1        0.0470
     50 H          -4.6809   -2.3611    1.8950 H       1  LIG1        0.0470
     51 H          -5.0603   -0.8599    2.7379 H       1  LIG1        0.0470
     52 H          -3.8909   -2.1859   -0.6195 H       1  LIG1        0.0383
     53 H         -16.8511   -7.9955    0.6639 H       1  LIG1        0.0535
     54 H         -15.2875   -8.0589    1.5352 H       1  LIG1        0.0535
     55 H         -15.3285   -7.6696   -0.2046 H       1  LIG1        0.0535
     56 H          -2.2061   -1.7760   -2.2677 H       1  LIG1        0.1540
@<TRIPOS>BOND
     1     1     2   ar
     2     1     9   ar
     3     2    10   ar
     4     3     7   ar
     5     3    13   ar
     6     4     8   ar
     7     4    13   ar
     8     5    11   ar
     9     5    14   ar
    10     6    12   ar
    11     6    14   ar
    12     7    15   ar
    13     8    15   ar
    14     9    16   ar
    15    10    17   ar
    16    11    18   ar
    17    12    18   ar
    18    13    14    1
    19    15    20    1
    20    16    17   ar
    21    16    27   ar
    22    17    28   ar
    23    18    31    1
    24    19    25    1
    25    19    27   ar
    26    19    28   ar
    27    20    29   am
    28    20    30    2
    29    21    23    1
    30    21    25    1
    31    22    24    1
    32    22    25    1
    33    23    29    1
    34    24    29    1
    35    26    31    1
    36     1    32    1
    37     2    33    1
    38     3    34    1
    39     4    35    1
    40     5    36    1
    41     6    37    1
    42     7    38    1
    43     8    39    1
    44     9    40    1
    45    10    41    1
    46    11    42    1
    47    12    43    1
    48    21    44    1
    49    21    45    1
    50    22    46    1
    51    22    47    1
    52    23    48    1
    53    23    49    1
    54    24    50    1
    55    24    51    1
    56    25    52    1
    57    26    53    1
    58    26    54    1
    59    26    55    1
    60    28    56    1
