@<TRIPOS>MOLECULE
ChEBML1274720
 37 39 0 0 0
SMALL
USER_CHARGES

@<TRIPOS>ATOM
      1 C         -11.4312   -5.7122    0.8820 C.ar    1  LIG1       -0.0525
      2 C         -10.0773   -5.3745    0.9644 C.ar    1  LIG1       -0.0396
      3 C         -14.4717   -5.5942    2.1499 C.ar    1  LIG1       -0.0357
      4 C         -12.0908   -3.4360    1.4120 C.ar    1  LIG1       -0.0451
      5 C         -10.0481   -1.8575    1.7862 C.ar    1  LIG1       -0.0254
      6 C         -15.8052   -5.9521    2.0335 C.ar    1  LIG1        0.0274
      7 C         -15.8393   -5.4413   -0.2062 C.ar    1  LIG1        0.0303
      8 C         -10.7324   -3.0720    1.5006 C.ar    1  LIG1       -0.0016
      9 C         -12.4241   -4.7596    1.1019 C.ar    1  LIG1       -0.0173
     10 C         -13.8177   -5.1404    1.0099 C.ar    1  LIG1       -0.0124
     11 C         -14.5074   -5.0594   -0.1946 C.ar    1  LIG1       -0.0249
     12 C          -9.7590   -4.0477    1.2753 C.ar    1  LIG1        0.0379
     13 C          -8.6976   -2.1147    1.7301 C.ar    1  LIG1        0.1046
     14 C          -7.6129   -1.2098    1.9450 C.2     1  LIG1        0.3070
     15 C         -13.8667   -4.5814   -1.4531 C.3     1  LIG1       -0.0376
     16 C          -5.3969    0.3852    0.3094 C.3     1  LIG1       -0.0409
     17 C          -5.3348   -0.7135    1.3490 C.3     1  LIG1        0.0539
     18 N         -16.5083   -5.8871    0.8807 N.ar    1  LIG1       -0.2643
     19 N          -8.5332   -3.4382    1.4210 N.ar    1  LIG1       -0.3094
     20 O          -7.6389   -0.2125    2.7026 O.2     1  LIG1       -0.2591
     21 O          -6.4921   -1.5459    1.2174 O.3     1  LIG1       -0.3114
     22 H         -11.6963   -6.7402    0.6416 H       1  LIG1        0.0630
     23 H          -9.3047   -6.1162    0.7919 H       1  LIG1        0.0643
     24 H         -13.9682   -5.6721    3.1082 H       1  LIG1        0.0645
     25 H         -12.8637   -2.6906    1.5833 H       1  LIG1        0.0636
     26 H         -10.4999   -0.9001    2.0092 H       1  LIG1        0.0652
     27 H         -16.3606   -6.3132    2.8928 H       1  LIG1        0.0840
     28 H         -16.4301   -5.3997   -1.1162 H       1  LIG1        0.0842
     29 H         -13.9807   -3.4947   -1.5516 H       1  LIG1        0.0280
     30 H         -12.7955   -4.8215   -1.4716 H       1  LIG1        0.0280
     31 H         -14.3139   -5.0591   -2.3349 H       1  LIG1        0.0280
     32 H          -5.4124   -0.0337   -0.7006 H       1  LIG1        0.0254
     33 H          -6.2916    1.0003    0.4509 H       1  LIG1        0.0254
     34 H          -4.5338    1.0528    0.4018 H       1  LIG1        0.0254
     35 H          -5.3195   -0.2879    2.3568 H       1  LIG1        0.0570
     36 H          -4.4407   -1.3276    1.2057 H       1  LIG1        0.0570
     37 H          -7.6424   -3.9038    1.3139 H       1  LIG1        0.1530
@<TRIPOS>BOND
     1     1     2   ar
     2     1     9   ar
     3     2    12   ar
     4     3     6   ar
     5     3    10   ar
     6     4     8   ar
     7     4     9   ar
     8     5     8   ar
     9     5    13   ar
    10     6    18   ar
    11     7    11   ar
    12     7    18   ar
    13     8    12   ar
    14     9    10    1
    15    10    11   ar
    16    11    15    1
    17    12    19   ar
    18    13    14    1
    19    13    19   ar
    20    14    20    2
    21    14    21    1
    22    16    17    1
    23    17    21    1
    24     1    22    1
    25     2    23    1
    26     3    24    1
    27     4    25    1
    28     5    26    1
    29     6    27    1
    30     7    28    1
    31    15    29    1
    32    15    30    1
    33    15    31    1
    34    16    32    1
    35    16    33    1
    36    16    34    1
    37    17    35    1
    38    17    36    1
    39    19    37    1
