@<TRIPOS>MOLECULE
ChEBML730831
 48 51 0 0 0
SMALL
USER_CHARGES

@<TRIPOS>ATOM
      1 C          -3.7944    1.1403   -3.1723 C.ar    1  LIG1       -0.0602
      2 C          -2.5097    0.7825   -3.5372 C.ar    1  LIG1       -0.0595
      3 C         -13.0909   -3.0118    2.0842 C.ar    1  LIG1       -0.0508
      4 C         -12.5266   -4.9947    0.8278 C.ar    1  LIG1       -0.0508
      5 C          -4.3999    0.5402   -2.0844 C.ar    1  LIG1       -0.0382
      6 C          -1.8240   -0.1774   -2.8156 C.ar    1  LIG1       -0.0299
      7 C         -14.4097   -3.4143    2.1152 C.ar    1  LIG1       -0.0428
      8 C         -13.8472   -5.3903    0.8712 C.ar    1  LIG1       -0.0428
      9 C         -10.1933   -2.2431    1.9557 C.ar    1  LIG1        0.0052
     10 C         -12.1376   -3.8028    1.4410 C.ar    1  LIG1        0.0077
     11 C          -3.7202   -0.4275   -1.3591 C.ar    1  LIG1        0.0594
     12 C          -2.4236   -0.7832   -1.7239 C.ar    1  LIG1        0.0957
     13 C         -14.7887   -4.6010    1.5103 C.ar    1  LIG1        0.0406
     14 C         -10.7223   -3.3768    1.4043 C.ar    1  LIG1        0.1172
     15 C          -8.8135   -2.3218    1.6341 C.ar    1  LIG1        0.1562
     16 C          -7.7595   -1.3409    1.9913 C.2     1  LIG1        0.2667
     17 C          -4.7701    0.0368    0.6345 C.3     1  LIG1        0.0275
     18 C          -5.5390   -1.7059   -0.7676 C.3     1  LIG1        0.0275
     19 C          -5.4325   -0.5653    1.8779 C.3     1  LIG1        0.0303
     20 C          -6.2521   -2.4231    0.3832 C.3     1  LIG1        0.0303
     21 C          -0.4666   -1.8677   -1.6252 C.3     1  LIG1        0.0423
     22 N          -8.6568   -3.4311    0.9534 N.ar    1  LIG1       -0.1232
     23 N          -4.3333   -1.0407   -0.2605 N.pl3   1  LIG1       -0.3255
     24 N          -6.5332   -1.4388    1.4406 N.am    1  LIG1       -0.2933
     25 O          -8.0017   -0.4493    2.7802 O.2     1  LIG1       -0.2697
     26 O          -9.6998   -4.0278    0.8223 O.2     1  LIG1       -0.2125
     27 O          -1.7502   -1.7273   -1.0130 O.3     1  LIG1       -0.3473
     28 CL        -16.4504   -5.1015    1.5540 Cl      1  LIG1       -0.0843
     29 H          -4.3258    1.8909   -3.7387 H       1  LIG1        0.0623
     30 H          -2.0402    1.2543   -4.3877 H       1  LIG1        0.0623
     31 H         -12.7963   -2.0865    2.5569 H       1  LIG1        0.0630
     32 H         -11.7943   -5.6085    0.3245 H       1  LIG1        0.0630
     33 H          -5.4034    0.8219   -1.8014 H       1  LIG1        0.0643
     34 H          -0.8206   -0.4546   -3.1032 H       1  LIG1        0.0651
     35 H         -15.1482   -2.8030    2.6125 H       1  LIG1        0.0638
     36 H         -14.1486   -6.3149    0.4014 H       1  LIG1        0.0638
     37 H         -10.7058   -1.4687    2.5072 H       1  LIG1        0.0677
     38 H          -3.9074    0.6314    0.9349 H       1  LIG1        0.0485
     39 H          -5.4858    0.6733    0.1141 H       1  LIG1        0.0485
     40 H          -6.2078   -0.9630   -1.2024 H       1  LIG1        0.0485
     41 H          -5.2591   -2.4325   -1.5303 H       1  LIG1        0.0485
     42 H          -4.7011   -1.1486    2.4373 H       1  LIG1        0.0486
     43 H          -5.8254    0.2329    2.5075 H       1  LIG1        0.0486
     44 H          -5.6115   -3.2122    0.7770 H       1  LIG1        0.0486
     45 H          -7.1870   -2.8534    0.0243 H       1  LIG1        0.0486
     46 H          -0.5908   -2.1798   -2.6622 H       1  LIG1        0.0535
     47 H           0.0575   -0.9125   -1.5936 H       1  LIG1        0.0535
     48 H           0.1126   -2.6180   -1.0869 H       1  LIG1        0.0535
@<TRIPOS>BOND
     1     1     2   ar
     2     1     5   ar
     3     2     6   ar
     4     3     7   ar
     5     3    10   ar
     6     4     8   ar
     7     4    10   ar
     8     5    11   ar
     9     6    12   ar
    10     7    13   ar
    11     8    13   ar
    12     9    14   ar
    13     9    15   ar
    14    10    14    1
    15    11    12   ar
    16    11    23    1
    17    12    27    1
    18    13    28    1
    19    14    26   ar
    20    15    16    1
    21    15    22   ar
    22    16    24   am
    23    16    25    2
    24    17    19    1
    25    17    23    1
    26    18    20    1
    27    18    23    1
    28    19    24    1
    29    20    24    1
    30    21    27    1
    31    22    26   ar
    32     1    29    1
    33     2    30    1
    34     3    31    1
    35     4    32    1
    36     5    33    1
    37     6    34    1
    38     7    35    1
    39     8    36    1
    40     9    37    1
    41    17    38    1
    42    17    39    1
    43    18    40    1
    44    18    41    1
    45    19    42    1
    46    19    43    1
    47    20    44    1
    48    20    45    1
    49    21    46    1
    50    21    47    1
    51    21    48    1
