@<TRIPOS>MOLECULE
ChEBML233573
 35 37 0 0 0
SMALL
USER_CHARGES

@<TRIPOS>ATOM
      1 C          -6.2831   -2.0918   -0.0331 C.ar    1  LIG1       -0.0507
      2 C          -5.1182   -0.9264    1.7323 C.ar    1  LIG1       -0.0507
      3 C          -5.0872   -2.2646   -0.6982 C.ar    1  LIG1       -0.0586
      4 C          -3.9284   -1.1116    1.0597 C.ar    1  LIG1       -0.0586
      5 C         -10.3341   -5.1427    0.4429 C.ar    1  LIG1       -0.0376
      6 C         -11.6439   -5.5132    0.6450 C.ar    1  LIG1       -0.0299
      7 C         -12.0427   -3.5387    1.9594 C.ar    1  LIG1       -0.0226
      8 C          -9.9521   -2.0353    2.1948 C.ar    1  LIG1       -0.0275
      9 C         -10.7091   -3.1513    1.7668 C.ar    1  LIG1        0.0003
     10 C          -6.3067   -1.4220    1.1920 C.ar    1  LIG1        0.0238
     11 C          -3.9124   -1.7760   -0.1542 C.ar    1  LIG1       -0.0511
     12 C          -9.8505   -3.9618    0.9987 C.ar    1  LIG1        0.0379
     13 C         -12.4983   -4.7150    1.4042 C.ar    1  LIG1        0.0753
     14 C          -8.6911   -2.1755    1.7008 C.ar    1  LIG1        0.0797
     15 C          -7.5847   -1.2331    1.9105 C.2     1  LIG1        0.2066
     16 C          -2.6095   -1.9686   -0.8867 C.3     1  LIG1       -0.0398
     17 C         -13.9586   -6.3381    0.9065 C.3     1  LIG1        0.0422
     18 N          -8.6191   -3.3458    0.9708 N.ar    1  LIG1       -0.3112
     19 O          -7.7198   -0.2967    2.6757 O.2     1  LIG1       -0.2871
     20 O         -13.7898   -5.0964    1.5933 O.3     1  LIG1       -0.3493
     21 H          -7.1992   -2.4741   -0.4587 H       1  LIG1        0.0630
     22 H          -5.1301   -0.4035    2.6772 H       1  LIG1        0.0630
     23 H          -5.0676   -2.7828   -1.6456 H       1  LIG1        0.0625
     24 H          -3.0078   -0.7333    1.4790 H       1  LIG1        0.0625
     25 H          -9.6810   -5.7687   -0.1471 H       1  LIG1        0.0643
     26 H         -12.0133   -6.4309    0.2118 H       1  LIG1        0.0651
     27 H         -12.7085   -2.9207    2.5436 H       1  LIG1        0.0657
     28 H         -10.3101   -1.2188    2.8043 H       1  LIG1        0.0651
     29 H          -2.4393   -1.1234   -1.5535 H       1  LIG1        0.0280
     30 H          -1.7940   -2.0332   -0.1664 H       1  LIG1        0.0280
     31 H          -2.6531   -2.8885   -1.4698 H       1  LIG1        0.0280
     32 H         -14.9844   -6.6852    1.0301 H       1  LIG1        0.0535
     33 H         -13.7477   -6.1985   -0.1539 H       1  LIG1        0.0535
     34 H         -13.2724   -7.0778    1.3191 H       1  LIG1        0.0535
     35 H          -7.8310   -3.6791    0.5141 H       1  LIG1        0.1529
@<TRIPOS>BOND
     1     1     3   ar
     2     1    10   ar
     3     2     4   ar
     4     2    10   ar
     5     3    11   ar
     6     4    11   ar
     7     5     6   ar
     8     5    12   ar
     9     6    13   ar
    10     7     9   ar
    11     7    13   ar
    12     8     9   ar
    13     8    14   ar
    14     9    12   ar
    15    10    15    1
    16    11    16    1
    17    12    18   ar
    18    13    20    1
    19    14    15    1
    20    14    18   ar
    21    15    19    2
    22    17    20    1
    23     1    21    1
    24     2    22    1
    25     3    23    1
    26     4    24    1
    27     5    25    1
    28     6    26    1
    29     7    27    1
    30     8    28    1
    31    16    29    1
    32    16    30    1
    33    16    31    1
    34    17    32    1
    35    17    33    1
    36    17    34    1
    37    18    35    1
