@<TRIPOS>MOLECULE
ChEBML4383
 39 41 0 0 0
SMALL
USER_CHARGES

@<TRIPOS>ATOM
      1 C         -10.0481   -4.9970   -0.0247 C.ar    1  LIG1       -0.0387
      2 C         -11.3171   -5.5377    0.2016 C.ar    1  LIG1       -0.0416
      3 C         -11.8069   -3.8403    1.8678 C.ar    1  LIG1       -0.0343
      4 C          -9.8359   -2.1659    2.2081 C.ar    1  LIG1       -0.0262
      5 C          -3.5153    0.7201   -3.2582 C.ar    1  LIG1        0.0425
      6 C          -4.2312   -0.2765   -2.6380 C.ar    1  LIG1        0.0154
      7 C          -2.3367    0.1283   -1.5875 C.ar    1  LIG1        0.0867
      8 C         -10.5323   -3.2777    1.6569 C.ar    1  LIG1       -0.0007
      9 C          -9.6841   -3.8678    0.7174 C.ar    1  LIG1        0.0379
     10 C         -12.1846   -4.9699    1.1327 C.ar    1  LIG1        0.0413
     11 C          -8.6013   -2.1039    1.6041 C.ar    1  LIG1        0.0944
     12 C          -7.5509   -1.1618    1.8283 C.2     1  LIG1        0.2572
     13 C          -2.7785   -2.8624   -0.6154 C.3     1  LIG1       -0.0461
     14 C          -3.8979   -1.1751    0.8943 C.3     1  LIG1       -0.0187
     15 C          -5.2064   -0.4484    1.2072 C.3     1  LIG1        0.0131
     16 C          -3.7995   -1.7192   -0.5489 C.3     1  LIG1        0.0268
     17 N          -2.3368    0.9672   -2.5996 N.ar    1  LIG1       -0.2477
     18 N          -8.5191   -3.1343    0.7064 N.ar    1  LIG1       -0.3101
     19 N          -3.4634   -0.6460   -1.5698 N.ar    1  LIG1       -0.2939
     20 N          -6.3633   -1.3051    1.0790 N.am    1  LIG1       -0.3102
     21 O          -7.6630   -0.2430    2.6788 O.2     1  LIG1       -0.2704
     22 CL        -13.7416   -5.6642    1.3824 Cl      1  LIG1       -0.0843
     23 H          -9.3735   -5.4404   -0.7493 H       1  LIG1        0.0643
     24 H         -11.6170   -6.4160   -0.3661 H       1  LIG1        0.0639
     25 H         -12.4822   -3.3966    2.5947 H       1  LIG1        0.0645
     26 H         -10.2028   -1.4861    2.9656 H       1  LIG1        0.0651
     27 H          -3.7884    1.2722   -4.1456 H       1  LIG1        0.0854
     28 H          -5.1844   -0.7371   -2.8567 H       1  LIG1        0.0808
     29 H          -1.5572    0.0365   -0.8435 H       1  LIG1        0.1016
     30 H          -1.7668   -2.5224   -0.3689 H       1  LIG1        0.0249
     31 H          -3.0434   -3.6567    0.0908 H       1  LIG1        0.0249
     32 H          -2.7481   -3.3037   -1.6178 H       1  LIG1        0.0249
     33 H          -3.0643   -0.4922    1.0992 H       1  LIG1        0.0302
     34 H          -3.7890   -2.0141    1.5943 H       1  LIG1        0.0302
     35 H          -5.3559    0.4168    0.5547 H       1  LIG1        0.0467
     36 H          -5.1916   -0.0885    2.2409 H       1  LIG1        0.0467
     37 H          -4.7720   -2.1578   -0.8094 H       1  LIG1        0.0507
     38 H          -7.7204   -3.3314    0.1190 H       1  LIG1        0.1529
     39 H          -6.2845   -2.0957    0.4477 H       1  LIG1        0.1497
@<TRIPOS>BOND
     1     1     2   ar
     2     1     9   ar
     3     2    10   ar
     4     3     8   ar
     5     3    10   ar
     6     4     8   ar
     7     4    11   ar
     8     5     6   ar
     9     5    17   ar
    10     6    19   ar
    11     7    17   ar
    12     7    19   ar
    13     8     9   ar
    14     9    18   ar
    15    10    22    1
    16    11    12    1
    17    11    18   ar
    18    12    20   am
    19    12    21    2
    20    13    16    1
    21    14    15    1
    22    14    16    1
    23    15    20    1
    24    16    19    1
    25     1    23    1
    26     2    24    1
    27     3    25    1
    28     4    26    1
    29     5    27    1
    30     6    28    1
    31     7    29    1
    32    13    30    1
    33    13    31    1
    34    13    32    1
    35    14    33    1
    36    14    34    1
    37    15    35    1
    38    15    36    1
    39    16    37    1
    40    18    38    1
    41    20    39    1
