@<TRIPOS>MOLECULE
ChEBML357718
 46 49 0 0 0
SMALL
USER_CHARGES

@<TRIPOS>ATOM
      1 C          -3.7565    0.6493   -3.0610 C.ar    1  LIG1       -0.0561
      2 C          -1.9455   -0.9178   -2.7414 C.ar    1  LIG1       -0.0561
      3 C         -10.4336   -4.4926   -0.3660 C.ar    1  LIG1       -0.0359
      4 C         -11.5947   -5.1592    0.0392 C.ar    1  LIG1       -0.0301
      5 C          -2.8392    1.6352   -3.4245 C.ar    1  LIG1       -0.0261
      6 C          -1.0282    0.0682   -3.1049 C.ar    1  LIG1       -0.0261
      7 C         -11.5496   -4.0678    2.2153 C.ar    1  LIG1       -0.0043
      8 C          -3.3096   -0.6272   -2.7193 C.ar    1  LIG1       -0.0475
      9 C         -10.3824   -3.3898    1.8248 C.ar    1  LIG1        0.0894
     10 C          -9.8583   -3.6169    0.5554 C.ar    1  LIG1        0.0579
     11 C         -12.1445   -4.9520    1.3064 C.ar    1  LIG1        0.0736
     12 C          -1.4751    1.3447   -3.4465 C.ar    1  LIG1        0.1228
     13 C          -8.6420   -2.1599    1.6922 C.ar    1  LIG1        0.1863
     14 C          -7.6113   -1.2245    2.0354 C.2     1  LIG1        0.2790
     15 C          -5.5447   -2.8061   -0.4394 C.3     1  LIG1       -0.0341
     16 C          -5.0954   -0.3234   -0.3639 C.3     1  LIG1       -0.0341
     17 C          -5.8818   -2.7627    1.0498 C.3     1  LIG1        0.0148
     18 C          -5.4341   -0.3395    1.1247 C.3     1  LIG1        0.0148
     19 C          -4.5611   -1.6893   -0.8241 C.3     1  LIG1       -0.0344
     20 C          -4.2983   -1.6910   -2.3281 C.3     1  LIG1       -0.0249
     21 N          -9.6137   -2.4818    2.5163 N.ar    1  LIG1       -0.2260
     22 N          -8.7457   -2.8174    0.4981 N.ar    1  LIG1       -0.2934
     23 N          -6.3651   -1.4344    1.4303 N.am    1  LIG1       -0.2953
     24 O          -7.8396   -0.3040    2.8182 O.2     1  LIG1       -0.2683
     25 O         -13.2776   -5.6198    1.6658 O.3     1  LIG1       -0.3608
     26 F          -0.5944    2.2907   -3.7982 F       1  LIG1       -0.2069
     27 H          -4.8172    0.8854   -3.0460 H       1  LIG1        0.0626
     28 H          -1.5881   -1.9096   -2.4771 H       1  LIG1        0.0626
     29 H         -10.0052   -4.6517   -1.3490 H       1  LIG1        0.0644
     30 H         -12.0730   -5.8505   -0.6512 H       1  LIG1        0.0651
     31 H          -3.1869    2.6288   -3.6911 H       1  LIG1        0.0653
     32 H           0.0338   -0.1574   -3.1218 H       1  LIG1        0.0653
     33 H         -11.9803   -3.9085    3.1990 H       1  LIG1        0.0674
     34 H          -5.1202   -3.7852   -0.6901 H       1  LIG1        0.0285
     35 H          -6.4697   -2.6968   -1.0205 H       1  LIG1        0.0285
     36 H          -5.9961   -0.0673   -0.9367 H       1  LIG1        0.0285
     37 H          -4.3525    0.4578   -0.5624 H       1  LIG1        0.0285
     38 H          -6.6264   -3.5303    1.2829 H       1  LIG1        0.0469
     39 H          -4.9910   -2.9747    1.6528 H       1  LIG1        0.0469
     40 H          -4.5295   -0.5043    1.7221 H       1  LIG1        0.0469
     41 H          -5.8414    0.6319    1.4155 H       1  LIG1        0.0469
     42 H          -3.6076   -1.8778   -0.3131 H       1  LIG1        0.0307
     43 H          -5.2413   -1.5394   -2.8632 H       1  LIG1        0.0319
     44 H          -3.9275   -2.6753   -2.6323 H       1  LIG1        0.0319
     45 H          -8.1154   -2.7314   -0.2884 H       1  LIG1        0.1545
     46 H         -13.5378   -5.3752    2.5672 H       1  LIG1        0.2182
@<TRIPOS>BOND
     1     1     5   ar
     2     1     8   ar
     3     2     6   ar
     4     2     8   ar
     5     3     4   ar
     6     3    10   ar
     7     4    11   ar
     8     5    12   ar
     9     6    12   ar
    10     7     9   ar
    11     7    11   ar
    12     8    20    1
    13     9    10   ar
    14     9    21   ar
    15    10    22   ar
    16    11    25    1
    17    12    26    1
    18    13    14    1
    19    13    21   ar
    20    13    22   ar
    21    14    23   am
    22    14    24    2
    23    15    17    1
    24    15    19    1
    25    16    18    1
    26    16    19    1
    27    17    23    1
    28    18    23    1
    29    19    20    1
    30     1    27    1
    31     2    28    1
    32     3    29    1
    33     4    30    1
    34     5    31    1
    35     6    32    1
    36     7    33    1
    37    15    34    1
    38    15    35    1
    39    16    36    1
    40    16    37    1
    41    17    38    1
    42    17    39    1
    43    18    40    1
    44    18    41    1
    45    19    42    1
    46    20    43    1
    47    20    44    1
    48    22    45    1
    49    25    46    1
