@<TRIPOS>MOLECULE
ChEBML796710
 42 43 0 0 0
SMALL
USER_CHARGES

@<TRIPOS>ATOM
      1 C         -12.5080   -4.7876    1.1784 C.ar    1  LIG1       -0.0616
      2 C         -11.6343   -5.4611    0.3299 C.ar    1  LIG1       -0.0616
      3 C         -12.0677   -3.6730    1.8927 C.ar    1  LIG1       -0.0544
      4 C         -10.3171   -5.0226    0.1925 C.ar    1  LIG1       -0.0543
      5 C         -10.2850   -2.0976    2.4779 C.ar    1  LIG1       -0.0525
      6 C          -8.9677   -1.6590    2.3405 C.ar    1  LIG1       -0.0390
      7 C          -8.5342   -3.4472    0.7777 C.ar    1  LIG1       -0.0317
      8 C         -10.7452   -3.2177    1.7666 C.ar    1  LIG1       -0.0182
      9 C          -9.8567   -3.9026    0.9038 C.ar    1  LIG1       -0.0165
     10 C          -8.0940   -2.3326    1.4921 C.ar    1  LIG1        0.0548
     11 C          -2.7113   -0.3840   -3.7911 C.3     1  LIG1       -0.0510
     12 C          -1.8374    1.5814   -2.4906 C.3     1  LIG1       -0.0510
     13 C          -1.9330   -0.6902   -1.4193 C.3     1  LIG1       -0.0510
     14 C          -6.3782   -1.1445   -1.3567 C.3     1  LIG1        0.0312
     15 C          -4.9302   -1.0790   -1.8227 C.3     1  LIG1        0.0106
     16 C          -2.6121    0.2630   -2.4067 C.3     1  LIG1        0.0076
     17 N          -6.5595   -0.6751    0.0245 N.3     1  LIG1       -0.2893
     18 O          -6.0687   -1.0518    2.5252 O.2     1  LIG1       -0.4764
     19 O          -5.6396   -2.9177    0.8948 O.2     1  LIG1       -0.4764
     20 S          -4.2809    0.6198   -1.8130 S.3     1  LIG1       -0.1543
     21 S          -6.4455   -1.7819    1.3218 S.O2    1  LIG1       -0.1682
     22 H         -13.5336   -5.1291    1.2841 H       1  LIG1        0.0623
     23 H         -11.9783   -6.3280   -0.2268 H       1  LIG1        0.0623
     24 H         -12.7681   -3.1618    2.5500 H       1  LIG1        0.0629
     25 H          -9.6518   -5.5644   -0.4766 H       1  LIG1        0.0629
     26 H         -10.9507   -1.5552    3.1458 H       1  LIG1        0.0630
     27 H          -8.6345   -0.7901    2.9018 H       1  LIG1        0.0642
     28 H          -7.8423   -3.9659    0.1162 H       1  LIG1        0.0648
     29 H          -3.2624   -1.3313   -3.7583 H       1  LIG1        0.0244
     30 H          -3.2408    0.2749   -4.4893 H       1  LIG1        0.0244
     31 H          -1.7218   -0.5817   -4.2196 H       1  LIG1        0.0244
     32 H          -1.7520    2.0659   -1.5109 H       1  LIG1        0.0244
     33 H          -2.3133    2.2895   -3.1793 H       1  LIG1        0.0244
     34 H          -0.8183    1.4091   -2.8564 H       1  LIG1        0.0244
     35 H          -1.8501   -0.2487   -0.4192 H       1  LIG1        0.0244
     36 H          -2.5098   -1.6170   -1.3171 H       1  LIG1        0.0244
     37 H          -0.9263   -0.9701   -1.7514 H       1  LIG1        0.0244
     38 H          -6.7206   -2.1845   -1.3798 H       1  LIG1        0.0488
     39 H          -7.0427   -0.5603   -2.0019 H       1  LIG1        0.0488
     40 H          -4.2879   -1.6991   -1.1891 H       1  LIG1        0.0397
     41 H          -4.8589   -1.4548   -2.8481 H       1  LIG1        0.0397
     42 H          -6.3389    0.3133    0.1970 H       1  LIG1        0.1640
@<TRIPOS>BOND
     1     1     2   ar
     2     1     3   ar
     3     2     4   ar
     4     3     8   ar
     5     4     9   ar
     6     5     6   ar
     7     5     8   ar
     8     6    10   ar
     9     7     9   ar
    10     7    10   ar
    11     8     9   ar
    12    10    21    1
    13    11    16    1
    14    12    16    1
    15    13    16    1
    16    14    15    1
    17    14    17    1
    18    15    20    1
    19    16    20    1
    20    17    21    1
    21    18    21    2
    22    19    21    2
    23     1    22    1
    24     2    23    1
    25     3    24    1
    26     4    25    1
    27     5    26    1
    28     6    27    1
    29     7    28    1
    30    11    29    1
    31    11    30    1
    32    11    31    1
    33    12    32    1
    34    12    33    1
    35    12    34    1
    36    13    35    1
    37    13    36    1
    38    13    37    1
    39    14    38    1
    40    14    39    1
    41    15    40    1
    42    15    41    1
    43    17    42    1
