@<TRIPOS>MOLECULE
ChEBML716894
 58 61 0 0 0
SMALL
USER_CHARGES

@<TRIPOS>ATOM
      1 C          -2.0271    0.8860   -3.3277 C.ar    1  LIG1       -0.0431
      2 C          -1.8380   -0.4600   -3.0347 C.ar    1  LIG1       -0.0449
      3 C         -12.2767   -3.5223    2.1550 C.ar    1  LIG1       -0.0566
      4 C         -12.0284   -4.9594    0.2289 C.ar    1  LIG1       -0.0566
      5 C         -10.9171   -3.2153    2.1013 C.ar    1  LIG1       -0.0405
      6 C         -10.6688   -4.6524    0.1752 C.ar    1  LIG1       -0.0405
      7 C          -3.1164    1.5266   -2.7595 C.ar    1  LIG1        0.0291
      8 C          -6.8493   -2.0132    0.7349 C.ar    1  LIG1        0.0173
      9 C         -12.8324   -4.3944    1.2188 C.ar    1  LIG1       -0.0425
     10 C          -2.7314   -1.1150   -2.1943 C.ar    1  LIG1        0.0957
     11 C         -10.1131   -3.7804    1.1114 C.ar    1  LIG1        0.0314
     12 C          -6.1609   -0.8880    1.1611 C.ar    1  LIG1        0.0666
     13 C          -3.7890   -0.3848   -1.6767 C.ar    1  LIG1        0.1325
     14 C          -8.0095   -2.3171    1.4227 C.ar    1  LIG1        0.1289
     15 C          -7.7409   -0.5046    2.7645 C.ar    1  LIG1        0.1274
     16 C          -6.3050   -2.8366   -0.3810 C.3     1  LIG1       -0.0067
     17 C          -4.8388   -0.5311    0.5286 C.3     1  LIG1        0.0557
     18 C          -5.6677   -1.9307   -1.4345 C.3     1  LIG1        0.0175
     19 C          -8.2381    0.3393    3.8887 C.3     1  LIG1       -0.0042
     20 C         -15.1625   -3.4424    1.1184 C.3     1  LIG1       -0.0561
     21 C         -14.6630   -5.3874    2.6364 C.3     1  LIG1       -0.0561
     22 C         -14.7938   -5.7131    0.1750 C.3     1  LIG1       -0.0561
     23 C         -14.2858   -4.7234    1.2756 C.3     1  LIG1       -0.0132
     24 C          -2.5249   -2.5582   -1.8824 C.3     1  LIG1        0.4193
     25 N          -4.0054    0.9238   -1.9387 N.ar    1  LIG1       -0.2408
     26 N          -6.5901   -0.1138    2.1836 N.ar    1  LIG1       -0.2361
     27 N          -8.4876   -1.5769    2.4429 N.ar    1  LIG1       -0.2179
     28 N          -4.6715   -1.0263   -0.8470 N.pl3   1  LIG1       -0.3090
     29 N          -8.7439   -3.4701    1.0558 N.pl3   1  LIG1       -0.2993
     30 F          -1.4262   -3.0983   -2.4890 F       1  LIG1       -0.1660
     31 F          -2.3563   -2.8117   -0.5507 F       1  LIG1       -0.1660
     32 F          -3.5769   -3.3359   -2.2723 F       1  LIG1       -0.1660
     33 H          -1.3431    1.4167   -3.9798 H       1  LIG1        0.0639
     34 H          -0.9925   -0.9890   -3.4656 H       1  LIG1        0.0631
     35 H         -12.8954   -3.0783    2.9302 H       1  LIG1        0.0626
     36 H         -12.4521   -5.6412   -0.5037 H       1  LIG1        0.0626
     37 H         -10.4940   -2.5358    2.8365 H       1  LIG1        0.0642
     38 H         -10.0516   -5.0991   -0.6001 H       1  LIG1        0.0642
     39 H          -3.3093    2.5760   -2.9569 H       1  LIG1        0.0840
     40 H          -5.5600   -3.5320    0.0244 H       1  LIG1        0.0334
     41 H          -7.0835   -3.4311   -0.8709 H       1  LIG1        0.0334
     42 H          -4.7434    0.5625    0.5382 H       1  LIG1        0.0536
     43 H          -4.0344   -0.9396    1.1520 H       1  LIG1        0.0536
     44 H          -5.1985   -2.5582   -2.2026 H       1  LIG1        0.0472
     45 H          -6.4415   -1.3302   -1.9312 H       1  LIG1        0.0472
     46 H          -8.8971    1.1305    3.5104 H       1  LIG1        0.0312
     47 H          -8.7975   -0.2593    4.6195 H       1  LIG1        0.0312
     48 H          -7.4077    0.8088    4.4323 H       1  LIG1        0.0312
     49 H         -16.2369   -3.6569    1.1568 H       1  LIG1        0.0239
     50 H         -14.9535   -2.7136    1.9092 H       1  LIG1        0.0239
     51 H         -14.9535   -2.9555    0.1585 H       1  LIG1        0.0239
     52 H         -15.7302   -5.6307    2.6820 H       1  LIG1        0.0239
     53 H         -14.1143   -6.3185    2.8201 H       1  LIG1        0.0239
     54 H         -14.4458   -4.7031    3.4651 H       1  LIG1        0.0239
     55 H         -15.8669   -5.9236    0.2587 H       1  LIG1        0.0239
     56 H         -14.6238   -5.3025   -0.8272 H       1  LIG1        0.0239
     57 H         -14.2711   -6.6742    0.2437 H       1  LIG1        0.0239
     58 H          -8.1650   -4.2127    0.6800 H       1  LIG1        0.1543
@<TRIPOS>BOND
     1     1     2   ar
     2     1     7   ar
     3     2    10   ar
     4     3     5   ar
     5     3     9   ar
     6     4     6   ar
     7     4     9   ar
     8     5    11   ar
     9     6    11   ar
    10     7    25   ar
    11     8    12   ar
    12     8    14   ar
    13     8    16    1
    14     9    23    1
    15    10    13   ar
    16    10    24    1
    17    11    29    1
    18    12    17    1
    19    12    26   ar
    20    13    25   ar
    21    13    28    1
    22    14    27   ar
    23    14    29    1
    24    15    19    1
    25    15    26   ar
    26    15    27   ar
    27    16    18    1
    28    17    28    1
    29    18    28    1
    30    20    23    1
    31    21    23    1
    32    22    23    1
    33    24    30    1
    34    24    31    1
    35    24    32    1
    36     1    33    1
    37     2    34    1
    38     3    35    1
    39     4    36    1
    40     5    37    1
    41     6    38    1
    42     7    39    1
    43    16    40    1
    44    16    41    1
    45    17    42    1
    46    17    43    1
    47    18    44    1
    48    18    45    1
    49    19    46    1
    50    19    47    1
    51    19    48    1
    52    20    49    1
    53    20    50    1
    54    20    51    1
    55    21    52    1
    56    21    53    1
    57    21    54    1
    58    22    55    1
    59    22    56    1
    60    22    57    1
    61    29    58    1
