@<TRIPOS>MOLECULE
ChEBML1288857
 34 36 0 0 0
SMALL
USER_CHARGES

@<TRIPOS>ATOM
      1 C          -1.2145    0.4423   -3.7947 C.ar    1  LIG1       -0.0622
      2 C          -1.5953   -0.7466   -3.1726 C.ar    1  LIG1       -0.0617
      3 C          -2.0009    1.5858   -3.6545 C.ar    1  LIG1       -0.0617
      4 C         -12.2588   -5.0878    1.6121 C.ar    1  LIG1       -0.0600
      5 C         -11.3471   -5.8374    0.8650 C.ar    1  LIG1       -0.0602
      6 C          -2.7625   -0.7921   -2.4102 C.ar    1  LIG1       -0.0550
      7 C          -3.1681    1.5403   -2.8921 C.ar    1  LIG1       -0.0550
      8 C         -11.9227   -3.8175    2.0966 C.ar    1  LIG1       -0.0344
      9 C         -10.0697   -5.3469    0.5749 C.ar    1  LIG1       -0.0385
     10 C          -3.5489    0.3514   -2.2700 C.ar    1  LIG1       -0.0256
     11 C         -10.6434   -3.3093    1.8148 C.ar    1  LIG1        0.0880
     12 C          -9.7567   -4.0797    1.0677 C.ar    1  LIG1        0.0586
     13 C          -8.8638   -2.1408    1.6493 C.ar    1  LIG1        0.2035
     14 C          -4.7821    0.3040   -1.4649 C.2     1  LIG1       -0.0534
     15 C          -5.0506   -0.6222   -0.5353 C.2     1  LIG1       -0.0417
     16 C          -6.3367   -0.5462    0.1894 C.2     1  LIG1        0.0451
     17 N         -10.0713   -2.1083    2.1669 N.ar    1  LIG1       -0.2160
     18 N          -6.6547   -1.4081    1.0989 N.2     1  LIG1       -0.1899
     19 N          -8.6269   -3.3077    0.9774 N.ar    1  LIG1       -0.2841
     20 N          -7.8794   -1.2163    1.6939 N.pl3   1  LIG1       -0.2089
     21 H          -0.3050    0.4780   -4.3872 H       1  LIG1        0.0622
     22 H          -0.9825   -1.6369   -3.2807 H       1  LIG1        0.0623
     23 H          -1.7039    2.5119   -4.1379 H       1  LIG1        0.0623
     24 H         -13.2451   -5.4949    1.8196 H       1  LIG1        0.0623
     25 H         -11.6362   -6.8207    0.5020 H       1  LIG1        0.0623
     26 H          -3.0463   -1.7262   -1.9314 H       1  LIG1        0.0629
     27 H          -3.7706    2.4401   -2.7923 H       1  LIG1        0.0629
     28 H         -12.6387   -3.2419    2.6745 H       1  LIG1        0.0646
     29 H          -9.3599   -5.9259   -0.0049 H       1  LIG1        0.0643
     30 H          -5.5103    1.0827   -1.6813 H       1  LIG1        0.0629
     31 H          -4.3803   -1.4356   -0.2853 H       1  LIG1        0.0639
     32 H          -7.0062    0.2885   -0.0902 H       1  LIG1        0.0856
     33 H          -7.7712   -3.5557    0.4991 H       1  LIG1        0.1557
     34 H          -8.0180   -0.3152    2.1937 H       1  LIG1        0.1785
@<TRIPOS>BOND
     1     1     2   ar
     2     1     3   ar
     3     2     6   ar
     4     3     7   ar
     5     4     5   ar
     6     4     8   ar
     7     5     9   ar
     8     6    10   ar
     9     7    10   ar
    10     8    11   ar
    11     9    12   ar
    12    10    14    1
    13    11    12   ar
    14    11    17   ar
    15    12    19   ar
    16    13    17   ar
    17    13    19   ar
    18    13    20    1
    19    14    15    2
    20    15    16    1
    21    16    18    2
    22    18    20    1
    23     1    21    1
    24     2    22    1
    25     3    23    1
    26     4    24    1
    27     5    25    1
    28     6    26    1
    29     7    27    1
    30     8    28    1
    31     9    29    1
    32    14    30    1
    33    15    31    1
    34    16    32    1
    35    19    33    1
    36    20    34    1
