@<TRIPOS>MOLECULE
ChEBML622456
 42 45 0 0 0
SMALL
USER_CHARGES

@<TRIPOS>ATOM
      1 C          -2.0727    0.8041   -3.3522 C.ar    1  LIG1       -0.0432
      2 C          -1.8660   -0.5137   -2.9598 C.ar    1  LIG1       -0.0463
      3 C         -11.6145   -5.3660    0.6046 C.ar    1  LIG1       -0.0482
      4 C         -12.0647   -3.0799    1.2435 C.ar    1  LIG1       -0.0482
      5 C         -10.2484   -5.1460    0.7801 C.ar    1  LIG1       -0.0402
      6 C         -10.6985   -2.8599    1.4191 C.ar    1  LIG1       -0.0402
      7 C          -5.0894   -0.3676    0.4757 C.ar    1  LIG1       -0.0230
      8 C          -3.1899    1.4596   -2.8603 C.ar    1  LIG1        0.0276
      9 C          -5.5870   -2.0443   -1.1193 C.ar    1  LIG1        0.0373
     10 C          -7.2158   -0.9325    3.2985 C.ar    1  LIG1        0.1180
     11 C          -4.8470   -0.9351   -0.7697 C.ar    1  LIG1        0.0213
     12 C         -12.5227   -4.3328    0.8362 C.ar    1  LIG1        0.0556
     13 C          -2.7701   -1.1271   -2.0997 C.ar    1  LIG1        0.0818
     14 C          -6.0436   -0.9007    1.3347 C.ar    1  LIG1        0.0948
     15 C          -6.7381   -2.0287    0.8814 C.ar    1  LIG1        0.1291
     16 C          -9.7903   -3.8931    1.1874 C.ar    1  LIG1        0.0314
     17 C          -3.8560   -0.3850   -1.6638 C.ar    1  LIG1        0.0840
     18 C          -7.6763   -2.5282    1.7634 C.ar    1  LIG1        0.1517
     19 C         -13.9836   -4.5669    0.6484 C.3     1  LIG1        0.4160
     20 C          -2.5466   -2.5405   -1.6820 C.3     1  LIG1        0.4181
     21 N          -6.5232   -2.5996   -0.3217 N.ar    1  LIG1       -0.2502
     22 N          -4.0901    0.8971   -2.0233 N.ar    1  LIG1       -0.2555
     23 N          -6.2739   -0.3457    2.5384 N.ar    1  LIG1       -0.2345
     24 N          -7.9448   -2.0102    2.9787 N.ar    1  LIG1       -0.2190
     25 N          -8.4172   -3.6721    1.3658 N.pl3   1  LIG1       -0.2977
     26 F         -14.2875   -5.8372    0.2482 F       1  LIG1       -0.1661
     27 F         -14.7198   -4.3650    1.7810 F       1  LIG1       -0.1661
     28 F         -14.5300   -3.7455   -0.2947 F       1  LIG1       -0.1661
     29 F          -1.4217   -3.0995   -2.2195 F       1  LIG1       -0.1660
     30 F          -2.4109   -2.6972   -0.3317 F       1  LIG1       -0.1660
     31 F          -3.5730   -3.3644   -2.0443 F       1  LIG1       -0.1660
     32 H          -1.3803    1.3017   -4.0217 H       1  LIG1        0.0639
     33 H          -0.9976   -1.0529   -3.3282 H       1  LIG1        0.0630
     34 H         -11.9624   -6.3449    0.2861 H       1  LIG1        0.0629
     35 H         -12.7646   -2.2687    1.4248 H       1  LIG1        0.0629
     36 H          -9.5491   -5.9575    0.5955 H       1  LIG1        0.0642
     37 H         -10.3527   -1.8794    1.7361 H       1  LIG1        0.0642
     38 H          -4.5242    0.5095    0.7888 H       1  LIG1        0.0654
     39 H          -3.3972    2.4878   -3.1378 H       1  LIG1        0.0840
     40 H          -5.4555   -2.5423   -2.0754 H       1  LIG1        0.0847
     41 H          -7.4031   -0.4873    4.2679 H       1  LIG1        0.1063
     42 H          -7.8343   -4.4774    1.1764 H       1  LIG1        0.1543
@<TRIPOS>BOND
     1     1     2   ar
     2     1     8   ar
     3     2    13   ar
     4     3     5   ar
     5     3    12   ar
     6     4     6   ar
     7     4    12   ar
     8     5    16   ar
     9     6    16   ar
    10     7    11   ar
    11     7    14   ar
    12     8    22   ar
    13     9    11   ar
    14     9    21   ar
    15    10    23   ar
    16    10    24   ar
    17    11    17    1
    18    12    19    1
    19    13    17   ar
    20    13    20    1
    21    14    15   ar
    22    14    23   ar
    23    15    18   ar
    24    15    21   ar
    25    16    25    1
    26    17    22   ar
    27    18    24   ar
    28    18    25    1
    29    19    26    1
    30    19    27    1
    31    19    28    1
    32    20    29    1
    33    20    30    1
    34    20    31    1
    35     1    32    1
    36     2    33    1
    37     3    34    1
    38     4    35    1
    39     5    36    1
    40     6    37    1
    41     7    38    1
    42     8    39    1
    43     9    40    1
    44    10    41    1
    45    25    42    1
