@<TRIPOS>MOLECULE
ChEBML834420
 32 33 0 0 0
SMALL
USER_CHARGES

@<TRIPOS>ATOM
      1 C          -2.4698    1.0132   -3.3260 C.ar    1  LIG1       -0.0622
      2 C          -3.1671    1.7213   -2.3474 C.ar    1  LIG1       -0.0615
      3 C          -2.3696   -0.3757   -3.2437 C.ar    1  LIG1       -0.0615
      4 C          -3.7642    1.0407   -1.2863 C.ar    1  LIG1       -0.0511
      5 C          -2.9667   -1.0564   -2.1826 C.ar    1  LIG1       -0.0511
      6 C          -9.4923   -3.6409    0.5985 C.ar    1  LIG1       -0.0582
      7 C         -10.6820   -3.0615    2.6199 C.ar    1  LIG1       -0.0582
      8 C          -8.5878   -2.6056    0.8341 C.ar    1  LIG1       -0.0480
      9 C          -9.7774   -2.0263    2.8557 C.ar    1  LIG1       -0.0480
     10 C          -3.6640   -0.3481   -1.2039 C.ar    1  LIG1        0.0219
     11 C         -10.5395   -3.8688    1.4912 C.ar    1  LIG1       -0.0510
     12 C          -8.7303   -1.7984    1.9627 C.ar    1  LIG1        0.0116
     13 C          -5.5265   -0.4797    0.5235 C.2     1  LIG1       -0.0073
     14 C          -6.1400   -1.1092    1.5332 C.2     1  LIG1       -0.0203
     15 C          -4.2865   -1.0578   -0.0976 C.2     1  LIG1        0.1859
     16 C         -11.5076   -4.9747    1.2377 C.3     1  LIG1       -0.0398
     17 O          -3.8211   -2.1325    0.3113 O.2     1  LIG1       -0.2892
     18 S          -7.5724   -0.4732    2.2647 S.3     1  LIG1       -0.0979
     19 H          -2.0049    1.5432   -4.1520 H       1  LIG1        0.0622
     20 H          -3.2449    2.8027   -2.4115 H       1  LIG1        0.0623
     21 H          -1.8268   -0.9271   -4.0058 H       1  LIG1        0.0623
     22 H          -4.3053    1.6024   -0.5291 H       1  LIG1        0.0630
     23 H          -2.8820   -2.1387   -2.1286 H       1  LIG1        0.0630
     24 H          -9.3736   -4.2646   -0.2836 H       1  LIG1        0.0626
     25 H         -11.4951   -3.2316    3.3206 H       1  LIG1        0.0626
     26 H          -7.7783   -2.4430    0.1264 H       1  LIG1        0.0634
     27 H          -9.9051   -1.4077    3.7406 H       1  LIG1        0.0634
     28 H          -5.9114    0.4505    0.1197 H       1  LIG1        0.0669
     29 H          -5.7603   -2.0423    1.9348 H       1  LIG1        0.0702
     30 H         -11.1591   -5.9025    1.7076 H       1  LIG1        0.0280
     31 H         -12.5011   -4.7340    1.6376 H       1  LIG1        0.0280
     32 H         -11.6334   -5.1552    0.1621 H       1  LIG1        0.0280
@<TRIPOS>BOND
     1     1     2   ar
     2     1     3   ar
     3     2     4   ar
     4     3     5   ar
     5     4    10   ar
     6     5    10   ar
     7     6     8   ar
     8     6    11   ar
     9     7     9   ar
    10     7    11   ar
    11     8    12   ar
    12     9    12   ar
    13    10    15    1
    14    11    16    1
    15    12    18    1
    16    13    14    2
    17    13    15    1
    18    14    18    1
    19    15    17    2
    20     1    19    1
    21     2    20    1
    22     3    21    1
    23     4    22    1
    24     5    23    1
    25     6    24    1
    26     7    25    1
    27     8    26    1
    28     9    27    1
    29    13    28    1
    30    14    29    1
    31    16    30    1
    32    16    31    1
    33    16    32    1
