@<TRIPOS>MOLECULE
ChEBML1026957
 46 48 0 0 0
SMALL
USER_CHARGES

@<TRIPOS>ATOM
      1 C         -11.6840   -5.5239    0.6649 C.ar    1  LIG1       -0.0577
      2 C         -10.3464   -5.1708    0.4643 C.ar    1  LIG1       -0.0400
      3 C         -12.5403   -4.7068    1.4003 C.ar    1  LIG1       -0.0310
      4 C          -9.9533   -2.0171    2.1806 C.ar    1  LIG1       -0.0236
      5 C         -10.7378   -3.1312    1.7702 C.ar    1  LIG1        0.0281
      6 C          -9.9025   -3.9696    1.0287 C.ar    1  LIG1        0.0404
      7 C         -12.0824   -3.5079    1.9590 C.ar    1  LIG1        0.0838
      8 C          -8.6807   -2.1975    1.6898 C.ar    1  LIG1        0.0945
      9 C          -7.4982   -1.3121    1.8462 C.2     1  LIG1        0.2574
     10 C          -2.3224   -0.6734   -1.1667 C.3     1  LIG1       -0.0083
     11 C          -2.7846   -0.9180    0.2551 C.3     1  LIG1       -0.0043
     12 C          -3.4433    0.1534   -1.7671 C.3     1  LIG1       -0.0338
     13 C          -4.2595   -1.2459    0.0739 C.3     1  LIG1       -0.0073
     14 C          -6.1086    0.1364   -2.9999 C.3     1  LIG1       -0.0254
     15 C         -14.2839   -3.2026    2.8049 C.3     1  LIG1        0.0423
     16 C          -5.0921   -1.0105    1.3207 C.3     1  LIG1        0.0534
     17 C          -5.7383   -0.8851   -1.9469 C.3     1  LIG1       -0.0369
     18 N          -8.6601   -3.3778    0.9963 N.ar    1  LIG1       -0.3100
     19 N          -6.3166   -1.7396    1.2393 N.am    1  LIG1       -0.3047
     20 N          -4.6973   -0.3036   -1.0398 N.4     1  LIG1        0.2491
     21 O          -7.6042   -0.2797    2.5032 O.2     1  LIG1       -0.2704
     22 O         -12.9486   -2.7273    2.6763 O.3     1  LIG1       -0.3486
     23 H         -12.0608   -6.4501    0.2384 H       1  LIG1        0.0624
     24 H          -9.6807   -5.8084   -0.1076 H       1  LIG1        0.0643
     25 H         -13.5755   -5.0088    1.5396 H       1  LIG1        0.0650
     26 H         -10.2877   -1.1748    2.7717 H       1  LIG1        0.0652
     27 H          -1.3586   -0.1586   -1.2130 H       1  LIG1        0.0323
     28 H          -2.2245   -1.6246   -1.7036 H       1  LIG1        0.0323
     29 H          -2.2364   -1.7349    0.7338 H       1  LIG1        0.0326
     30 H          -2.6466   -0.0139    0.8608 H       1  LIG1        0.0326
     31 H          -3.3277    1.2194   -1.5458 H       1  LIG1        0.0815
     32 H          -3.5588    0.0031   -2.8445 H       1  LIG1        0.0815
     33 H          -4.3797   -2.2716   -0.2963 H       1  LIG1        0.0868
     34 H          -6.5347    1.0275   -2.5288 H       1  LIG1        0.0284
     35 H          -5.2311    0.4456   -3.5771 H       1  LIG1        0.0284
     36 H          -6.8509   -0.2654   -3.6975 H       1  LIG1        0.0284
     37 H         -14.8687   -2.4931    3.3954 H       1  LIG1        0.0535
     38 H         -14.2781   -4.1808    3.2922 H       1  LIG1        0.0535
     39 H         -14.7254   -3.2960    1.8099 H       1  LIG1        0.0535
     40 H          -5.3170    0.0477    1.4049 H       1  LIG1        0.0525
     41 H          -4.5402   -1.3458    2.1923 H       1  LIG1        0.0525
     42 H          -5.3093   -1.7872   -2.3916 H       1  LIG1        0.0812
     43 H          -6.5958   -1.1513   -1.3227 H       1  LIG1        0.0812
     44 H          -7.8512   -3.7617    0.5268 H       1  LIG1        0.1529
     45 H          -6.3045   -2.6455    0.7639 H       1  LIG1        0.1500
     46 H          -5.1097    0.5346   -0.6074 H       1  LIG1        0.2007
@<TRIPOS>BOND
     1     1     2   ar
     2     1     3   ar
     3     2     6   ar
     4     3     7   ar
     5     4     5   ar
     6     4     8   ar
     7     5     6   ar
     8     5     7   ar
     9     6    18   ar
    10     7    22    1
    11     8     9    1
    12     8    18   ar
    13     9    19   am
    14     9    21    2
    15    10    11    1
    16    10    12    1
    17    11    13    1
    18    12    20    1
    19    13    16    1
    20    13    20    1
    21    14    17    1
    22    15    22    1
    23    16    19    1
    24    17    20    1
    25     1    23    1
    26     2    24    1
    27     3    25    1
    28     4    26    1
    29    10    27    1
    30    10    28    1
    31    11    29    1
    32    11    30    1
    33    12    31    1
    34    12    32    1
    35    13    33    1
    36    14    34    1
    37    14    35    1
    38    14    36    1
    39    15    37    1
    40    15    38    1
    41    15    39    1
    42    16    40    1
    43    16    41    1
    44    17    42    1
    45    17    43    1
    46    18    44    1
    47    19    45    1
    48    20    46    1
