@<TRIPOS>MOLECULE
ChEBML369978
 51 54 0 0 0
SMALL
USER_CHARGES

@<TRIPOS>ATOM
      1 C          -2.3268    1.3930   -3.7757 C.ar    1  LIG1       -0.0618
      2 C          -1.1251    0.9155   -3.2528 C.ar    1  LIG1       -0.0596
      3 C         -12.1469   -3.5839    1.6411 C.ar    1  LIG1       -0.0504
      4 C          -3.5248    0.7448   -3.4746 C.ar    1  LIG1       -0.0564
      5 C          -1.1211   -0.2100   -2.4290 C.ar    1  LIG1       -0.0315
      6 C         -12.5708   -4.6013    0.7784 C.ar    1  LIG1       -0.0313
      7 C         -10.0276   -2.2507    2.3728 C.ar    1  LIG1       -0.0262
      8 C         -10.3141   -4.8918   -0.0742 C.ar    1  LIG1       -0.0100
      9 C         -10.7879   -3.2118    1.6495 C.ar    1  LIG1       -0.0020
     10 C          -3.5209   -0.3807   -2.6508 C.ar    1  LIG1       -0.0174
     11 C          -9.9046   -3.8731    0.7935 C.ar    1  LIG1        0.0404
     12 C         -11.6668   -5.2439   -0.0651 C.ar    1  LIG1        0.0732
     13 C          -2.3191   -0.8582   -2.1280 C.ar    1  LIG1        0.0778
     14 C          -8.7217   -2.3455    1.9500 C.ar    1  LIG1        0.0947
     15 C          -7.5879   -1.5848    2.3867 C.2     1  LIG1        0.2598
     16 C          -4.8023   -1.0452    0.1852 C.3     1  LIG1       -0.0341
     17 C          -6.9814   -0.7903   -1.0628 C.3     1  LIG1       -0.0341
     18 C          -5.4988   -0.5434    1.4488 C.3     1  LIG1        0.0147
     19 C          -7.6246   -0.2863    0.2268 C.3     1  LIG1        0.0147
     20 C          -5.4736   -0.4919   -1.0821 C.3     1  LIG1       -0.0343
     21 C          -1.0257   -2.3759   -0.8320 C.3     1  LIG1        0.0422
     22 C          -4.8221   -1.0671   -2.3373 C.3     1  LIG1       -0.0223
     23 N          -8.6576   -3.3266    0.9971 N.ar    1  LIG1       -0.3100
     24 N          -6.9317   -0.8384    1.3990 N.am    1  LIG1       -0.2967
     25 O          -7.2375   -1.6079    3.5652 O.2     1  LIG1       -0.2702
     26 O         -12.1066   -6.2318   -0.8958 O.3     1  LIG1       -0.3608
     27 O          -2.2976   -1.9568   -1.3224 O.3     1  LIG1       -0.3490
     28 H          -2.3304    2.2691   -4.4177 H       1  LIG1        0.0623
     29 H          -0.1926    1.4200   -3.4882 H       1  LIG1        0.0623
     30 H         -12.8626   -3.0903    2.2921 H       1  LIG1        0.0630
     31 H          -4.4556    1.1238   -3.8883 H       1  LIG1        0.0626
     32 H          -0.1818   -0.5773   -2.0247 H       1  LIG1        0.0650
     33 H         -13.6199   -4.8873    0.7733 H       1  LIG1        0.0650
     34 H         -10.4003   -1.5645    3.1216 H       1  LIG1        0.0651
     35 H          -9.6068   -5.3900   -0.7294 H       1  LIG1        0.0670
     36 H          -3.7457   -0.7542    0.2098 H       1  LIG1        0.0285
     37 H          -4.8348   -2.1424    0.1687 H       1  LIG1        0.0285
     38 H          -7.1448   -1.8724   -1.1493 H       1  LIG1        0.0285
     39 H          -7.4694   -0.3194   -1.9242 H       1  LIG1        0.0285
     40 H          -5.0372   -0.9982    2.3308 H       1  LIG1        0.0469
     41 H          -5.3889    0.5434    1.5434 H       1  LIG1        0.0469
     42 H          -7.5524    0.8061    0.2899 H       1  LIG1        0.0469
     43 H          -8.6872   -0.5408    0.2269 H       1  LIG1        0.0469
     44 H          -5.3367    0.5975   -1.0978 H       1  LIG1        0.0307
     45 H          -1.1503   -3.2610   -0.2035 H       1  LIG1        0.0535
     46 H          -0.5721   -1.5665   -0.2542 H       1  LIG1        0.0535
     47 H          -0.3812   -2.6214   -1.6794 H       1  LIG1        0.0535
     48 H          -5.5099   -0.9676   -3.1833 H       1  LIG1        0.0320
     49 H          -4.6547   -2.1406   -2.2021 H       1  LIG1        0.0320
     50 H          -7.8176   -3.6123    0.5128 H       1  LIG1        0.1529
     51 H         -13.0600   -6.3654   -0.7802 H       1  LIG1        0.2182
@<TRIPOS>BOND
     1     1     2   ar
     2     1     4   ar
     3     2     5   ar
     4     3     6   ar
     5     3     9   ar
     6     4    10   ar
     7     5    13   ar
     8     6    12   ar
     9     7     9   ar
    10     7    14   ar
    11     8    11   ar
    12     8    12   ar
    13     9    11   ar
    14    10    13   ar
    15    10    22    1
    16    11    23   ar
    17    12    26    1
    18    13    27    1
    19    14    15    1
    20    14    23   ar
    21    15    24   am
    22    15    25    2
    23    16    18    1
    24    16    20    1
    25    17    19    1
    26    17    20    1
    27    18    24    1
    28    19    24    1
    29    20    22    1
    30    21    27    1
    31     1    28    1
    32     2    29    1
    33     3    30    1
    34     4    31    1
    35     5    32    1
    36     6    33    1
    37     7    34    1
    38     8    35    1
    39    16    36    1
    40    16    37    1
    41    17    38    1
    42    17    39    1
    43    18    40    1
    44    18    41    1
    45    19    42    1
    46    19    43    1
    47    20    44    1
    48    21    45    1
    49    21    46    1
    50    21    47    1
    51    22    48    1
    52    22    49    1
    53    23    50    1
    54    26    51    1
