@<TRIPOS>MOLECULE
ChEBML512825
 42 44 0 0 0
SMALL
USER_CHARGES

@<TRIPOS>ATOM
      1 C          -2.6767    0.3898   -3.8671 C.ar    1  LIG1       -0.0622
      2 C         -12.3876   -4.7832    0.7704 C.ar    1  LIG1       -0.0615
      3 C          -2.0756   -0.6403   -3.1438 C.ar    1  LIG1       -0.0620
      4 C          -3.5590    1.2645   -3.2331 C.ar    1  LIG1       -0.0620
      5 C         -11.4595   -5.3649   -0.0910 C.ar    1  LIG1       -0.0603
      6 C         -12.0110   -3.7521    1.6387 C.ar    1  LIG1       -0.0530
      7 C          -2.3570   -0.7958   -1.7865 C.ar    1  LIG1       -0.0590
      8 C          -3.8404    1.1091   -1.8758 C.ar    1  LIG1       -0.0590
      9 C         -10.1292   -4.9365   -0.1130 C.ar    1  LIG1       -0.0402
     10 C          -9.9614   -2.3081    2.3585 C.ar    1  LIG1       -0.0262
     11 C         -10.6752   -3.3036    1.6344 C.ar    1  LIG1       -0.0022
     12 C          -3.2394    0.0789   -1.1525 C.ar    1  LIG1       -0.0479
     13 C          -9.7670   -3.9049    0.7605 C.ar    1  LIG1        0.0378
     14 C          -8.6579   -2.3242    1.9186 C.ar    1  LIG1        0.0947
     15 C          -7.5667   -1.5083    2.3489 C.2     1  LIG1        0.2595
     16 C          -5.9512   -3.4343    2.4792 C.3     1  LIG1        0.0031
     17 C          -3.5442   -0.0887    0.3147 C.3     1  LIG1       -0.0264
     18 C          -4.7404   -1.0067    0.5998 C.3     1  LIG1       -0.0333
     19 C          -5.0842   -1.1566    2.0804 C.3     1  LIG1        0.0144
     20 N          -8.5505   -3.2904    0.9546 N.ar    1  LIG1       -0.3101
     21 N          -6.2428   -2.0184    2.3045 N.am    1  LIG1       -0.2998
     22 O          -7.8199   -0.3497    2.7437 O.2     1  LIG1       -0.2702
     23 H          -2.4564    0.5115   -4.9237 H       1  LIG1        0.0622
     24 H         -13.4167   -5.1330    0.7688 H       1  LIG1        0.0623
     25 H          -1.3877   -1.3209   -3.6370 H       1  LIG1        0.0623
     26 H          -4.0263    2.0673   -3.7957 H       1  LIG1        0.0623
     27 H         -11.7738   -6.1646   -0.7566 H       1  LIG1        0.0623
     28 H         -12.7449   -3.3071    2.3049 H       1  LIG1        0.0629
     29 H          -1.8842   -1.6014   -1.2310 H       1  LIG1        0.0625
     30 H          -4.5292    1.7953   -1.3902 H       1  LIG1        0.0625
     31 H          -9.4067   -5.3898   -0.7834 H       1  LIG1        0.0642
     32 H         -10.3630   -1.6521    3.1195 H       1  LIG1        0.0651
     33 H          -5.9651   -3.9430    1.5117 H       1  LIG1        0.0433
     34 H          -6.6981   -3.8964    3.1305 H       1  LIG1        0.0433
     35 H          -4.9640   -3.5640    2.9308 H       1  LIG1        0.0433
     36 H          -3.7004    0.8910    0.7826 H       1  LIG1        0.0316
     37 H          -2.6531   -0.5055    0.8023 H       1  LIG1        0.0316
     38 H          -4.5160   -1.9976    0.1847 H       1  LIG1        0.0286
     39 H          -5.6270   -0.6379    0.0696 H       1  LIG1        0.0286
     40 H          -5.3297   -0.1780    2.5051 H       1  LIG1        0.0469
     41 H          -4.2451   -1.5669    2.6501 H       1  LIG1        0.0469
     42 H          -7.7022   -3.5225    0.4562 H       1  LIG1        0.1529
@<TRIPOS>BOND
     1     1     3   ar
     2     1     4   ar
     3     2     5   ar
     4     2     6   ar
     5     3     7   ar
     6     4     8   ar
     7     5     9   ar
     8     6    11   ar
     9     7    12   ar
    10     8    12   ar
    11     9    13   ar
    12    10    11   ar
    13    10    14   ar
    14    11    13   ar
    15    12    17    1
    16    13    20   ar
    17    14    15    1
    18    14    20   ar
    19    15    21   am
    20    15    22    2
    21    16    21    1
    22    17    18    1
    23    18    19    1
    24    19    21    1
    25     1    23    1
    26     2    24    1
    27     3    25    1
    28     4    26    1
    29     5    27    1
    30     6    28    1
    31     7    29    1
    32     8    30    1
    33     9    31    1
    34    10    32    1
    35    16    33    1
    36    16    34    1
    37    16    35    1
    38    17    36    1
    39    17    37    1
    40    18    38    1
    41    18    39    1
    42    19    40    1
    43    19    41    1
    44    20    42    1
