@<TRIPOS>MOLECULE
ChEBML369150
 47 49 0 0 0
SMALL
USER_CHARGES

@<TRIPOS>ATOM
      1 C          -2.0195    0.6903   -3.6577 C.ar    1  LIG1       -0.0418
      2 C          -1.7702   -0.5620   -3.1074 C.ar    1  LIG1       -0.0362
      3 C          -8.1817   -3.4972    1.7403 C.ar    1  LIG1       -0.0290
      4 C          -9.8665   -1.7657    1.7264 C.ar    1  LIG1       -0.0290
      5 C          -3.0457    1.4454   -3.1132 C.ar    1  LIG1        0.0292
      6 C          -8.5413   -2.1602    1.9104 C.ar    1  LIG1        0.0403
      7 C          -2.5439   -1.0144   -2.0443 C.ar    1  LIG1        0.0644
      8 C         -10.4723   -4.0450    1.2021 C.ar    1  LIG1        0.0612
      9 C          -9.1472   -4.4395    1.3861 C.ar    1  LIG1        0.0636
     10 C         -10.8321   -2.7081    1.3722 C.ar    1  LIG1        0.0636
     11 C          -3.5465   -0.1830   -1.5718 C.ar    1  LIG1        0.1410
     12 C          -7.5321   -1.1726    2.2799 C.2     1  LIG1        0.2462
     13 C          -4.3391    0.1435    0.7219 C.3     1  LIG1        0.0314
     14 C          -5.3764   -1.5945   -0.7802 C.3     1  LIG1        0.0314
     15 C          -5.1007   -0.5938    1.8343 C.3     1  LIG1        0.0389
     16 C          -6.6698   -1.2427   -0.0320 C.3     1  LIG1        0.0389
     17 C          -4.3036   -1.7879    2.3750 C.3     1  LIG1       -0.0449
     18 C          -7.3938   -0.0595   -0.6888 C.3     1  LIG1       -0.0449
     19 N          -3.8184    1.0396   -2.0807 N.ar    1  LIG1       -0.2394
     20 N          -4.3134   -0.6212   -0.5261 N.pl3   1  LIG1       -0.3106
     21 N          -6.4562   -0.9979    1.4044 N.am    1  LIG1       -0.2891
     22 N          -2.2931   -2.2817   -1.4856 N.pl3   1  LIG1       -0.3555
     23 N         -11.4526   -5.0015    0.8418 N.pl3   1  LIG1       -0.3559
     24 O          -7.7177   -0.5812    3.3397 O.2     1  LIG1       -0.2716
     25 CL         -8.6532   -6.0835    1.1836 Cl      1  LIG1       -0.0822
     26 CL        -12.4603   -2.1715    1.1544 Cl      1  LIG1       -0.0822
     27 H          -1.4293    1.0637   -4.4867 H       1  LIG1        0.0639
     28 H          -0.9711   -1.1754   -3.5150 H       1  LIG1        0.0644
     29 H          -7.1462   -3.7988    1.8834 H       1  LIG1        0.0647
     30 H         -10.1419   -0.7218    1.8615 H       1  LIG1        0.0647
     31 H          -3.2813    2.4291   -3.5062 H       1  LIG1        0.0840
     32 H          -4.8195    1.1091    0.5238 H       1  LIG1        0.0488
     33 H          -3.3204    0.3694    1.0638 H       1  LIG1        0.0488
     34 H          -5.0341   -2.5881   -0.4657 H       1  LIG1        0.0488
     35 H          -5.5768   -1.6580   -1.8573 H       1  LIG1        0.0488
     36 H          -5.2118    0.1140    2.6647 H       1  LIG1        0.0520
     37 H          -7.3443   -2.1051   -0.1166 H       1  LIG1        0.0520
     38 H          -4.1671   -2.5203    1.5842 H       1  LIG1        0.0250
     39 H          -4.8461   -2.2422    3.1994 H       1  LIG1        0.0250
     40 H          -3.3328   -1.4471    2.7243 H       1  LIG1        0.0250
     41 H          -6.7660    0.8252   -0.6319 H       1  LIG1        0.0250
     42 H          -8.3293    0.1258   -0.1686 H       1  LIG1        0.0250
     43 H          -7.5978   -0.2932   -1.7299 H       1  LIG1        0.0250
     44 H          -1.5884   -2.8662   -1.8913 H       1  LIG1        0.1428
     45 H          -2.8845   -2.6201   -0.7517 H       1  LIG1        0.1428
     46 H         -11.1696   -5.9435    0.6778 H       1  LIG1        0.1427
     47 H         -12.3851   -4.6939    0.6685 H       1  LIG1        0.1427
@<TRIPOS>BOND
     1     1     2   ar
     2     1     5   ar
     3     2     7   ar
     4     3     6   ar
     5     3     9   ar
     6     4     6   ar
     7     4    10   ar
     8     5    19   ar
     9     6    12    1
    10     7    11   ar
    11     7    22    1
    12     8     9   ar
    13     8    10   ar
    14     8    23    1
    15     9    25    1
    16    10    26    1
    17    11    19   ar
    18    11    20    1
    19    12    21   am
    20    12    24    2
    21    13    15    1
    22    13    20    1
    23    14    16    1
    24    14    20    1
    25    15    17    1
    26    15    21    1
    27    16    18    1
    28    16    21    1
    29     1    27    1
    30     2    28    1
    31     3    29    1
    32     4    30    1
    33     5    31    1
    34    13    32    1
    35    13    33    1
    36    14    34    1
    37    14    35    1
    38    15    36    1
    39    16    37    1
    40    17    38    1
    41    17    39    1
    42    17    40    1
    43    18    41    1
    44    18    42    1
    45    18    43    1
    46    22    44    1
    47    22    45    1
    48    23    46    1
    49    23    47    1
