@<TRIPOS>MOLECULE
ChEBML212342
 36 38 0 0 0
SMALL
USER_CHARGES

@<TRIPOS>ATOM
      1 C         -10.0746   -5.3588    0.9728 C.ar    1  LIG1       -0.0373
      2 C         -11.4318   -5.6855    0.9008 C.ar    1  LIG1       -0.0244
      3 C         -12.0689   -3.4026    1.4290 C.ar    1  LIG1       -0.0171
      4 C         -10.0108   -1.8398    1.7844 C.ar    1  LIG1       -0.0261
      5 C         -10.7070   -3.0495    1.5071 C.ar    1  LIG1        0.0007
      6 C          -9.7432   -4.0338    1.2777 C.ar    1  LIG1        0.0380
      7 C         -12.4152   -4.7241    1.1250 C.ar    1  LIG1        0.1235
      8 C          -8.6629   -2.1082    1.7195 C.ar    1  LIG1        0.0947
      9 C          -7.5656   -1.2087    1.9252 C.2     1  LIG1        0.2602
     10 C          -6.4027   -2.1594   -0.0991 C.3     1  LIG1        0.0539
     11 C          -5.0604   -1.1573    1.7034 C.3     1  LIG1        0.0539
     12 C          -5.6919   -1.3043   -1.1378 C.3     1  LIG1       -0.0183
     13 C          -4.3178   -0.2897    0.6964 C.3     1  LIG1       -0.0183
     14 C          -3.5012   -0.2247   -1.6631 C.3     1  LIG1       -0.0453
     15 N          -8.5115   -3.4340    1.4130 N.ar    1  LIG1       -0.3101
     16 N          -6.3954   -1.4947    1.2104 N.am    1  LIG1       -0.2863
     17 N          -4.2951   -0.9924   -0.6437 N.4     1  LIG1        0.2462
     18 O          -7.6775   -0.2522    2.6901 O.2     1  LIG1       -0.2701
     19 F         -13.7083   -5.0678    1.0487 F       1  LIG1       -0.2069
     20 H          -9.3093   -6.1080    0.7984 H       1  LIG1        0.0644
     21 H         -11.7236   -6.7064    0.6671 H       1  LIG1        0.0654
     22 H         -12.8459   -2.6634    1.6009 H       1  LIG1        0.0660
     23 H         -10.4528   -0.8780    2.0073 H       1  LIG1        0.0651
     24 H          -7.4192   -2.3717   -0.4391 H       1  LIG1        0.0525
     25 H          -5.8942   -3.1235    0.0229 H       1  LIG1        0.0525
     26 H          -4.5252   -2.0991    1.8737 H       1  LIG1        0.0525
     27 H          -5.1204   -0.6367    2.6641 H       1  LIG1        0.0525
     28 H          -5.5940   -1.8413   -2.0867 H       1  LIG1        0.0831
     29 H          -6.2036   -0.3490   -1.3001 H       1  LIG1        0.0831
     30 H          -4.8120    0.6773    0.5501 H       1  LIG1        0.0831
     31 H          -3.2793   -0.1337    1.0057 H       1  LIG1        0.0831
     32 H          -3.9989    0.7339   -1.8210 H       1  LIG1        0.0777
     33 H          -2.4945   -0.0836   -1.2654 H       1  LIG1        0.0777
     34 H          -3.4811   -0.8126   -2.5827 H       1  LIG1        0.0777
     35 H          -7.6253   -3.9074    1.3024 H       1  LIG1        0.1529
     36 H          -3.8096   -1.8902   -0.5103 H       1  LIG1        0.2001
@<TRIPOS>BOND
     1     1     2   ar
     2     1     6   ar
     3     2     7   ar
     4     3     5   ar
     5     3     7   ar
     6     4     5   ar
     7     4     8   ar
     8     5     6   ar
     9     6    15   ar
    10     7    19    1
    11     8     9    1
    12     8    15   ar
    13     9    16   am
    14     9    18    2
    15    10    12    1
    16    10    16    1
    17    11    13    1
    18    11    16    1
    19    12    17    1
    20    13    17    1
    21    14    17    1
    22     1    20    1
    23     2    21    1
    24     3    22    1
    25     4    23    1
    26    10    24    1
    27    10    25    1
    28    11    26    1
    29    11    27    1
    30    12    28    1
    31    12    29    1
    32    13    30    1
    33    13    31    1
    34    14    32    1
    35    14    33    1
    36    14    34    1
    37    15    35    1
    38    17    36    1
