@<TRIPOS>MOLECULE
ChEBML198620
 39 41 0 0 0
SMALL
USER_CHARGES

@<TRIPOS>ATOM
      1 C          -2.2361    0.9601   -3.4731 C.ar    1  LIG1       -0.0422
      2 C         -10.2673   -5.1655    1.0145 C.ar    1  LIG1       -0.0395
      3 C         -10.6122   -2.7777    1.1420 C.ar    1  LIG1       -0.0395
      4 C          -1.9717   -0.3829   -3.2294 C.ar    1  LIG1       -0.0384
      5 C         -11.6334   -5.3517    0.8035 C.ar    1  LIG1       -0.0461
      6 C         -11.9784   -2.9638    0.9310 C.ar    1  LIG1       -0.0461
      7 C          -3.3303    1.5305   -2.8429 C.ar    1  LIG1        0.0292
      8 C          -9.7566   -3.8786    1.1839 C.ar    1  LIG1        0.0340
      9 C          -2.7978   -1.1045   -2.3749 C.ar    1  LIG1        0.0809
     10 C         -12.4890   -4.2509    0.7616 C.ar    1  LIG1        0.0176
     11 C          -3.8668   -0.4417   -1.7937 C.ar    1  LIG1        0.1388
     12 C          -7.8677   -2.4244    1.6395 C.2     1  LIG1        0.3050
     13 C          -4.8280   -0.6860    0.4397 C.3     1  LIG1        0.0289
     14 C          -5.7802   -1.9266   -1.5279 C.3     1  LIG1        0.0289
     15 C          -6.2952   -0.6739    0.8632 C.3     1  LIG1        0.0315
     16 C          -6.4704   -2.7725   -0.4568 C.3     1  LIG1        0.0315
     17 N          -4.1554    0.8618   -2.0065 N.ar    1  LIG1       -0.2398
     18 N          -4.6918   -1.1371   -0.9480 N.pl3   1  LIG1       -0.3115
     19 N          -6.9141   -1.9878    0.7007 N.am    1  LIG1       -0.2824
     20 N          -8.3857   -3.6918    1.3952 N.am    1  LIG1       -0.2690
     21 O          -8.2123   -1.7407    2.6089 O.2     1  LIG1       -0.2537
     22 CL         -2.4557   -2.7673   -2.0839 Cl      1  LIG1       -0.0805
     23 BR        -14.3400   -4.5032    0.4757 Br      1  LIG1       -0.0508
     24 H          -1.6058    1.5421   -4.1359 H       1  LIG1        0.0639
     25 H          -9.6095   -6.0303    1.0456 H       1  LIG1        0.0643
     26 H         -10.2250   -1.7706    1.2726 H       1  LIG1        0.0643
     27 H          -1.1185   -0.8520   -3.7128 H       1  LIG1        0.0640
     28 H         -12.0156   -6.3607    0.6732 H       1  LIG1        0.0635
     29 H         -12.6319   -2.0959    0.9011 H       1  LIG1        0.0635
     30 H          -3.5799    2.5747   -3.0003 H       1  LIG1        0.0840
     31 H          -4.4106    0.3202    0.5696 H       1  LIG1        0.0485
     32 H          -4.2558   -1.3643    1.0839 H       1  LIG1        0.0485
     33 H          -5.3925   -2.5867   -2.3129 H       1  LIG1        0.0485
     34 H          -6.5106   -1.2512   -1.9918 H       1  LIG1        0.0485
     35 H          -6.3795   -0.3426    1.9035 H       1  LIG1        0.0486
     36 H          -6.8696    0.0292    0.2476 H       1  LIG1        0.0486
     37 H          -7.3302   -3.2839   -0.9021 H       1  LIG1        0.0486
     38 H          -5.7825   -3.5370   -0.0759 H       1  LIG1        0.0486
     39 H          -7.8076   -4.5238    1.4166 H       1  LIG1        0.1573
@<TRIPOS>BOND
     1     1     4   ar
     2     1     7   ar
     3     2     5   ar
     4     2     8   ar
     5     3     6   ar
     6     3     8   ar
     7     4     9   ar
     8     5    10   ar
     9     6    10   ar
    10     7    17   ar
    11     8    20    1
    12     9    11   ar
    13     9    22    1
    14    10    23    1
    15    11    17   ar
    16    11    18    1
    17    12    19   am
    18    12    20   am
    19    12    21    2
    20    13    15    1
    21    13    18    1
    22    14    16    1
    23    14    18    1
    24    15    19    1
    25    16    19    1
    26     1    24    1
    27     2    25    1
    28     3    26    1
    29     4    27    1
    30     5    28    1
    31     6    29    1
    32     7    30    1
    33    13    31    1
    34    13    32    1
    35    14    33    1
    36    14    34    1
    37    15    35    1
    38    15    36    1
    39    16    37    1
    40    16    38    1
    41    20    39    1
