@<TRIPOS>MOLECULE
ChEBML29961
 40 43 0 0 0
SMALL
USER_CHARGES

@<TRIPOS>ATOM
      1 C         -11.1013   -0.9136    2.6104 C.1     1  LIG1        0.1015
      2 C          -4.4739   -1.3304   -0.1785 C.ar    1  LIG1       -0.0622
      3 C          -4.3330   -1.4470    1.2043 C.ar    1  LIG1       -0.0620
      4 C          -5.7389   -1.1514   -0.7382 C.ar    1  LIG1       -0.0620
      5 C          -5.4574   -1.3847    2.0275 C.ar    1  LIG1       -0.0586
      6 C          -6.8633   -1.0891    0.0850 C.ar    1  LIG1       -0.0586
      7 C         -12.2130   -3.7937    1.5285 C.ar    1  LIG1       -0.0391
      8 C          -9.9833   -5.3754    0.7944 C.ar    1  LIG1       -0.0090
      9 C         -14.9239   -5.4190    1.5378 C.ar    1  LIG1        0.0608
     10 C         -15.2531   -6.8111   -0.0038 C.ar    1  LIG1        0.1342
     11 C         -10.3756   -2.0417    2.1279 C.ar    1  LIG1        0.0785
     12 C         -10.9090   -3.2779    1.6671 C.ar    1  LIG1        0.0160
     13 C         -12.3851   -5.0888    1.0266 C.ar    1  LIG1        0.0380
     14 C          -6.7226   -1.2057    1.4678 C.ar    1  LIG1       -0.0423
     15 C          -9.8265   -4.0791    1.2976 C.ar    1  LIG1        0.0415
     16 C         -11.2860   -5.8657    0.6659 C.ar    1  LIG1        0.0864
     17 C         -13.7283   -5.6056    0.8893 C.ar    1  LIG1        0.1115
     18 C          -9.0051   -2.1152    2.0313 C.ar    1  LIG1        0.0301
     19 C         -11.4724   -8.1923    1.1224 C.3     1  LIG1        0.0423
     20 C          -7.9494   -1.1379    2.3651 C.3     1  LIG1        0.0120
     21 N         -11.6919    0.0048    3.0031 N.1     1  LIG1       -0.1923
     22 N         -15.8972   -6.1939    0.9609 N.ar    1  LIG1       -0.2367
     23 N          -8.6834   -3.3476    1.5293 N.ar    1  LIG1       -0.3163
     24 O         -13.9309   -6.5065   -0.1121 O.2     1  LIG1       -0.2962
     25 O         -11.4517   -7.1297    0.1740 O.3     1  LIG1       -0.3485
     26 H          -3.5981   -1.3777   -0.8192 H       1  LIG1        0.0622
     27 H          -3.3480   -1.5853    1.6404 H       1  LIG1        0.0623
     28 H          -5.8487   -1.0595   -1.8146 H       1  LIG1        0.0623
     29 H          -5.3383   -1.4767    3.1039 H       1  LIG1        0.0625
     30 H          -7.8449   -0.9495   -0.3600 H       1  LIG1        0.0625
     31 H         -13.0704   -3.1868    1.8096 H       1  LIG1        0.0638
     32 H          -9.1241   -5.9761    0.5137 H       1  LIG1        0.0670
     33 H         -15.1374   -4.7766    2.3796 H       1  LIG1        0.0869
     34 H         -15.6429   -7.5242   -0.7146 H       1  LIG1        0.1125
     35 H         -11.6101   -9.1433    0.6021 H       1  LIG1        0.0535
     36 H         -12.2873   -8.0319    1.8327 H       1  LIG1        0.0535
     37 H         -10.5211   -8.2078    1.6595 H       1  LIG1        0.0535
     38 H          -7.6150   -1.2516    3.4168 H       1  LIG1        0.0379
     39 H          -8.3405   -0.0999    2.3384 H       1  LIG1        0.0379
     40 H          -7.7443   -3.6773    1.3529 H       1  LIG1        0.1525
@<TRIPOS>BOND
     1     1    11    1
     2     1    21    3
     3     2     3   ar
     4     2     4   ar
     5     3     5   ar
     6     4     6   ar
     7     5    14   ar
     8     6    14   ar
     9     7    12   ar
    10     7    13   ar
    11     8    15   ar
    12     8    16   ar
    13     9    17   ar
    14     9    22   ar
    15    10    22   ar
    16    10    24   ar
    17    11    12   ar
    18    11    18   ar
    19    12    15   ar
    20    13    16   ar
    21    13    17    1
    22    14    20    1
    23    15    23   ar
    24    16    25    1
    25    17    24   ar
    26    18    20    1
    27    18    23   ar
    28    19    25    1
    29     2    26    1
    30     3    27    1
    31     4    28    1
    32     5    29    1
    33     6    30    1
    34     7    31    1
    35     8    32    1
    36     9    33    1
    37    10    34    1
    38    19    35    1
    39    19    36    1
    40    19    37    1
    41    20    38    1
    42    20    39    1
    43    23    40    1
