@<TRIPOS>MOLECULE
ChEBML555435
 41 44 0 0 0
SMALL
USER_CHARGES

@<TRIPOS>ATOM
      1 C          -3.2456   -1.0833   -2.1569 C.ar    1  LIG1       -0.0485
      2 C          -2.1905    1.0858   -2.0208 C.ar    1  LIG1       -0.0485
      3 C         -12.5345   -4.1446    1.9413 C.ar    1  LIG1       -0.0582
      4 C         -12.0959   -5.1040    1.0310 C.ar    1  LIG1       -0.0571
      5 C          -2.6916   -1.2734   -3.4228 C.ar    1  LIG1       -0.0256
      6 C          -1.6364    0.8957   -3.2867 C.ar    1  LIG1       -0.0256
      7 C         -10.3871   -3.0298    1.8198 C.ar    1  LIG1        0.0302
      8 C          -2.9951    0.0962   -1.4559 C.ar    1  LIG1        0.0186
      9 C         -11.6925   -3.1022    2.3452 C.ar    1  LIG1       -0.0396
     10 C         -10.8057   -5.0536    0.4957 C.ar    1  LIG1       -0.0290
     11 C          -9.2922   -2.1450    1.9941 C.ar    1  LIG1        0.1356
     12 C          -9.9726   -4.0068    0.9069 C.ar    1  LIG1        0.0444
     13 C          -1.8869   -0.2840   -3.9877 C.ar    1  LIG1        0.1228
     14 C          -8.2530   -2.5909    1.2007 C.ar    1  LIG1        0.1534
     15 C          -7.0044   -0.9173    1.8965 C.ar    1  LIG1        0.2109
     16 C          -3.5886    0.2995   -0.1001 C.2     1  LIG1        0.1727
     17 C         -12.2224   -2.1029    3.3246 C.3     1  LIG1       -0.0390
     18 C         -10.3706   -6.0984   -0.4769 C.3     1  LIG1       -0.0379
     19 C          -4.9188   -0.3632    0.2064 C.3     1  LIG1        0.0647
     20 N          -9.1417   -1.0345    2.7557 N.ar    1  LIG1       -0.1439
     21 N          -7.0499   -2.0061    1.1042 N.ar    1  LIG1       -0.2034
     22 N          -7.9783   -0.4189    2.6992 N.ar    1  LIG1       -0.1224
     23 N          -8.6724   -3.7149    0.5477 N.ar    1  LIG1       -0.2969
     24 O          -2.9768    0.9877    0.7136 O.2     1  LIG1       -0.2931
     25 F          -1.3548   -0.4665   -5.2033 F       1  LIG1       -0.2069
     26 S          -5.4664   -0.0114    1.8907 S.3     1  LIG1       -0.0760
     27 H          -3.8710   -1.8610   -1.7261 H       1  LIG1        0.0631
     28 H          -1.9882    2.0088   -1.4830 H       1  LIG1        0.0631
     29 H         -13.5451   -4.2145    2.3374 H       1  LIG1        0.0626
     30 H         -12.7750   -5.9015    0.7374 H       1  LIG1        0.0626
     31 H          -2.8863   -2.1918   -3.9686 H       1  LIG1        0.0653
     32 H          -1.0102    1.6664   -3.7269 H       1  LIG1        0.0653
     33 H         -12.0119   -2.4299    4.3484 H       1  LIG1        0.0280
     34 H         -11.7660   -1.1188    3.1688 H       1  LIG1        0.0280
     35 H         -13.3054   -1.9767    3.2111 H       1  LIG1        0.0280
     36 H         -10.6043   -5.7860   -1.5018 H       1  LIG1        0.0280
     37 H          -9.2911   -6.2825   -0.4062 H       1  LIG1        0.0280
     38 H         -10.8702   -7.0560   -0.2817 H       1  LIG1        0.0280
     39 H          -4.8192   -1.4470    0.1017 H       1  LIG1        0.0470
     40 H          -5.6840    0.0159   -0.4765 H       1  LIG1        0.0470
     41 H          -8.1144   -4.2532   -0.1006 H       1  LIG1        0.1544
@<TRIPOS>BOND
     1     1     5   ar
     2     1     8   ar
     3     2     6   ar
     4     2     8   ar
     5     3     4   ar
     6     3     9   ar
     7     4    10   ar
     8     5    13   ar
     9     6    13   ar
    10     7     9   ar
    11     7    11   ar
    12     7    12   ar
    13     8    16    1
    14     9    17    1
    15    10    12   ar
    16    10    18    1
    17    11    14   ar
    18    11    20   ar
    19    12    23   ar
    20    13    25    1
    21    14    21   ar
    22    14    23   ar
    23    15    21   ar
    24    15    22   ar
    25    15    26    1
    26    16    19    1
    27    16    24    2
    28    19    26    1
    29    20    22   ar
    30     1    27    1
    31     2    28    1
    32     3    29    1
    33     4    30    1
    34     5    31    1
    35     6    32    1
    36    17    33    1
    37    17    34    1
    38    17    35    1
    39    18    36    1
    40    18    37    1
    41    18    38    1
    42    19    39    1
    43    19    40    1
    44    23    41    1
