@<TRIPOS>MOLECULE
ChEBML796702
 40 43 0 0 0
SMALL
USER_CHARGES

@<TRIPOS>ATOM
      1 C          -1.6225    0.9909   -3.2998 C.ar    1  LIG1       -0.0621
      2 C         -12.9104   -4.3276    1.5406 C.ar    1  LIG1       -0.0614
      3 C          -2.7056    1.7720   -2.8969 C.ar    1  LIG1       -0.0604
      4 C          -1.6135   -0.3786   -3.0351 C.ar    1  LIG1       -0.0604
      5 C         -12.1133   -5.3179    0.9613 C.ar    1  LIG1       -0.0596
      6 C         -12.3493   -3.1354    2.0180 C.ar    1  LIG1       -0.0500
      7 C          -3.7798    1.1837   -2.2294 C.ar    1  LIG1       -0.0407
      8 C          -2.6876   -0.9670   -2.3676 C.ar    1  LIG1       -0.0407
      9 C         -10.7304   -5.1554    0.8370 C.ar    1  LIG1       -0.0305
     10 C         -10.9603   -2.9494    1.9039 C.ar    1  LIG1        0.0339
     11 C         -10.0378   -1.9283    2.2485 C.ar    1  LIG1        0.1086
     12 C          -3.7708   -0.1859   -1.9647 C.ar    1  LIG1        0.0325
     13 C         -10.1989   -3.9606    1.3197 C.ar    1  LIG1        0.0918
     14 C          -8.7873   -2.3806    1.8551 C.ar    1  LIG1        0.1407
     15 C          -7.6543   -1.6183    2.0474 C.ar    1  LIG1        0.1318
     16 C          -9.0596   -0.0421    2.9901 C.ar    1  LIG1        0.1270
     17 C          -5.0145   -2.1211   -0.9454 C.2     1  LIG1        0.2264
     18 C          -9.1787    1.2992    3.6356 C.3     1  LIG1       -0.0042
     19 C          -6.3208   -2.3762   -0.2243 C.3     1  LIG1        0.0770
     20 N         -10.2177   -0.7222    2.8397 N.ar    1  LIG1       -0.2302
     21 N          -7.8050   -0.4104    2.6353 N.ar    1  LIG1       -0.2240
     22 N          -4.8611   -0.7828   -1.2873 N.am    1  LIG1       -0.2847
     23 O          -4.2407   -3.0461   -1.1790 O.2     1  LIG1       -0.2763
     24 O          -8.8787   -3.6129    1.2911 O.2     1  LIG1       -0.3046
     25 S          -6.0561   -2.1685    1.5540 S.3     1  LIG1       -0.0938
     26 H          -0.7862    1.4486   -3.8203 H       1  LIG1        0.0622
     27 H         -13.9831   -4.4829    1.6239 H       1  LIG1        0.0623
     28 H          -2.7133    2.8382   -3.1036 H       1  LIG1        0.0623
     29 H          -0.7704   -0.9867   -3.3498 H       1  LIG1        0.0623
     30 H         -12.5763   -6.2327    0.5997 H       1  LIG1        0.0623
     31 H         -12.9814   -2.3746    2.4662 H       1  LIG1        0.0631
     32 H          -4.6185    1.8024   -1.9203 H       1  LIG1        0.0642
     33 H          -2.6698   -2.0353   -2.1668 H       1  LIG1        0.0642
     34 H         -10.1063   -5.9198    0.3894 H       1  LIG1        0.0650
     35 H          -9.0749    1.2082    4.7230 H       1  LIG1        0.0312
     36 H          -8.4071    1.9865    3.2671 H       1  LIG1        0.0312
     37 H         -10.1492    1.7608    3.4145 H       1  LIG1        0.0312
     38 H          -7.0649   -1.6545   -0.5750 H       1  LIG1        0.0484
     39 H          -6.7051   -3.3807   -0.4230 H       1  LIG1        0.0484
     40 H          -5.6203   -0.1600   -1.0199 H       1  LIG1        0.1556
@<TRIPOS>BOND
     1     1     3   ar
     2     1     4   ar
     3     2     5   ar
     4     2     6   ar
     5     3     7   ar
     6     4     8   ar
     7     5     9   ar
     8     6    10   ar
     9     7    12   ar
    10     8    12   ar
    11     9    13   ar
    12    10    11   ar
    13    10    13   ar
    14    11    14   ar
    15    11    20   ar
    16    12    22    1
    17    13    24   ar
    18    14    15   ar
    19    14    24   ar
    20    15    21   ar
    21    15    25    1
    22    16    18    1
    23    16    20   ar
    24    16    21   ar
    25    17    19    1
    26    17    22   am
    27    17    23    2
    28    19    25    1
    29     1    26    1
    30     2    27    1
    31     3    28    1
    32     4    29    1
    33     5    30    1
    34     6    31    1
    35     7    32    1
    36     8    33    1
    37     9    34    1
    38    18    35    1
    39    18    36    1
    40    18    37    1
    41    19    38    1
    42    19    39    1
    43    22    40    1
