@<TRIPOS>MOLECULE
ChEBML98367
 47 51 0 0 0
SMALL
USER_CHARGES

@<TRIPOS>ATOM
      1 C         -14.5320   -5.2003    0.5322 C.ar    1  LIG1       -0.0615
      2 C         -13.9293   -6.2763   -0.1005 C.ar    1  LIG1       -0.0611
      3 C         -10.3626   -1.4305    2.7590 C.ar    1  LIG1       -0.0611
      4 C         -13.7506   -4.2022    1.1204 C.ar    1  LIG1       -0.0532
      5 C         -11.4814   -2.1507    2.3324 C.ar    1  LIG1       -0.0532
      6 C          -9.0863   -1.8975    2.4862 C.ar    1  LIG1       -0.0526
      7 C         -12.5387   -6.3760   -0.1577 C.ar    1  LIG1       -0.0476
      8 C          -2.6232    0.7277   -3.6940 C.ar    1  LIG1       -0.0252
      9 C          -2.5517   -0.6477   -3.6082 C.ar    1  LIG1        0.0322
     10 C          -3.4638    1.3397   -2.7868 C.ar    1  LIG1        0.0322
     11 C         -12.3333   -4.2718    1.0812 C.ar    1  LIG1       -0.0033
     12 C         -11.3324   -3.3669    1.6157 C.ar    1  LIG1       -0.0028
     13 C          -8.9036   -3.0892    1.7838 C.ar    1  LIG1        0.0103
     14 C         -11.7549   -5.3668    0.4372 C.ar    1  LIG1        0.0201
     15 C         -10.0354   -3.8121    1.3558 C.ar    1  LIG1        0.0285
     16 C          -4.0278   -0.6668   -1.8796 C.ar    1  LIG1        0.2165
     17 C          -5.1258   -2.7415   -1.3651 C.3     1  LIG1        0.0537
     18 C          -5.7882   -0.6185   -0.2473 C.3     1  LIG1        0.0537
     19 C          -5.6862   -3.5326   -0.1911 C.3     1  LIG1       -0.0177
     20 C          -6.3521   -1.4150    0.9225 C.3     1  LIG1       -0.0177
     21 C          -7.5036   -3.5458    1.5168 C.3     1  LIG1       -0.0070
     22 N          -3.2427   -1.3796   -2.7098 N.ar    1  LIG1       -0.2235
     23 N          -4.1839    0.6706   -1.8625 N.ar    1  LIG1       -0.2235
     24 N          -4.7504   -1.3853   -0.9438 N.pl3   1  LIG1       -0.2896
     25 N          -6.8287   -2.7688    0.4436 N.4     1  LIG1        0.2516
     26 S         -10.0421   -5.2899    0.4849 S.2     1  LIG1       -0.0883
     27 H         -15.6154   -5.1309    0.5728 H       1  LIG1        0.0623
     28 H         -14.5423   -7.0490   -0.5557 H       1  LIG1        0.0623
     29 H         -10.4961   -0.5021    3.3069 H       1  LIG1        0.0623
     30 H         -14.2439   -3.3676    1.6130 H       1  LIG1        0.0629
     31 H         -12.4736   -1.7657    2.5561 H       1  LIG1        0.0629
     32 H          -8.2269   -1.3242    2.8255 H       1  LIG1        0.0628
     33 H         -12.0743   -7.2223   -0.6559 H       1  LIG1        0.0635
     34 H          -2.0589    1.2903   -4.4257 H       1  LIG1        0.0655
     35 H          -1.9169   -1.2166   -4.2793 H       1  LIG1        0.0841
     36 H          -3.5861    2.4175   -2.7783 H       1  LIG1        0.0841
     37 H          -4.2499   -3.2718   -1.7589 H       1  LIG1        0.0525
     38 H          -5.8694   -2.6873   -2.1711 H       1  LIG1        0.0525
     39 H          -6.5937   -0.3613   -0.9476 H       1  LIG1        0.0525
     40 H          -5.3724    0.3211    0.1371 H       1  LIG1        0.0525
     41 H          -6.0835   -4.4959   -0.5272 H       1  LIG1        0.0831
     42 H          -4.9315   -3.6971    0.5867 H       1  LIG1        0.0831
     43 H          -5.5962   -1.5909    1.6966 H       1  LIG1        0.0831
     44 H          -7.2139   -0.9013    1.3609 H       1  LIG1        0.0831
     45 H          -6.8755   -3.4526    2.4110 H       1  LIG1        0.0869
     46 H          -7.4792   -4.5965    1.2037 H       1  LIG1        0.0869
     47 H          -7.5264   -2.5968   -0.3002 H       1  LIG1        0.2008
@<TRIPOS>BOND
     1     1     2   ar
     2     1     4   ar
     3     2     7   ar
     4     3     5   ar
     5     3     6   ar
     6     4    11   ar
     7     5    12   ar
     8     6    13   ar
     9     7    14   ar
    10     8     9   ar
    11     8    10   ar
    12     9    22   ar
    13    10    23   ar
    14    11    12   ar
    15    11    14   ar
    16    12    15   ar
    17    13    15   ar
    18    13    21    1
    19    14    26   ar
    20    15    26   ar
    21    16    22   ar
    22    16    23   ar
    23    16    24    1
    24    17    19    1
    25    17    24    1
    26    18    20    1
    27    18    24    1
    28    19    25    1
    29    20    25    1
    30    21    25    1
    31     1    27    1
    32     2    28    1
    33     3    29    1
    34     4    30    1
    35     5    31    1
    36     6    32    1
    37     7    33    1
    38     8    34    1
    39     9    35    1
    40    10    36    1
    41    17    37    1
    42    17    38    1
    43    18    39    1
    44    18    40    1
    45    19    41    1
    46    19    42    1
    47    20    43    1
    48    20    44    1
    49    21    45    1
    50    21    46    1
    51    25    47    1
