@<TRIPOS>MOLECULE
ChEBML912470
 45 46 0 0 0
SMALL
USER_CHARGES

@<TRIPOS>ATOM
      1 C          -2.9702    1.3384   -3.6550 C.ar    1  LIG1       -0.0594
      2 C          -1.7507    0.6761   -3.7952 C.ar    1  LIG1       -0.0592
      3 C          -9.8454   -1.7224    1.8040 C.ar    1  LIG1       -0.0494
      4 C          -8.1414   -3.3084    1.1574 C.ar    1  LIG1       -0.0494
      5 C         -10.8319   -2.6676    1.5233 C.ar    1  LIG1       -0.0577
      6 C          -9.1280   -4.2537    0.8767 C.ar    1  LIG1       -0.0577
      7 C          -3.8773    0.9302   -2.6771 C.ar    1  LIG1       -0.0288
      8 C          -1.4383   -0.3947   -2.9576 C.ar    1  LIG1       -0.0236
      9 C          -8.5002   -2.0427    1.6210 C.ar    1  LIG1        0.0370
     10 C         -10.4732   -3.9334    1.0597 C.ar    1  LIG1       -0.0426
     11 C          -3.5649   -0.1405   -1.8395 C.ar    1  LIG1        0.1107
     12 C          -2.3454   -0.8030   -1.9797 C.ar    1  LIG1        0.1529
     13 C          -7.4707   -1.0580    1.9138 C.2     1  LIG1        0.2430
     14 C         -12.5042   -4.4333   -0.3442 C.3     1  LIG1       -0.0561
     15 C         -12.3798   -5.2651    2.0282 C.3     1  LIG1       -0.0561
     16 C         -11.0069   -6.3276    0.2485 C.3     1  LIG1       -0.0561
     17 C          -5.1408   -0.2842    1.4064 C.3     1  LIG1        0.0354
     18 C          -4.8165    0.4222    0.1029 C.3     1  LIG1        0.0690
     19 C         -11.5611   -4.9755    0.7515 C.3     1  LIG1       -0.0132
     20 N          -6.2655   -1.1705    1.2108 N.am    1  LIG1       -0.3090
     21 O          -7.6655   -0.1764    2.7693 O.2     1  LIG1       -0.2719
     22 O          -4.4568   -0.5410   -0.8795 O.3     1  LIG1       -0.3414
     23 F          -2.0394   -1.8324   -1.1780 F       1  LIG1       -0.2040
     24 H          -3.2130    2.1725   -4.3071 H       1  LIG1        0.0623
     25 H          -1.0448    0.9936   -4.5569 H       1  LIG1        0.0624
     26 H         -10.1353   -0.7390    2.1648 H       1  LIG1        0.0631
     27 H          -7.0966   -3.5691    1.0109 H       1  LIG1        0.0631
     28 H         -11.8775   -2.4096    1.6691 H       1  LIG1        0.0626
     29 H          -8.8395   -5.2378    0.5164 H       1  LIG1        0.0626
     30 H          -4.8255    1.4505   -2.5728 H       1  LIG1        0.0651
     31 H          -0.4889   -0.9105   -3.0663 H       1  LIG1        0.0654
     32 H         -13.2907   -5.1587   -0.5832 H       1  LIG1        0.0239
     33 H         -13.0046   -3.5075   -0.0399 H       1  LIG1        0.0239
     34 H         -11.9539   -4.2212   -1.2687 H       1  LIG1        0.0239
     35 H         -13.1693   -6.0047    1.8556 H       1  LIG1        0.0239
     36 H         -11.7405   -5.6598    2.8267 H       1  LIG1        0.0239
     37 H         -12.8594   -4.3538    2.4045 H       1  LIG1        0.0239
     38 H         -11.8189   -7.0355    0.0429 H       1  LIG1        0.0239
     39 H         -10.4394   -6.2104   -0.6822 H       1  LIG1        0.0239
     40 H         -10.3515   -6.7967    0.9916 H       1  LIG1        0.0239
     41 H          -4.2919   -0.8797    1.7570 H       1  LIG1        0.0491
     42 H          -5.4103    0.4440    2.1774 H       1  LIG1        0.0491
     43 H          -3.9652    1.0955    0.2433 H       1  LIG1        0.0589
     44 H          -5.6708    0.9991   -0.2658 H       1  LIG1        0.0589
     45 H          -6.1358   -1.9462    0.5695 H       1  LIG1        0.1497
@<TRIPOS>BOND
     1     1     2   ar
     2     1     7   ar
     3     2     8   ar
     4     3     5   ar
     5     3     9   ar
     6     4     6   ar
     7     4     9   ar
     8     5    10   ar
     9     6    10   ar
    10     7    11   ar
    11     8    12   ar
    12     9    13    1
    13    10    19    1
    14    11    12   ar
    15    11    22    1
    16    12    23    1
    17    13    20   am
    18    13    21    2
    19    14    19    1
    20    15    19    1
    21    16    19    1
    22    17    18    1
    23    17    20    1
    24    18    22    1
    25     1    24    1
    26     2    25    1
    27     3    26    1
    28     4    27    1
    29     5    28    1
    30     6    29    1
    31     7    30    1
    32     8    31    1
    33    14    32    1
    34    14    33    1
    35    14    34    1
    36    15    35    1
    37    15    36    1
    38    15    37    1
    39    16    38    1
    40    16    39    1
    41    16    40    1
    42    17    41    1
    43    17    42    1
    44    18    43    1
    45    18    44    1
    46    20    45    1
