@<TRIPOS>MOLECULE
ChEBML764205
 54 58 0 0 0
SMALL
USER_CHARGES

@<TRIPOS>ATOM
      1 C          -2.4830   -0.5197   -3.5554 C.ar    1  LIG1       -0.0573
      2 C         -14.0247   -1.0980    4.0095 C.ar    1  LIG1       -0.0590
      3 C          -2.3835    0.8654   -3.5764 C.ar    1  LIG1       -0.0437
      4 C         -13.0191   -1.8529    3.4395 C.ar    1  LIG1       -0.0525
      5 C         -15.2917   -1.0981    3.4574 C.ar    1  LIG1       -0.0318
      6 C          -3.0740   -1.1225   -2.4599 C.ar    1  LIG1       -0.0217
      7 C          -9.9131   -2.0196    1.9991 C.ar    1  LIG1       -0.0308
      8 C         -14.5601   -2.6224    1.7514 C.ar    1  LIG1       -0.0223
      9 C          -2.8734    1.5946   -2.5119 C.ar    1  LIG1        0.0290
     10 C         -10.7678   -3.0620    1.6178 C.ar    1  LIG1        0.0336
     11 C         -13.2809   -2.6185    2.3041 C.ar    1  LIG1        0.0050
     12 C         -15.5610   -1.8573    2.3264 C.ar    1  LIG1        0.0752
     13 C         -12.2030   -3.4297    1.6898 C.ar    1  LIG1        0.0985
     14 C          -8.5817   -2.1003    1.7147 C.ar    1  LIG1        0.0770
     15 C          -3.5461   -0.3253   -1.4218 C.ar    1  LIG1        0.1199
     16 C         -10.1656   -4.1416    0.9559 C.ar    1  LIG1        0.0978
     17 C          -7.5200   -1.1363    2.0178 C.2     1  LIG1        0.2525
     18 C          -4.5342    0.1717    0.5866 C.3     1  LIG1        0.0288
     19 C          -5.3737   -1.5579   -0.7910 C.3     1  LIG1        0.0288
     20 C          -5.1800   -0.4123    1.8473 C.3     1  LIG1        0.0303
     21 C          -6.0732   -2.2602    0.3830 C.3     1  LIG1        0.0303
     22 C         -10.8784   -6.3163   -0.0486 C.3     1  LIG1        0.0239
     23 C         -17.6042   -0.9821    2.5923 C.3     1  LIG1        0.0422
     24 N          -3.4375    0.9929   -1.4817 N.ar    1  LIG1       -0.2414
     25 N         -12.3511   -4.5934    1.1103 N.ar    1  LIG1       -0.1799
     26 N         -11.1111   -5.0505    0.6513 N.ar    1  LIG1       -0.2206
     27 N          -4.1423   -0.9178   -0.3147 N.pl3   1  LIG1       -0.3127
     28 N          -6.3095   -1.2628    1.4390 N.am    1  LIG1       -0.2942
     29 O          -7.7316   -0.2214    2.7921 O.2     1  LIG1       -0.2710
     30 O         -16.8084   -1.8539    1.7869 O.3     1  LIG1       -0.3493
     31 S          -8.4536   -3.6785    0.8913 S.2     1  LIG1       -0.0666
     32 H          -2.1070   -1.1128   -4.3759 H       1  LIG1        0.0624
     33 H         -13.8205   -0.5055    4.8890 H       1  LIG1        0.0624
     34 H          -1.9271    1.3668   -4.4171 H       1  LIG1        0.0639
     35 H         -12.0299   -1.8501    3.8729 H       1  LIG1        0.0630
     36 H         -16.0749   -0.5055    3.9069 H       1  LIG1        0.0650
     37 H          -3.1673   -2.1973   -2.4107 H       1  LIG1        0.0659
     38 H         -10.3067   -1.1564    2.5153 H       1  LIG1        0.0644
     39 H         -14.7693   -3.2171    0.8745 H       1  LIG1        0.0657
     40 H          -2.7977    2.6719   -2.5240 H       1  LIG1        0.0840
     41 H          -5.2480    0.8221    0.0811 H       1  LIG1        0.0485
     42 H          -3.6518    0.7481    0.8645 H       1  LIG1        0.0485
     43 H          -6.0362   -0.8019   -1.2125 H       1  LIG1        0.0485
     44 H          -5.1278   -2.2927   -1.5576 H       1  LIG1        0.0485
     45 H          -5.5404    0.3962    2.4833 H       1  LIG1        0.0486
     46 H          -4.4484   -1.0097    2.3914 H       1  LIG1        0.0486
     47 H          -5.4390   -3.0590    0.7676 H       1  LIG1        0.0486
     48 H          -7.0248   -2.6746    0.0500 H       1  LIG1        0.0486
     49 H         -10.9810   -6.1618   -1.1227 H       1  LIG1        0.0454
     50 H          -9.8729   -6.6743    0.1726 H       1  LIG1        0.0454
     51 H         -11.6083   -7.0546    0.2835 H       1  LIG1        0.0454
     52 H         -17.1739    0.0193    2.5783 H       1  LIG1        0.0535
     53 H         -18.6191   -0.9470    2.1960 H       1  LIG1        0.0535
     54 H         -17.6268   -1.3536    3.6167 H       1  LIG1        0.0535
@<TRIPOS>BOND
     1     1     3   ar
     2     1     6   ar
     3     2     4   ar
     4     2     5   ar
     5     3     9   ar
     6     4    11   ar
     7     5    12   ar
     8     6    15   ar
     9     7    10   ar
    10     7    14   ar
    11     8    11   ar
    12     8    12   ar
    13     9    24   ar
    14    10    13   ar
    15    10    16   ar
    16    11    13    1
    17    12    30    1
    18    13    25   ar
    19    14    17    1
    20    14    31   ar
    21    15    24   ar
    22    15    27    1
    23    16    26   ar
    24    16    31   ar
    25    17    28   am
    26    17    29    2
    27    18    20    1
    28    18    27    1
    29    19    21    1
    30    19    27    1
    31    20    28    1
    32    21    28    1
    33    22    26    1
    34    23    30    1
    35    25    26   ar
    36     1    32    1
    37     2    33    1
    38     3    34    1
    39     4    35    1
    40     5    36    1
    41     6    37    1
    42     7    38    1
    43     8    39    1
    44     9    40    1
    45    18    41    1
    46    18    42    1
    47    19    43    1
    48    19    44    1
    49    20    45    1
    50    20    46    1
    51    21    47    1
    52    21    48    1
    53    22    49    1
    54    22    50    1
    55    22    51    1
    56    23    52    1
    57    23    53    1
    58    23    54    1
