@<TRIPOS>MOLECULE
ChEBML242352
 55 59 0 0 0
SMALL
USER_CHARGES

@<TRIPOS>ATOM
      1 C         -16.5443   -5.6306   -0.9534 C.ar    1  LIG1       -0.0621
      2 C          -0.5236   -2.4279   -3.4021 C.ar    1  LIG1       -0.0615
      3 C          -1.4328   -3.1466   -2.6281 C.ar    1  LIG1       -0.0615
      4 C         -15.6596   -4.5647   -1.1168 C.ar    1  LIG1       -0.0596
      5 C         -16.6013   -6.3094    0.2639 C.ar    1  LIG1       -0.0596
      6 C          -0.7126   -1.0619   -3.6152 C.ar    1  LIG1       -0.0526
      7 C          -2.5344   -2.5020   -2.0641 C.ar    1  LIG1       -0.0507
      8 C         -10.4806   -4.9994    1.6974 C.ar    1  LIG1       -0.0381
      9 C         -11.0148   -2.6824    1.2698 C.ar    1  LIG1       -0.0381
     10 C         -14.8319   -4.1776   -0.0629 C.ar    1  LIG1       -0.0312
     11 C         -15.7735   -5.9224    1.3177 C.ar    1  LIG1       -0.0312
     12 C         -11.8208   -5.2550    1.9870 C.ar    1  LIG1       -0.0294
     13 C         -12.3552   -2.9379    1.5593 C.ar    1  LIG1       -0.0294
     14 C          -2.0612    0.9543   -3.2276 C.ar    1  LIG1        0.0576
     15 C          -1.8186   -0.4036   -3.0517 C.ar    1  LIG1        0.0054
     16 C          -2.7337   -1.1270   -2.2726 C.ar    1  LIG1        0.0255
     17 C         -10.0775   -3.7131    1.3389 C.ar    1  LIG1        0.0341
     18 C         -14.8888   -4.8565    1.1543 C.ar    1  LIG1        0.0820
     19 C         -12.7582   -4.2243    1.9178 C.ar    1  LIG1        0.0822
     20 C          -3.8110   -0.4289   -1.7380 C.ar    1  LIG1        0.1508
     21 C          -8.1572   -2.2291    1.3596 C.2     1  LIG1        0.3050
     22 C          -4.9405   -0.6590    0.4167 C.3     1  LIG1        0.0289
     23 C          -5.8249   -1.7968   -1.6424 C.3     1  LIG1        0.0289
     24 C          -6.4304   -0.5642    0.7379 C.3     1  LIG1        0.0315
     25 C          -6.6391   -2.6201   -0.6431 C.3     1  LIG1        0.0315
     26 N          -3.1220    1.5937   -2.6891 N.ar    1  LIG1       -0.1565
     27 N          -4.0088    0.8927   -1.9343 N.ar    1  LIG1       -0.1346
     28 N          -4.7343   -1.0889   -0.9690 N.pl3   1  LIG1       -0.3107
     29 N          -7.1149   -1.8333    0.5002 N.am    1  LIG1       -0.2824
     30 N          -8.7326   -3.4564    1.0484 N.am    1  LIG1       -0.2690
     31 O          -8.5272   -1.5453    2.3196 O.2     1  LIG1       -0.2537
     32 O         -14.0660   -4.4737    2.2003 O.3     1  LIG1       -0.3104
     33 H         -17.1894   -5.9320   -1.7736 H       1  LIG1        0.0622
     34 H           0.3338   -2.9313   -3.8394 H       1  LIG1        0.0623
     35 H          -1.2841   -4.2101   -2.4636 H       1  LIG1        0.0623
     36 H         -15.6150   -4.0362   -2.0646 H       1  LIG1        0.0623
     37 H         -17.2906   -7.1393    0.3903 H       1  LIG1        0.0623
     38 H           0.0062   -0.5159   -4.2216 H       1  LIG1        0.0630
     39 H          -3.2227   -3.0949   -1.4669 H       1  LIG1        0.0630
     40 H          -9.7587   -5.8102    1.7543 H       1  LIG1        0.0643
     41 H         -10.7122   -1.6760    0.9916 H       1  LIG1        0.0643
     42 H         -14.1439   -3.3474   -0.1970 H       1  LIG1        0.0650
     43 H         -15.8210   -6.4560    2.2631 H       1  LIG1        0.0650
     44 H         -12.1288   -6.2591    2.2656 H       1  LIG1        0.0651
     45 H         -13.0806   -2.1309    1.5038 H       1  LIG1        0.0651
     46 H          -1.4022    1.5834   -3.8174 H       1  LIG1        0.0866
     47 H          -4.4729    0.3163    0.6003 H       1  LIG1        0.0485
     48 H          -4.4573   -1.3848    1.0818 H       1  LIG1        0.0485
     49 H          -5.4235   -2.4635   -2.4149 H       1  LIG1        0.0485
     50 H          -6.4784   -1.0679   -2.1387 H       1  LIG1        0.0485
     51 H          -6.5676   -0.2499    1.7778 H       1  LIG1        0.0486
     52 H          -6.9162    0.1859    0.1018 H       1  LIG1        0.0486
     53 H          -7.4948   -3.0676   -1.1594 H       1  LIG1        0.0486
     54 H          -6.0275   -3.4337   -0.2347 H       1  LIG1        0.0486
     55 H          -8.1943   -4.2206    0.6570 H       1  LIG1        0.1573
@<TRIPOS>BOND
     1     1     4   ar
     2     1     5   ar
     3     2     3   ar
     4     2     6   ar
     5     3     7   ar
     6     4    10   ar
     7     5    11   ar
     8     6    15   ar
     9     7    16   ar
    10     8    12   ar
    11     8    17   ar
    12     9    13   ar
    13     9    17   ar
    14    10    18   ar
    15    11    18   ar
    16    12    19   ar
    17    13    19   ar
    18    14    15   ar
    19    14    26   ar
    20    15    16   ar
    21    16    20   ar
    22    17    30    1
    23    18    32    1
    24    19    32    1
    25    20    27   ar
    26    20    28    1
    27    21    29   am
    28    21    30   am
    29    21    31    2
    30    22    24    1
    31    22    28    1
    32    23    25    1
    33    23    28    1
    34    24    29    1
    35    25    29    1
    36    26    27   ar
    37     1    33    1
    38     2    34    1
    39     3    35    1
    40     4    36    1
    41     5    37    1
    42     6    38    1
    43     7    39    1
    44     8    40    1
    45     9    41    1
    46    10    42    1
    47    11    43    1
    48    12    44    1
    49    13    45    1
    50    14    46    1
    51    22    47    1
    52    22    48    1
    53    23    49    1
    54    23    50    1
    55    24    51    1
    56    24    52    1
    57    25    53    1
    58    25    54    1
    59    30    55    1
