@<TRIPOS>MOLECULE
ChEBML358940
 43 46 0 0 0
SMALL
USER_CHARGES

@<TRIPOS>ATOM
      1 C          -1.9891    0.8885   -3.3042 C.ar    1  LIG1       -0.0432
      2 C          -6.4694   -2.6160   -0.3980 C.ar    1  LIG1       -0.0486
      3 C          -5.5011   -2.0653   -1.2316 C.ar    1  LIG1       -0.0519
      4 C          -1.7646   -0.4268   -2.9130 C.ar    1  LIG1       -0.0463
      5 C         -11.6350   -5.3977    0.6580 C.ar    1  LIG1       -0.0482
      6 C         -12.0854   -3.0923    1.2229 C.ar    1  LIG1       -0.0482
      7 C         -10.2689   -5.1726    0.8282 C.ar    1  LIG1       -0.0402
      8 C         -10.7193   -2.8670    1.3931 C.ar    1  LIG1       -0.0402
      9 C          -5.0821   -0.3528    0.4203 C.ar    1  LIG1       -0.0262
     10 C          -3.1365    1.5149   -2.8451 C.ar    1  LIG1        0.0276
     11 C          -7.2466   -0.8915    3.2276 C.ar    1  LIG1        0.1179
     12 C          -6.7405   -2.0272    0.8494 C.ar    1  LIG1        0.0408
     13 C          -4.8068   -0.9325   -0.8217 C.ar    1  LIG1        0.0029
     14 C         -12.5432   -4.3575    0.8554 C.ar    1  LIG1        0.0556
     15 C          -2.6816   -1.0665   -2.0865 C.ar    1  LIG1        0.0818
     16 C          -6.0461   -0.8829    1.2745 C.ar    1  LIG1        0.0762
     17 C          -9.8112   -3.9072    1.1957 C.ar    1  LIG1        0.0314
     18 C          -3.7980   -0.3525   -1.6818 C.ar    1  LIG1        0.0825
     19 C          -7.6956   -2.5277    1.7296 C.ar    1  LIG1        0.1329
     20 C         -14.0038   -4.5973    0.6734 C.3     1  LIG1        0.4160
     21 C          -2.4390   -2.4772   -1.6699 C.3     1  LIG1        0.4181
     22 N          -4.0501    0.9261   -2.0412 N.ar    1  LIG1       -0.2556
     23 N          -6.2974   -0.3115    2.4654 N.ar    1  LIG1       -0.2361
     24 N          -7.9722   -1.9810    2.9285 N.ar    1  LIG1       -0.2207
     25 N          -8.4366   -3.6806    1.3688 N.pl3   1  LIG1       -0.2990
     26 F         -14.3077   -5.8796    0.3137 F       1  LIG1       -0.1661
     27 F         -14.7414   -4.3589    1.7981 F       1  LIG1       -0.1661
     28 F         -14.5490   -3.8064   -0.2962 F       1  LIG1       -0.1661
     29 F          -1.2848   -3.0066   -2.1738 F       1  LIG1       -0.1660
     30 F          -2.3435   -2.6397   -0.3169 F       1  LIG1       -0.1660
     31 F          -3.4338   -3.3221   -2.0703 F       1  LIG1       -0.1660
     32 H          -1.2870    1.4061   -3.9479 H       1  LIG1        0.0639
     33 H          -6.9988   -3.5014   -0.7406 H       1  LIG1        0.0631
     34 H          -5.3006   -2.5296   -2.1938 H       1  LIG1        0.0630
     35 H          -0.8724   -0.9434   -3.2561 H       1  LIG1        0.0630
     36 H         -11.9827   -6.3862    0.3707 H       1  LIG1        0.0629
     37 H         -12.7853   -2.2755    1.3773 H       1  LIG1        0.0629
     38 H          -9.5697   -5.9896    0.6705 H       1  LIG1        0.0642
     39 H         -10.3737   -1.8770    1.6790 H       1  LIG1        0.0642
     40 H          -4.5321    0.5351    0.7316 H       1  LIG1        0.0653
     41 H          -3.3585    2.5398   -3.1232 H       1  LIG1        0.0840
     42 H          -7.4439   -0.4264    4.1859 H       1  LIG1        0.1063
     43 H          -7.8558   -4.4944    1.2051 H       1  LIG1        0.1543
@<TRIPOS>BOND
     1     1     4   ar
     2     1    10   ar
     3     2     3   ar
     4     2    12   ar
     5     3    13   ar
     6     4    15   ar
     7     5     7   ar
     8     5    14   ar
     9     6     8   ar
    10     6    14   ar
    11     7    17   ar
    12     8    17   ar
    13     9    13   ar
    14     9    16   ar
    15    10    22   ar
    16    11    23   ar
    17    11    24   ar
    18    12    16   ar
    19    12    19   ar
    20    13    18    1
    21    14    20    1
    22    15    18   ar
    23    15    21    1
    24    16    23   ar
    25    17    25    1
    26    18    22   ar
    27    19    24   ar
    28    19    25    1
    29    20    26    1
    30    20    27    1
    31    20    28    1
    32    21    29    1
    33    21    30    1
    34    21    31    1
    35     1    32    1
    36     2    33    1
    37     3    34    1
    38     4    35    1
    39     5    36    1
    40     6    37    1
    41     7    38    1
    42     8    39    1
    43     9    40    1
    44    10    41    1
    45    11    42    1
    46    25    43    1
