@<TRIPOS>MOLECULE
ChEBML1281962
 42 45 0 0 0
SMALL
USER_CHARGES

@<TRIPOS>ATOM
      1 C          -8.3802   -4.8977    0.2065 C.1     1  LIG1        0.1020
      2 C          -2.7748    1.1533   -3.4031 C.ar    1  LIG1       -0.0618
      3 C          -1.8644    0.1407   -3.0570 C.ar    1  LIG1       -0.0596
      4 C          -3.9476    1.3387   -2.6664 C.ar    1  LIG1       -0.0563
      5 C          -2.1165   -0.7007   -1.9720 C.ar    1  LIG1       -0.0315
      6 C          -9.1396   -3.9301    0.9377 C.ar    1  LIG1        0.0843
      7 C          -4.1897    0.4919   -1.6003 C.ar    1  LIG1       -0.0150
      8 C         -10.5238   -4.0498    1.2640 C.ar    1  LIG1       -0.0178
      9 C          -3.2883   -0.5070   -1.2664 C.ar    1  LIG1        0.0787
     10 C         -10.9666   -2.9581    1.9865 C.ar    1  LIG1       -0.0043
     11 C          -8.5921   -2.7590    1.4160 C.ar    1  LIG1        0.0894
     12 C          -6.8145   -1.0288    1.8495 C.2     1  LIG1        0.2190
     13 C          -5.3039    0.4973   -0.6268 C.3     1  LIG1        0.0022
     14 C         -11.4240   -5.1962    0.9209 C.3     1  LIG1       -0.0257
     15 C         -12.3704   -2.7552    2.4643 C.3     1  LIG1       -0.0211
     16 C         -12.9063   -4.8259    1.0864 C.3     1  LIG1       -0.0488
     17 C         -13.1581   -4.0736    2.4013 C.3     1  LIG1       -0.0484
     18 C          -5.0557   -0.8663    0.0368 C.3     1  LIG1        0.0769
     19 C          -5.3386   -0.8483    1.5301 C.3     1  LIG1        0.0519
     20 N          -7.7644   -5.6825   -0.3865 N.1     1  LIG1       -0.1923
     21 N          -7.2812   -2.2329    1.3301 N.am    1  LIG1       -0.2786
     22 O          -7.4513   -0.1928    2.4821 O.2     1  LIG1       -0.2772
     23 O          -3.6698   -1.2444   -0.1752 O.3     1  LIG1       -0.3417
     24 S          -9.7413   -1.8076    2.2566 S.2     1  LIG1       -0.0772
     25 H          -2.5596    1.8028   -4.2473 H       1  LIG1        0.0623
     26 H          -0.9543    0.0158   -3.6372 H       1  LIG1        0.0623
     27 H          -4.6423    2.1307   -2.9246 H       1  LIG1        0.0626
     28 H          -1.4140   -1.4799   -1.6989 H       1  LIG1        0.0650
     29 H          -5.1867    1.3297    0.0749 H       1  LIG1        0.0344
     30 H          -6.2905    0.5424   -1.0963 H       1  LIG1        0.0344
     31 H         -11.2506   -5.5299   -0.1085 H       1  LIG1        0.0317
     32 H         -11.1855   -6.0376    1.5835 H       1  LIG1        0.0317
     33 H         -12.3864   -2.3699    3.4900 H       1  LIG1        0.0321
     34 H         -12.8588   -2.0107    1.8236 H       1  LIG1        0.0321
     35 H         -13.2243   -4.1951    0.2463 H       1  LIG1        0.0270
     36 H         -13.5159   -5.7358    1.0527 H       1  LIG1        0.0270
     37 H         -12.8664   -4.7162    3.2421 H       1  LIG1        0.0270
     38 H         -14.2278   -3.8644    2.5153 H       1  LIG1        0.0270
     39 H          -5.6761   -1.6375   -0.4402 H       1  LIG1        0.0617
     40 H          -5.0046    0.1060    1.9519 H       1  LIG1        0.0392
     41 H          -4.7754   -1.6520    2.0168 H       1  LIG1        0.0392
     42 H          -6.6119   -2.8126    0.8278 H       1  LIG1        0.1562
@<TRIPOS>BOND
     1     1     6    1
     2     1    20    3
     3     2     3   ar
     4     2     4   ar
     5     3     5   ar
     6     4     7   ar
     7     5     9   ar
     8     6     8   ar
     9     6    11   ar
    10     7     9   ar
    11     7    13    1
    12     8    10   ar
    13     8    14    1
    14     9    23    1
    15    10    15    1
    16    10    24   ar
    17    11    21    1
    18    11    24   ar
    19    12    19    1
    20    12    21   am
    21    12    22    2
    22    13    18    1
    23    14    16    1
    24    15    17    1
    25    16    17    1
    26    18    19    1
    27    18    23    1
    28     2    25    1
    29     3    26    1
    30     4    27    1
    31     5    28    1
    32    13    29    1
    33    13    30    1
    34    14    31    1
    35    14    32    1
    36    15    33    1
    37    15    34    1
    38    16    35    1
    39    16    36    1
    40    17    37    1
    41    17    38    1
    42    18    39    1
    43    19    40    1
    44    19    41    1
    45    21    42    1
