@<TRIPOS>MOLECULE
ChEBML716346
 45 48 0 0 0
SMALL
USER_CHARGES

@<TRIPOS>ATOM
      1 C         -12.1146   -4.1002    2.0991 C.ar    1  LIG1       -0.0482
      2 C         -11.6088   -5.4765    0.1789 C.ar    1  LIG1       -0.0482
      3 C         -10.8339   -3.5507    2.0426 C.ar    1  LIG1       -0.0402
      4 C         -10.3281   -4.9269    0.1223 C.ar    1  LIG1       -0.0402
      5 C          -2.1069    0.5414   -3.4355 C.ar    1  LIG1       -0.0252
      6 C          -1.8896   -0.6669   -2.8050 C.ar    1  LIG1        0.0322
      7 C          -3.1730    1.2785   -2.9620 C.ar    1  LIG1        0.0322
      8 C          -7.7483   -1.4365    3.8018 C.ar    1  LIG1        0.1174
      9 C          -7.0210   -1.6252    1.2078 C.ar    1  LIG1        0.0157
     10 C         -12.5022   -5.0632    1.1673 C.ar    1  LIG1        0.0556
     11 C          -9.9406   -3.9639    1.0542 C.ar    1  LIG1        0.0314
     12 C          -6.4444   -0.6865    2.0648 C.ar    1  LIG1        0.0505
     13 C          -7.9933   -2.4353    1.7855 C.ar    1  LIG1        0.1285
     14 C          -3.6571   -0.3187   -1.4187 C.ar    1  LIG1        0.2161
     15 C          -6.6821   -1.7848   -0.2506 C.3     1  LIG1       -0.0067
     16 C          -5.3992    0.3063    1.6150 C.3     1  LIG1        0.0060
     17 C          -5.1899   -2.0173   -0.5077 C.3     1  LIG1        0.0185
     18 C          -4.1627   -0.3461    0.9916 C.3     1  LIG1        0.0199
     19 C         -13.8711   -5.6517    1.2272 C.3     1  LIG1        0.4160
     20 N          -2.6478   -1.1296   -1.7896 N.ar    1  LIG1       -0.2235
     21 N          -3.9720    0.8773   -1.9516 N.ar    1  LIG1       -0.2235
     22 N          -6.8015   -0.5844    3.3705 N.ar    1  LIG1       -0.2408
     23 N          -8.3784   -2.3709    3.0758 N.ar    1  LIG1       -0.2211
     24 N          -4.4466   -0.7566   -0.3897 N.pl3   1  LIG1       -0.2993
     25 N          -8.6517   -3.4094    0.9957 N.pl3   1  LIG1       -0.2993
     26 F         -14.6364   -5.1554    2.2441 F       1  LIG1       -0.1661
     27 F         -14.6058   -5.4438    0.0946 F       1  LIG1       -0.1661
     28 F         -13.8538   -7.0044    1.4090 F       1  LIG1       -0.1661
     29 H         -12.8036   -3.7732    2.8731 H       1  LIG1        0.0629
     30 H         -11.9014   -6.2273   -0.5502 H       1  LIG1        0.0629
     31 H         -10.5417   -2.8020    2.7743 H       1  LIG1        0.0642
     32 H          -9.6400   -5.2568   -0.6518 H       1  LIG1        0.0642
     33 H          -1.4840    0.8880   -4.2489 H       1  LIG1        0.0655
     34 H          -1.0746   -1.3157   -3.1077 H       1  LIG1        0.0841
     35 H          -3.4223    2.2410   -3.3957 H       1  LIG1        0.0841
     36 H          -8.0314   -1.3569    4.8441 H       1  LIG1        0.1063
     37 H          -7.2082   -2.6349   -0.6971 H       1  LIG1        0.0334
     38 H          -7.0466   -0.8996   -0.7871 H       1  LIG1        0.0334
     39 H          -5.8676    1.0270    0.9339 H       1  LIG1        0.0348
     40 H          -5.0694    0.8802    2.4907 H       1  LIG1        0.0348
     41 H          -4.7830   -2.7740    0.1747 H       1  LIG1        0.0473
     42 H          -5.0542   -2.4103   -1.5235 H       1  LIG1        0.0473
     43 H          -3.3382    0.3780    0.9802 H       1  LIG1        0.0473
     44 H          -3.8192   -1.2000    1.5887 H       1  LIG1        0.0473
     45 H          -8.0764   -3.7720    0.2444 H       1  LIG1        0.1543
@<TRIPOS>BOND
     1     1     3   ar
     2     1    10   ar
     3     2     4   ar
     4     2    10   ar
     5     3    11   ar
     6     4    11   ar
     7     5     6   ar
     8     5     7   ar
     9     6    20   ar
    10     7    21   ar
    11     8    22   ar
    12     8    23   ar
    13     9    12   ar
    14     9    13   ar
    15     9    15    1
    16    10    19    1
    17    11    25    1
    18    12    16    1
    19    12    22   ar
    20    13    23   ar
    21    13    25    1
    22    14    20   ar
    23    14    21   ar
    24    14    24    1
    25    15    17    1
    26    16    18    1
    27    17    24    1
    28    18    24    1
    29    19    26    1
    30    19    27    1
    31    19    28    1
    32     1    29    1
    33     2    30    1
    34     3    31    1
    35     4    32    1
    36     5    33    1
    37     6    34    1
    38     7    35    1
    39     8    36    1
    40    15    37    1
    41    15    38    1
    42    16    39    1
    43    16    40    1
    44    17    41    1
    45    17    42    1
    46    18    43    1
    47    18    44    1
    48    25    45    1
