@<TRIPOS>MOLECULE
ChEBML512824
 39 41 0 0 0
SMALL
USER_CHARGES

@<TRIPOS>ATOM
      1 C          -2.5427    1.0062   -3.4288 C.ar    1  LIG1       -0.0622
      2 C         -12.5340   -4.5389    0.8110 C.ar    1  LIG1       -0.0615
      3 C          -2.1786   -0.3327   -3.2860 C.ar    1  LIG1       -0.0620
      4 C          -3.4268    1.5891   -2.5209 C.ar    1  LIG1       -0.0620
      5 C         -11.5987   -5.5027    0.4395 C.ar    1  LIG1       -0.0603
      6 C         -12.1238   -3.2986    1.3131 C.ar    1  LIG1       -0.0530
      7 C          -2.6985   -1.0886   -2.2353 C.ar    1  LIG1       -0.0590
      8 C          -3.9467    0.8333   -1.4702 C.ar    1  LIG1       -0.0590
      9 C         -10.2272   -5.2592    0.5572 C.ar    1  LIG1       -0.0402
     10 C          -9.9921   -1.9139    1.8987 C.ar    1  LIG1       -0.0262
     11 C         -10.7464   -3.0303    1.4410 C.ar    1  LIG1       -0.0022
     12 C          -3.5826   -0.5057   -1.3274 C.ar    1  LIG1       -0.0479
     13 C          -9.8318   -4.0148    1.0608 C.ar    1  LIG1        0.0378
     14 C          -8.6589   -2.2364    1.7900 C.ar    1  LIG1        0.0944
     15 C          -7.5232   -1.4380    2.1275 C.2     1  LIG1        0.2572
     16 C          -4.1453   -1.3224   -0.1915 C.3     1  LIG1       -0.0264
     17 C          -4.4640   -0.5015    1.0652 C.3     1  LIG1       -0.0335
     18 C          -5.0001   -1.3215    2.2372 C.3     1  LIG1        0.0117
     19 N          -8.5724   -3.5054    1.2834 N.ar    1  LIG1       -0.3101
     20 N          -6.2413   -1.9929    1.9248 N.am    1  LIG1       -0.3103
     21 O          -7.6513   -0.2844    2.6100 O.2     1  LIG1       -0.2704
     22 H          -2.1367    1.5949   -4.2461 H       1  LIG1        0.0622
     23 H         -13.5951   -4.7512    0.7095 H       1  LIG1        0.0623
     24 H          -1.4894   -0.7866   -3.9922 H       1  LIG1        0.0623
     25 H          -3.7097    2.6318   -2.6311 H       1  LIG1        0.0623
     26 H         -11.9395   -6.4592    0.0523 H       1  LIG1        0.0623
     27 H         -12.8637   -2.5560    1.5987 H       1  LIG1        0.0629
     28 H          -2.4094   -2.1312   -2.1320 H       1  LIG1        0.0625
     29 H          -4.6350    1.2959   -0.7678 H       1  LIG1        0.0625
     30 H          -9.4993   -6.0097    0.2684 H       1  LIG1        0.0642
     31 H         -10.3870   -0.9766    2.2676 H       1  LIG1        0.0651
     32 H          -3.4628   -2.1441    0.0574 H       1  LIG1        0.0316
     33 H          -5.0665   -1.8052   -0.5429 H       1  LIG1        0.0316
     34 H          -5.2062    0.2605    0.7955 H       1  LIG1        0.0286
     35 H          -3.5673    0.0369    1.3953 H       1  LIG1        0.0286
     36 H          -5.2009   -0.6637    3.0889 H       1  LIG1        0.0467
     37 H          -4.2810   -2.0790    2.5624 H       1  LIG1        0.0467
     38 H          -7.7103   -4.0001    1.0992 H       1  LIG1        0.1529
     39 H          -6.1775   -2.9499    1.5933 H       1  LIG1        0.1497
@<TRIPOS>BOND
     1     1     3   ar
     2     1     4   ar
     3     2     5   ar
     4     2     6   ar
     5     3     7   ar
     6     4     8   ar
     7     5     9   ar
     8     6    11   ar
     9     7    12   ar
    10     8    12   ar
    11     9    13   ar
    12    10    11   ar
    13    10    14   ar
    14    11    13   ar
    15    12    16    1
    16    13    19   ar
    17    14    15    1
    18    14    19   ar
    19    15    20   am
    20    15    21    2
    21    16    17    1
    22    17    18    1
    23    18    20    1
    24     1    22    1
    25     2    23    1
    26     3    24    1
    27     4    25    1
    28     5    26    1
    29     6    27    1
    30     7    28    1
    31     8    29    1
    32     9    30    1
    33    10    31    1
    34    16    32    1
    35    16    33    1
    36    17    34    1
    37    17    35    1
    38    18    36    1
    39    18    37    1
    40    19    38    1
    41    20    39    1
