@<TRIPOS>MOLECULE
ChEBML232431
 40 42 0 0 0
SMALL
USER_CHARGES

@<TRIPOS>ATOM
      1 C          -6.7560   -1.4487   -0.5293 C.ar    1  LIG1       -0.0457
      2 C         -10.3427   -5.1744    0.4638 C.ar    1  LIG1       -0.0376
      3 C          -5.7532   -1.3567   -1.4944 C.ar    1  LIG1       -0.0309
      4 C         -11.6798   -5.5304    0.6621 C.ar    1  LIG1       -0.0299
      5 C         -12.0853   -3.5144    1.9536 C.ar    1  LIG1       -0.0226
      6 C          -9.9603   -2.0183    2.1778 C.ar    1  LIG1       -0.0275
      7 C          -4.1405   -0.8445    0.2301 C.ar    1  LIG1       -0.0007
      8 C         -10.7413   -3.1346    1.7670 C.ar    1  LIG1        0.0003
      9 C          -6.4512   -1.2386    0.8155 C.ar    1  LIG1        0.0543
     10 C          -9.9027   -3.9717    1.0279 C.ar    1  LIG1        0.0379
     11 C         -12.5395   -4.7147    1.3952 C.ar    1  LIG1        0.0753
     12 C          -4.4453   -1.0545   -1.1146 C.ar    1  LIG1        0.0772
     13 C          -5.1434   -0.9365    1.1953 C.ar    1  LIG1        0.0884
     14 C          -8.6864   -2.1960    1.6896 C.ar    1  LIG1        0.0798
     15 C          -7.5513   -1.3419    1.8418 C.2     1  LIG1        0.2092
     16 C         -14.2426   -6.3216    0.9793 C.3     1  LIG1        0.0422
     17 C          -2.1524   -0.6515   -1.5996 C.3     1  LIG1        0.0422
     18 C          -3.4634   -0.4243    2.7986 C.3     1  LIG1        0.0423
     19 N          -8.6615   -3.3769    0.9972 N.ar    1  LIG1       -0.3112
     20 O          -7.4108   -0.6213    2.8573 O.2     1  LIG1       -0.2870
     21 O         -13.8381   -5.0891    1.5713 O.3     1  LIG1       -0.3493
     22 O          -3.4672   -0.9636   -2.0570 O.3     1  LIG1       -0.3492
     23 O          -4.8251   -0.7276    2.5040 O.3     1  LIG1       -0.3484
     24 H          -7.7712   -1.6851   -0.8379 H       1  LIG1        0.0632
     25 H          -9.6743   -5.8099   -0.1073 H       1  LIG1        0.0643
     26 H          -5.9977   -1.5212   -2.5403 H       1  LIG1        0.0650
     27 H         -12.0472   -6.4603    0.2342 H       1  LIG1        0.0651
     28 H         -12.7621   -2.8834    2.5234 H       1  LIG1        0.0657
     29 H         -10.2985   -1.1769    2.7680 H       1  LIG1        0.0651
     30 H          -3.1216   -0.6062    0.5255 H       1  LIG1        0.0678
     31 H         -15.2987   -6.5010    1.1950 H       1  LIG1        0.0535
     32 H         -13.6342   -7.1363    1.3801 H       1  LIG1        0.0535
     33 H         -14.0991   -6.2605   -0.1021 H       1  LIG1        0.0535
     34 H          -1.4698   -0.6095   -2.4519 H       1  LIG1        0.0535
     35 H          -1.8212   -1.4151   -0.8914 H       1  LIG1        0.0535
     36 H          -2.1705    0.3209   -1.1020 H       1  LIG1        0.0535
     37 H          -3.3460   -0.2810    3.8757 H       1  LIG1        0.0535
     38 H          -3.1676    0.4826    2.2653 H       1  LIG1        0.0535
     39 H          -2.8353   -1.2571    2.4736 H       1  LIG1        0.0535
     40 H          -7.8511   -3.7598    0.5296 H       1  LIG1        0.1529
@<TRIPOS>BOND
     1     1     3   ar
     2     1     9   ar
     3     2     4   ar
     4     2    10   ar
     5     3    12   ar
     6     4    11   ar
     7     5     8   ar
     8     5    11   ar
     9     6     8   ar
    10     6    14   ar
    11     7    12   ar
    12     7    13   ar
    13     8    10   ar
    14     9    13   ar
    15     9    15    1
    16    10    19   ar
    17    11    21    1
    18    12    22    1
    19    13    23    1
    20    14    15    1
    21    14    19   ar
    22    15    20    2
    23    16    21    1
    24    17    22    1
    25    18    23    1
    26     1    24    1
    27     2    25    1
    28     3    26    1
    29     4    27    1
    30     5    28    1
    31     6    29    1
    32     7    30    1
    33    16    31    1
    34    16    32    1
    35    16    33    1
    36    17    34    1
    37    17    35    1
    38    17    36    1
    39    18    37    1
    40    18    38    1
    41    18    39    1
    42    19    40    1
