@<TRIPOS>MOLECULE
ChEBML205316
 65 68 0 0 0
SMALL
USER_CHARGES

@<TRIPOS>ATOM
      1 C         -10.4149   -4.7027   -0.1883 C.ar    1  LIG1       -0.0383
      2 C         -11.7690   -4.9368   -0.2533 C.ar    1  LIG1       -0.0377
      3 C          -2.4403    0.4798   -3.8581 C.ar    1  LIG1       -0.0172
      4 C         -12.1683   -3.3453    1.5084 C.ar    1  LIG1       -0.0304
      5 C         -10.0018   -2.2434    2.3920 C.ar    1  LIG1       -0.0261
      6 C          -2.7405   -0.8587   -4.0555 C.ar    1  LIG1        0.0516
      7 C         -10.7911   -3.0975    1.5843 C.ar    1  LIG1       -0.0003
      8 C          -9.9095   -3.7835    0.7271 C.ar    1  LIG1        0.0379
      9 C         -12.6479   -4.2603    0.5933 C.ar    1  LIG1        0.0437
     10 C          -2.8600    1.0746   -2.6706 C.ar    1  LIG1        0.0707
     11 C          -8.7032   -2.4143    2.0300 C.ar    1  LIG1        0.0947
     12 C          -3.5544    0.2766   -1.7506 C.ar    1  LIG1        0.1641
     13 C          -7.5540   -1.7137    2.6225 C.2     1  LIG1        0.2598
     14 C          -4.7056    0.1591    1.7048 C.3     1  LIG1       -0.0185
     15 C          -5.8436   -0.7702   -0.3182 C.3     1  LIG1       -0.0185
     16 C          -5.2079   -1.0186    2.5459 C.3     1  LIG1        0.0162
     17 C          -6.3588   -1.9585    0.5000 C.3     1  LIG1        0.0162
     18 C          -4.5061   -0.3005    0.2586 C.3     1  LIG1        0.0268
     19 C          -2.8471    3.7818   -4.4170 C.3     1  LIG1       -0.0470
     20 C          -1.1705    4.3893   -2.6671 C.3     1  LIG1       -0.0470
     21 C          -5.1438    1.6746   -0.8588 C.3     1  LIG1        0.0019
     22 C         -14.2261   -5.8559    2.8707 C.3     1  LIG1        0.0225
     23 C          -1.8653    3.2287   -3.3821 C.3     1  LIG1        0.0142
     24 N          -3.4044   -1.5299   -3.1348 N.ar    1  LIG1       -0.1570
     25 N          -3.7954   -0.9916   -2.0377 N.ar    1  LIG1       -0.1332
     26 N          -8.6353   -3.3463    1.0131 N.ar    1  LIG1       -0.3101
     27 N          -6.4157   -1.5688    1.9155 N.am    1  LIG1       -0.2966
     28 N          -2.5930    2.4174   -2.4032 N.pl3   1  LIG1       -0.3392
     29 N         -14.0225   -4.5113    0.5144 N.pl3   1  LIG1       -0.2633
     30 N          -3.9929    0.8178   -0.5438 N.pl3   1  LIG1       -0.3127
     31 O          -7.6307   -1.2650    3.7505 O.2     1  LIG1       -0.2702
     32 O         -16.0370   -5.7785    0.8898 O.2     1  LIG1       -0.4814
     33 O         -13.8735   -6.9145    0.4285 O.2     1  LIG1       -0.4814
     34 S         -14.6407   -5.9290    1.1063 S.O2    1  LIG1       -0.1957
     35 H          -9.7435   -5.2321   -0.8481 H       1  LIG1        0.0643
     36 H         -12.1550   -5.6509   -0.9657 H       1  LIG1        0.0643
     37 H          -1.8980    1.0443   -4.6021 H       1  LIG1        0.0660
     38 H         -12.8506   -2.8233    2.1628 H       1  LIG1        0.0650
     39 H         -10.3665   -1.5757    3.1585 H       1  LIG1        0.0651
     40 H          -2.4308   -1.3525   -4.9646 H       1  LIG1        0.0860
     41 H          -3.7573    0.5153    2.1074 H       1  LIG1        0.0302
     42 H          -5.4390    0.9649    1.7326 H       1  LIG1        0.0302
     43 H          -6.5663    0.0444   -0.2713 H       1  LIG1        0.0302
     44 H          -5.7054   -1.0753   -1.3554 H       1  LIG1        0.0302
     45 H          -4.4377   -1.7885    2.5935 H       1  LIG1        0.0470
     46 H          -5.4457   -0.6739    3.5522 H       1  LIG1        0.0470
     47 H          -5.6825   -2.8049    0.3809 H       1  LIG1        0.0470
     48 H          -7.3559   -2.2337    0.1565 H       1  LIG1        0.0470
     49 H          -3.7913   -1.1229    0.2344 H       1  LIG1        0.0506
     50 H          -2.3056    4.3854   -5.1454 H       1  LIG1        0.0249
     51 H          -3.3421    2.9549   -4.9264 H       1  LIG1        0.0249
     52 H          -3.5932    4.3990   -3.9164 H       1  LIG1        0.0249
     53 H          -1.9165    5.0065   -2.1665 H       1  LIG1        0.0249
     54 H          -0.4709    3.9953   -1.9299 H       1  LIG1        0.0249
     55 H          -0.6290    4.9929   -3.3955 H       1  LIG1        0.0249
     56 H          -5.6132    2.0073    0.0670 H       1  LIG1        0.0432
     57 H          -4.8067    2.5415   -1.4270 H       1  LIG1        0.0432
     58 H          -5.8654    1.1109   -1.4499 H       1  LIG1        0.0432
     59 H         -14.7611   -5.0278    3.3357 H       1  LIG1        0.0442
     60 H         -14.5154   -6.7907    3.3509 H       1  LIG1        0.0442
     61 H         -13.1527   -5.7054    2.9858 H       1  LIG1        0.0442
     62 H          -1.1192    2.6115   -3.8827 H       1  LIG1        0.0497
     63 H          -7.8237   -3.6451    0.5741 H       1  LIG1        0.1529
     64 H          -2.8893    2.8141   -1.5689 H       1  LIG1        0.1469
     65 H         -14.6132   -3.8548    0.1131 H       1  LIG1        0.1702
@<TRIPOS>BOND
     1     1     2   ar
     2     1     8   ar
     3     2     9   ar
     4     3     6   ar
     5     3    10   ar
     6     4     7   ar
     7     4     9   ar
     8     5     7   ar
     9     5    11   ar
    10     6    24   ar
    11     7     8   ar
    12     8    26   ar
    13     9    29    1
    14    10    12   ar
    15    10    28    1
    16    11    13    1
    17    11    26   ar
    18    12    25   ar
    19    12    30    1
    20    13    27   am
    21    13    31    2
    22    14    16    1
    23    14    18    1
    24    15    17    1
    25    15    18    1
    26    16    27    1
    27    17    27    1
    28    18    30    1
    29    19    23    1
    30    20    23    1
    31    21    30    1
    32    22    34    1
    33    23    28    1
    34    24    25   ar
    35    29    34    1
    36    32    34    2
    37    33    34    2
    38     1    35    1
    39     2    36    1
    40     3    37    1
    41     4    38    1
    42     5    39    1
    43     6    40    1
    44    14    41    1
    45    14    42    1
    46    15    43    1
    47    15    44    1
    48    16    45    1
    49    16    46    1
    50    17    47    1
    51    17    48    1
    52    18    49    1
    53    19    50    1
    54    19    51    1
    55    19    52    1
    56    20    53    1
    57    20    54    1
    58    20    55    1
    59    21    56    1
    60    21    57    1
    61    21    58    1
    62    22    59    1
    63    22    60    1
    64    22    61    1
    65    23    62    1
    66    26    63    1
    67    28    64    1
    68    29    65    1
