@<TRIPOS>MOLECULE
ChEBML234169
 45 48 0 0 0
SMALL
USER_CHARGES

@<TRIPOS>ATOM
      1 C         -14.1718   -4.6435    0.7087 C.1     1  LIG1        0.0991
      2 C          -2.0374    0.8439   -3.5708 C.ar    1  LIG1       -0.0621
      3 C          -3.3186    1.3663   -3.3947 C.ar    1  LIG1       -0.0604
      4 C          -1.5668   -0.1524   -2.7154 C.ar    1  LIG1       -0.0604
      5 C         -11.8981   -5.2275    0.0369 C.ar    1  LIG1       -0.0425
      6 C         -10.5158   -5.0215    0.0665 C.ar    1  LIG1       -0.0389
      7 C          -4.1293    0.8927   -2.3631 C.ar    1  LIG1       -0.0409
      8 C          -2.3774   -0.6260   -1.6838 C.ar    1  LIG1       -0.0409
      9 C         -12.2675   -3.3552    1.5386 C.ar    1  LIG1       -0.0352
     10 C         -10.0488   -2.1806    2.2473 C.ar    1  LIG1       -0.0304
     11 C         -12.7622   -4.4083    0.7608 C.ar    1  LIG1        0.0527
     12 C         -10.8776   -3.1283    1.5839 C.ar    1  LIG1       -0.0012
     13 C         -10.0355   -3.9649    0.8483 C.ar    1  LIG1        0.0377
     14 C          -3.6587   -0.1035   -1.5076 C.ar    1  LIG1        0.0289
     15 C          -8.7441   -2.4553    1.9082 C.ar    1  LIG1        0.0524
     16 C          -5.3125   -1.7159   -0.8451 C.3     1  LIG1        0.0509
     17 C          -5.0980    0.4694    0.3271 C.3     1  LIG1        0.0509
     18 C          -5.9604   -2.3158    0.3955 C.3     1  LIG1       -0.0177
     19 C          -5.7514   -0.1344    1.5639 C.3     1  LIG1       -0.0177
     20 C          -7.4644   -1.7848    2.3128 C.3     1  LIG1        0.0052
     21 N         -15.3156   -4.8344    0.6664 N.1     1  LIG1       -0.1924
     22 N          -8.7462   -3.5331    1.0638 N.ar    1  LIG1       -0.3135
     23 N          -4.4625   -0.5736   -0.4844 N.pl3   1  LIG1       -0.3203
     24 N          -6.6940   -1.2334    1.1459 N.4     1  LIG1        0.2525
     25 H          -1.4062    1.2130   -4.3740 H       1  LIG1        0.0622
     26 H          -3.6848    2.1419   -4.0606 H       1  LIG1        0.0623
     27 H          -0.5689   -0.5591   -2.8527 H       1  LIG1        0.0623
     28 H         -12.2888   -6.0450   -0.5663 H       1  LIG1        0.0637
     29 H          -9.8441   -5.6597   -0.4976 H       1  LIG1        0.0643
     30 H          -5.1261    1.3066   -2.2343 H       1  LIG1        0.0642
     31 H          -2.0001   -1.4027   -1.0234 H       1  LIG1        0.0642
     32 H         -12.9399   -2.7147    2.1043 H       1  LIG1        0.0643
     33 H         -10.3752   -1.3838    2.9020 H       1  LIG1        0.0648
     34 H          -4.7145   -2.4922   -1.3384 H       1  LIG1        0.0524
     35 H          -6.0860   -1.3936   -1.5546 H       1  LIG1        0.0524
     36 H          -5.8497    1.0002   -0.2718 H       1  LIG1        0.0524
     37 H          -4.3523    1.2065    0.6498 H       1  LIG1        0.0524
     38 H          -6.6908   -3.0829    0.1187 H       1  LIG1        0.0831
     39 H          -5.2164   -2.7449    1.0766 H       1  LIG1        0.0831
     40 H          -5.0105   -0.5744    2.2413 H       1  LIG1        0.0831
     41 H          -6.3365    0.6202    2.0998 H       1  LIG1        0.0831
     42 H          -7.6543   -0.9447    2.9894 H       1  LIG1        0.0882
     43 H          -6.7971   -2.4841    2.8280 H       1  LIG1        0.0882
     44 H          -7.9224   -3.9533    0.6556 H       1  LIG1        0.1527
     45 H          -7.3863   -0.8230    0.5041 H       1  LIG1        0.2009
@<TRIPOS>BOND
     1     1    11    1
     2     1    21    3
     3     2     3   ar
     4     2     4   ar
     5     3     7   ar
     6     4     8   ar
     7     5     6   ar
     8     5    11   ar
     9     6    13   ar
    10     7    14   ar
    11     8    14   ar
    12     9    11   ar
    13     9    12   ar
    14    10    12   ar
    15    10    15   ar
    16    12    13   ar
    17    13    22   ar
    18    14    23    1
    19    15    20    1
    20    15    22   ar
    21    16    18    1
    22    16    23    1
    23    17    19    1
    24    17    23    1
    25    18    24    1
    26    19    24    1
    27    20    24    1
    28     2    25    1
    29     3    26    1
    30     4    27    1
    31     5    28    1
    32     6    29    1
    33     7    30    1
    34     8    31    1
    35     9    32    1
    36    10    33    1
    37    16    34    1
    38    16    35    1
    39    17    36    1
    40    17    37    1
    41    18    38    1
    42    18    39    1
    43    19    40    1
    44    19    41    1
    45    20    42    1
    46    20    43    1
    47    22    44    1
    48    24    45    1
