@<TRIPOS>MOLECULE
ChEBML300262
 46 48 0 0 0
SMALL
USER_CHARGES

@<TRIPOS>ATOM
      1 C          -2.5576    1.6800   -3.6377 C.ar    1  LIG1       -0.0622
      2 C          -3.6451    0.9812   -3.1135 C.ar    1  LIG1       -0.0620
      3 C          -1.2701    1.1561   -3.5210 C.ar    1  LIG1       -0.0620
      4 C          -3.4450   -0.2414   -2.4725 C.ar    1  LIG1       -0.0590
      5 C          -1.0701   -0.0666   -2.8801 C.ar    1  LIG1       -0.0590
      6 C         -10.5139   -5.1928    0.6030 C.ar    1  LIG1       -0.0387
      7 C         -11.8547   -5.5148    0.8323 C.ar    1  LIG1       -0.0416
      8 C         -12.1876   -3.4729    2.1039 C.ar    1  LIG1       -0.0343
      9 C         -10.0245   -2.0242    2.2661 C.ar    1  LIG1       -0.0262
     10 C         -10.8391   -3.1272    1.8859 C.ar    1  LIG1       -0.0007
     11 C          -2.1576   -0.7653   -2.3557 C.ar    1  LIG1       -0.0464
     12 C         -10.0350   -3.9934    1.1419 C.ar    1  LIG1        0.0379
     13 C         -12.6804   -4.6695    1.5708 C.ar    1  LIG1        0.0413
     14 C          -8.7650   -2.2383    1.7554 C.ar    1  LIG1        0.0945
     15 C          -7.5613   -1.3763    1.8790 C.2     1  LIG1        0.2576
     16 C          -4.0977   -1.8964    0.5349 C.2     1  LIG1        0.2313
     17 C          -2.5176   -0.0769    1.2237 C.3     1  LIG1        0.0027
     18 C          -1.9405   -2.0879   -1.6623 C.3     1  LIG1       -0.0120
     19 C          -5.1591   -1.1333    1.3076 C.3     1  LIG1        0.0887
     20 C          -1.6938   -1.9407   -0.1629 C.3     1  LIG1        0.0179
     21 N          -8.7813   -3.4283    1.0788 N.ar    1  LIG1       -0.3101
     22 N          -6.4065   -1.8407    1.2570 N.am    1  LIG1       -0.3013
     23 N          -2.8193   -1.3275    0.5315 N.am    1  LIG1       -0.3033
     24 O          -7.6338   -0.3334    2.5237 O.2     1  LIG1       -0.2704
     25 O          -4.3734   -2.9512   -0.0429 O.2     1  LIG1       -0.2756
     26 CL        -14.3283   -5.1002    1.8310 Cl      1  LIG1       -0.0843
     27 H          -2.7136    2.6313   -4.1379 H       1  LIG1        0.0622
     28 H          -4.6477    1.3885   -3.2051 H       1  LIG1        0.0623
     29 H          -0.4233    1.6993   -3.9299 H       1  LIG1        0.0623
     30 H          -4.2982   -0.7787   -2.0670 H       1  LIG1        0.0625
     31 H          -0.0634   -0.4670   -2.7937 H       1  LIG1        0.0625
     32 H          -9.8719   -5.8520    0.0283 H       1  LIG1        0.0643
     33 H         -12.2442   -6.4437    0.4212 H       1  LIG1        0.0639
     34 H         -12.8304   -2.8130    2.6806 H       1  LIG1        0.0645
     35 H         -10.3312   -1.1672    2.8509 H       1  LIG1        0.0651
     36 H          -2.2033   -0.2820    2.2503 H       1  LIG1        0.0433
     37 H          -3.4027    0.5646    1.2481 H       1  LIG1        0.0433
     38 H          -1.7130    0.4554    0.7091 H       1  LIG1        0.0433
     39 H          -1.0785   -2.5857   -2.1243 H       1  LIG1        0.0332
     40 H          -2.8005   -2.7460   -1.8408 H       1  LIG1        0.0332
     41 H          -4.8725   -1.0430    2.3585 H       1  LIG1        0.0567
     42 H          -5.3207   -0.1484    0.8617 H       1  LIG1        0.0567
     43 H          -1.5433   -2.9262    0.2889 H       1  LIG1        0.0473
     44 H          -0.8073   -1.3317    0.0429 H       1  LIG1        0.0473
     45 H          -7.9893   -3.8363    0.6010 H       1  LIG1        0.1529
     46 H          -6.4156   -2.7490    0.7942 H       1  LIG1        0.1503
@<TRIPOS>BOND
     1     1     2   ar
     2     1     3   ar
     3     2     4   ar
     4     3     5   ar
     5     4    11   ar
     6     5    11   ar
     7     6     7   ar
     8     6    12   ar
     9     7    13   ar
    10     8    10   ar
    11     8    13   ar
    12     9    10   ar
    13     9    14   ar
    14    10    12   ar
    15    11    18    1
    16    12    21   ar
    17    13    26    1
    18    14    15    1
    19    14    21   ar
    20    15    22   am
    21    15    24    2
    22    16    19    1
    23    16    23   am
    24    16    25    2
    25    17    23    1
    26    18    20    1
    27    19    22    1
    28    20    23    1
    29     1    27    1
    30     2    28    1
    31     3    29    1
    32     4    30    1
    33     5    31    1
    34     6    32    1
    35     7    33    1
    36     8    34    1
    37     9    35    1
    38    17    36    1
    39    17    37    1
    40    17    38    1
    41    18    39    1
    42    18    40    1
    43    19    41    1
    44    19    42    1
    45    20    43    1
    46    20    44    1
    47    21    45    1
    48    22    46    1
