@<TRIPOS>MOLECULE
ChEBML418042
 49 53 0 0 0
SMALL
USER_CHARGES

@<TRIPOS>ATOM
      1 C          -2.7469   -1.8397    2.6224 C.ar    1  LIG1       -0.0600
      2 C          -4.1324   -1.6643    2.6455 C.ar    1  LIG1       -0.0602
      3 C          -1.9878   -1.4420    1.5147 C.ar    1  LIG1       -0.0344
      4 C          -4.8090   -1.0867    1.5660 C.ar    1  LIG1       -0.0383
      5 C         -10.1533   -5.2925    0.7963 C.ar    1  LIG1       -0.0373
      6 C         -11.4768   -5.7355    0.8738 C.ar    1  LIG1       -0.0244
      7 C         -12.2391   -3.5249    1.5294 C.ar    1  LIG1       -0.0171
      8 C         -10.2937   -1.7941    1.6832 C.ar    1  LIG1       -0.0261
      9 C         -10.9124   -3.0556    1.4580 C.ar    1  LIG1        0.0007
     10 C          -2.6511   -0.8601    0.4212 C.ar    1  LIG1        0.0864
     11 C          -9.9022   -3.9484    1.0939 C.ar    1  LIG1        0.0380
     12 C          -4.0327   -0.6983    0.4736 C.ar    1  LIG1        0.0603
     13 C         -12.5052   -4.8670    1.2344 C.ar    1  LIG1        0.1235
     14 C          -8.9449   -1.9427    1.4559 C.ar    1  LIG1        0.0947
     15 C          -3.1950    0.0490   -1.4328 C.ar    1  LIG1        0.1014
     16 C          -7.9149   -0.9575    1.5554 C.2     1  LIG1        0.2598
     17 C          -6.4084   -0.9146   -1.8301 C.3     1  LIG1       -0.0166
     18 C          -6.9743   -1.7126   -0.6613 C.3     1  LIG1        0.0164
     19 C          -6.5989    0.5609    0.0331 C.3     1  LIG1        0.0336
     20 C          -5.6808    0.2600   -1.1579 C.3     1  LIG1        0.0463
     21 C          -1.8432    0.4444   -3.5071 C.3     1  LIG1       -0.0585
     22 C          -3.1766    0.6512   -2.7817 C.3     1  LIG1        0.0008
     23 N          -2.1484   -0.3900   -0.7704 N.ar    1  LIG1       -0.2357
     24 N          -8.7185   -3.2455    1.1007 N.ar    1  LIG1       -0.3101
     25 N          -4.3533   -0.1147   -0.7251 N.ar    1  LIG1       -0.2824
     26 N          -7.2067   -0.7172    0.3824 N.am    1  LIG1       -0.2948
     27 O          -7.6794   -0.3719    2.6132 O.2     1  LIG1       -0.2702
     28 F         -13.7644   -5.3210    1.2996 F       1  LIG1       -0.2069
     29 H          -2.2492   -2.2904    3.4771 H       1  LIG1        0.0623
     30 H          -4.6967   -1.9829    3.5187 H       1  LIG1        0.0623
     31 H          -0.9117   -1.5820    1.5071 H       1  LIG1        0.0646
     32 H          -5.8844   -0.9501    1.5851 H       1  LIG1        0.0643
     33 H          -9.3530   -5.9694    0.5156 H       1  LIG1        0.0644
     34 H         -11.7064   -6.7741    0.6497 H       1  LIG1        0.0654
     35 H         -13.0505   -2.8590    1.8086 H       1  LIG1        0.0660
     36 H         -10.7864   -0.8779    1.9799 H       1  LIG1        0.0651
     37 H          -5.7660   -1.5244   -2.4731 H       1  LIG1        0.0302
     38 H          -7.2334   -0.5259   -2.4401 H       1  LIG1        0.0302
     39 H          -7.9003   -2.2347   -0.9192 H       1  LIG1        0.0470
     40 H          -6.2485   -2.4388   -0.2795 H       1  LIG1        0.0470
     41 H          -6.0836    0.9890    0.8991 H       1  LIG1        0.0489
     42 H          -7.4128    1.2337   -0.2596 H       1  LIG1        0.0489
     43 H          -5.5538    1.1210   -1.8192 H       1  LIG1        0.0527
     44 H          -1.0124    0.8411   -2.9137 H       1  LIG1        0.0235
     45 H          -1.8380    0.9497   -4.4780 H       1  LIG1        0.0235
     46 H          -1.6553   -0.6210   -3.6781 H       1  LIG1        0.0235
     47 H          -3.9860    0.2379   -3.4134 H       1  LIG1        0.0343
     48 H          -3.3847    1.7375   -2.7356 H       1  LIG1        0.0343
     49 H          -7.8144   -3.6381    0.8763 H       1  LIG1        0.1529
@<TRIPOS>BOND
     1     1     2   ar
     2     1     3   ar
     3     2     4   ar
     4     3    10   ar
     5     4    12   ar
     6     5     6   ar
     7     5    11   ar
     8     6    13   ar
     9     7     9   ar
    10     7    13   ar
    11     8     9   ar
    12     8    14   ar
    13     9    11   ar
    14    10    12   ar
    15    10    23   ar
    16    11    24   ar
    17    12    25   ar
    18    13    28    1
    19    14    16    1
    20    14    24   ar
    21    15    22    1
    22    15    23   ar
    23    15    25   ar
    24    16    26   am
    25    16    27    2
    26    17    18    1
    27    17    20    1
    28    18    26    1
    29    19    20    1
    30    19    26    1
    31    20    25    1
    32    21    22    1
    33     1    29    1
    34     2    30    1
    35     3    31    1
    36     4    32    1
    37     5    33    1
    38     6    34    1
    39     7    35    1
    40     8    36    1
    41    17    37    1
    42    17    38    1
    43    18    39    1
    44    18    40    1
    45    19    41    1
    46    19    42    1
    47    20    43    1
    48    21    44    1
    49    21    45    1
    50    21    46    1
    51    22    47    1
    52    22    48    1
    53    24    49    1
