@<TRIPOS>MOLECULE
ChEBML300225
 43 45 0 0 0
SMALL
USER_CHARGES

@<TRIPOS>ATOM
      1 C         -10.1968   -5.1366    0.3770 C.ar    1  LIG1       -0.0387
      2 C         -11.5226   -5.5463    0.5448 C.ar    1  LIG1       -0.0416
      3 C         -12.0066   -3.6102    1.9284 C.ar    1  LIG1       -0.0343
      4 C          -9.9352   -2.0568    2.2455 C.ar    1  LIG1       -0.0262
      5 C         -10.6747   -3.1772    1.7735 C.ar    1  LIG1       -0.0007
      6 C          -9.8023   -3.9488    1.0029 C.ar    1  LIG1        0.0379
      7 C         -12.4153   -4.7964    1.3081 C.ar    1  LIG1        0.0413
      8 C          -8.6521   -2.1679    1.7617 C.ar    1  LIG1        0.0945
      9 C          -7.5036   -1.2500    1.9749 C.2     1  LIG1        0.2576
     10 C          -4.2538   -0.9857    0.2443 C.2     1  LIG1        0.2316
     11 C          -2.4618   -0.2858   -3.5890 C.3     1  LIG1       -0.0515
     12 C          -3.6989    0.6096   -3.7006 C.3     1  LIG1       -0.0515
     13 C          -2.3522   -0.6716   -2.1162 C.3     1  LIG1       -0.0345
     14 C          -4.2697    0.7181   -2.2891 C.3     1  LIG1       -0.0345
     15 C          -3.0633    0.4657   -1.3928 C.3     1  LIG1        0.0250
     16 C          -2.8908    0.9935    1.0085 C.3     1  LIG1        0.0031
     17 C          -5.1047   -0.8384    1.4933 C.3     1  LIG1        0.0887
     18 N          -8.5818   -3.3121    1.0131 N.ar    1  LIG1       -0.3101
     19 N          -6.3077   -1.6095    1.3613 N.am    1  LIG1       -0.3013
     20 N          -3.4266    0.1244   -0.0482 N.am    1  LIG1       -0.3005
     21 O          -7.6533   -0.2554    2.6798 O.2     1  LIG1       -0.2704
     22 O          -4.3059   -2.0126   -0.4378 O.2     1  LIG1       -0.2756
     23 CL        -14.0423   -5.3334    1.4905 Cl      1  LIG1       -0.0843
     24 H          -9.5027   -5.7217   -0.2171 H       1  LIG1        0.0643
     25 H         -11.8469   -6.4677    0.0657 H       1  LIG1        0.0639
     26 H         -12.7015   -3.0246    2.5245 H       1  LIG1        0.0645
     27 H         -10.3064   -1.2566    2.8721 H       1  LIG1        0.0651
     28 H          -2.5398   -1.1713   -4.2277 H       1  LIG1        0.0267
     29 H          -1.5717    0.2707   -3.9047 H       1  LIG1        0.0267
     30 H          -3.4077    1.5990   -4.0721 H       1  LIG1        0.0267
     31 H          -4.4365    0.2007   -4.3983 H       1  LIG1        0.0267
     32 H          -2.8611   -1.6279   -1.9405 H       1  LIG1        0.0285
     33 H          -1.3126   -0.7867   -1.7939 H       1  LIG1        0.0285
     34 H          -4.7333    1.6921   -2.1029 H       1  LIG1        0.0285
     35 H          -5.0399   -0.0487   -2.1378 H       1  LIG1        0.0285
     36 H          -2.4242    1.3557   -1.3507 H       1  LIG1        0.0506
     37 H          -1.9237    0.6161    1.3508 H       1  LIG1        0.0433
     38 H          -3.5780    1.0227    1.8585 H       1  LIG1        0.0433
     39 H          -2.7579    2.0105    0.6301 H       1  LIG1        0.0433
     40 H          -4.5655   -1.2142    2.3667 H       1  LIG1        0.0567
     41 H          -5.3964    0.2054    1.6348 H       1  LIG1        0.0567
     42 H          -7.7550   -3.6446    0.5358 H       1  LIG1        0.1529
     43 H          -6.2520   -2.4859    0.8435 H       1  LIG1        0.1503
@<TRIPOS>BOND
     1     1     2   ar
     2     1     6   ar
     3     2     7   ar
     4     3     5   ar
     5     3     7   ar
     6     4     5   ar
     7     4     8   ar
     8     5     6   ar
     9     6    18   ar
    10     7    23    1
    11     8     9    1
    12     8    18   ar
    13     9    19   am
    14     9    21    2
    15    10    17    1
    16    10    20   am
    17    10    22    2
    18    11    12    1
    19    11    13    1
    20    12    14    1
    21    13    15    1
    22    14    15    1
    23    15    20    1
    24    16    20    1
    25    17    19    1
    26     1    24    1
    27     2    25    1
    28     3    26    1
    29     4    27    1
    30    11    28    1
    31    11    29    1
    32    12    30    1
    33    12    31    1
    34    13    32    1
    35    13    33    1
    36    14    34    1
    37    14    35    1
    38    15    36    1
    39    16    37    1
    40    16    38    1
    41    16    39    1
    42    17    40    1
    43    17    41    1
    44    18    42    1
    45    19    43    1
