@<TRIPOS>MOLECULE
ChEBML968318
 47 49 0 0 0
SMALL
USER_CHARGES

@<TRIPOS>ATOM
      1 C         -12.2986   -4.5698    0.7123 C.ar    1  LIG1       -0.0615
      2 C         -11.3536   -5.4525    0.1937 C.ar    1  LIG1       -0.0603
      3 C         -11.9060   -3.3543    1.2842 C.ar    1  LIG1       -0.0527
      4 C          -9.9893   -5.1504    0.2282 C.ar    1  LIG1       -0.0402
      5 C         -10.5363   -3.0286    1.3340 C.ar    1  LIG1        0.0010
      6 C          -9.7912   -1.9242    1.8199 C.ar    1  LIG1       -0.0138
      7 C          -9.6088   -3.9323    0.8029 C.ar    1  LIG1        0.0380
      8 C          -8.4573   -2.1717    1.5893 C.ar    1  LIG1        0.0556
      9 C          -7.4351   -1.2324    1.9644 C.2     1  LIG1        0.0564
     10 C         -10.1919   -0.6461    2.4540 C.3     1  LIG1       -0.0056
     11 C          -9.0494   -0.1345    3.3480 C.3     1  LIG1        0.0435
     12 C          -2.7408    2.8761   -4.7220 C.3     1  LIG1       -0.0654
     13 C          -6.0536   -1.4074    1.4291 C.3     1  LIG1       -0.0090
     14 C          -2.8960    2.1331   -3.4046 C.3     1  LIG1       -0.0562
     15 C          -5.7959   -0.6283    0.1370 C.3     1  LIG1       -0.0477
     16 C          -2.5342    0.6542   -3.5493 C.3     1  LIG1       -0.0536
     17 C          -4.3535   -0.7600   -0.3650 C.3     1  LIG1       -0.0529
     18 C          -2.7292   -0.0949   -2.2293 C.3     1  LIG1       -0.0533
     19 C          -4.1518    0.0110   -1.6722 C.3     1  LIG1       -0.0533
     20 N          -7.6992   -0.2305    2.7401 N.2     1  LIG1       -0.2874
     21 N          -8.3537   -3.3809    0.9626 N.ar    1  LIG1       -0.3127
     22 H         -13.3540   -4.8266    0.6725 H       1  LIG1        0.0623
     23 H         -11.6816   -6.3910   -0.2462 H       1  LIG1        0.0623
     24 H         -12.6544   -2.6760    1.6838 H       1  LIG1        0.0630
     25 H          -9.2553   -5.8376   -0.1789 H       1  LIG1        0.0642
     26 H         -10.3972    0.0897    1.6669 H       1  LIG1        0.0336
     27 H         -11.1052   -0.7631    3.0465 H       1  LIG1        0.0336
     28 H          -9.2397    0.9135    3.6044 H       1  LIG1        0.0518
     29 H          -9.0338   -0.6939    4.2920 H       1  LIG1        0.0518
     30 H          -3.3754    2.4226   -5.4899 H       1  LIG1        0.0230
     31 H          -3.0326    3.9259   -4.6170 H       1  LIG1        0.0230
     32 H          -1.7045    2.8401   -5.0727 H       1  LIG1        0.0230
     33 H          -5.8666   -2.4740    1.2608 H       1  LIG1        0.0332
     34 H          -5.3444   -1.0735    2.1949 H       1  LIG1        0.0332
     35 H          -2.2537    2.6015   -2.6498 H       1  LIG1        0.0264
     36 H          -3.9309    2.2314   -3.0567 H       1  LIG1        0.0264
     37 H          -6.4909   -0.9611   -0.6440 H       1  LIG1        0.0270
     38 H          -6.0147    0.4304    0.3245 H       1  LIG1        0.0270
     39 H          -1.4921    0.5720   -3.8780 H       1  LIG1        0.0266
     40 H          -3.1583    0.1981   -4.3272 H       1  LIG1        0.0266
     41 H          -3.6642   -0.3772    0.3973 H       1  LIG1        0.0267
     42 H          -4.1151   -1.8176   -0.5194 H       1  LIG1        0.0267
     43 H          -2.4633   -1.1509   -2.3599 H       1  LIG1        0.0266
     44 H          -2.0390    0.3137   -1.4806 H       1  LIG1        0.0266
     45 H          -4.3717    1.0721   -1.4999 H       1  LIG1        0.0266
     46 H          -4.8683   -0.3415   -2.4241 H       1  LIG1        0.0266
     47 H          -7.4907   -3.8157    0.6660 H       1  LIG1        0.1528
@<TRIPOS>BOND
     1     1     2   ar
     2     1     3   ar
     3     2     4   ar
     4     3     5   ar
     5     4     7   ar
     6     5     6   ar
     7     5     7   ar
     8     6     8   ar
     9     6    10    1
    10     7    21   ar
    11     8     9    1
    12     8    21   ar
    13     9    13    1
    14     9    20    2
    15    10    11    1
    16    11    20    1
    17    12    14    1
    18    13    15    1
    19    14    16    1
    20    15    17    1
    21    16    18    1
    22    17    19    1
    23    18    19    1
    24     1    22    1
    25     2    23    1
    26     3    24    1
    27     4    25    1
    28    10    26    1
    29    10    27    1
    30    11    28    1
    31    11    29    1
    32    12    30    1
    33    12    31    1
    34    12    32    1
    35    13    33    1
    36    13    34    1
    37    14    35    1
    38    14    36    1
    39    15    37    1
    40    15    38    1
    41    16    39    1
    42    16    40    1
    43    17    41    1
    44    17    42    1
    45    18    43    1
    46    18    44    1
    47    19    45    1
    48    19    46    1
    49    21    47    1
