@<TRIPOS>MOLECULE
ChEBML584940
 45 48 0 0 0
SMALL
USER_CHARGES

@<TRIPOS>ATOM
      1 C         -10.2653   -5.1223    0.3974 C.ar    1  LIG1       -0.0386
      2 C         -11.6051   -5.4490    0.6244 C.ar    1  LIG1       -0.0416
      3 C         -11.9137   -3.4712    1.9981 C.ar    1  LIG1       -0.0321
      4 C          -8.9889   -0.1532    3.1813 C.ar    1  LIG1        0.1180
      5 C         -10.5653   -3.1209    1.7839 C.ar    1  LIG1        0.0251
      6 C          -9.7381   -2.0434    2.2079 C.ar    1  LIG1        0.0989
      7 C          -9.7729   -3.9532    0.9892 C.ar    1  LIG1        0.0401
      8 C          -8.4719   -2.2393    1.6684 C.ar    1  LIG1        0.0979
      9 C         -12.4184   -4.6376    1.4123 C.ar    1  LIG1        0.0414
     10 C          -7.4572   -1.3331    1.9215 C.ar    1  LIG1        0.1430
     11 C          -2.9458   -1.4128   -1.9132 C.3     1  LIG1       -0.0101
     12 C          -2.9839    1.0694   -2.0489 C.3     1  LIG1       -0.0101
     13 C          -2.0141   -1.3999   -3.1131 C.3     1  LIG1        0.0859
     14 C          -2.0498    0.9542   -3.2416 C.3     1  LIG1        0.0859
     15 C          -4.1310   -0.5765    0.4327 C.3     1  LIG1        0.0019
     16 C          -5.0903   -0.6032    1.6197 C.3     1  LIG1        0.0148
     17 C          -4.8171   -0.1387   -0.8553 C.3     1  LIG1       -0.0326
     18 N         -10.0384   -0.9779    2.9925 N.ar    1  LIG1       -0.2341
     19 N          -7.7313   -0.2641    2.6996 N.ar    1  LIG1       -0.2197
     20 N          -8.5134   -3.3965    0.9364 N.ar    1  LIG1       -0.3097
     21 N          -6.1710   -1.5145    1.3850 N.pl3   1  LIG1       -0.3276
     22 N          -3.8351   -0.1844   -1.9664 N.4     1  LIG1        0.2494
     23 O          -1.2274   -0.2077   -3.1238 O.3     1  LIG1       -0.3705
     24 CL        -14.0655   -5.0724    1.6708 Cl      1  LIG1       -0.0843
     25 H          -9.6329   -5.7544   -0.2169 H       1  LIG1        0.0643
     26 H         -12.0041   -6.3536    0.1706 H       1  LIG1        0.0639
     27 H         -12.5479   -2.8371    2.6120 H       1  LIG1        0.0646
     28 H          -9.1786    0.7147    3.8033 H       1  LIG1        0.1063
     29 H          -3.5977   -2.2915   -1.9231 H       1  LIG1        0.0839
     30 H          -2.3907   -1.3616   -0.9701 H       1  LIG1        0.0839
     31 H          -2.4292    1.1373   -1.1066 H       1  LIG1        0.0839
     32 H          -3.6628    1.9211   -2.1537 H       1  LIG1        0.0839
     33 H          -1.3268   -2.2498   -3.0568 H       1  LIG1        0.0622
     34 H          -2.5666   -1.4832   -4.0566 H       1  LIG1        0.0622
     35 H          -2.6027    0.9182   -4.1879 H       1  LIG1        0.0622
     36 H          -1.3890    1.8258   -3.2799 H       1  LIG1        0.0622
     37 H          -3.6793   -1.5673    0.2959 H       1  LIG1        0.0337
     38 H          -3.3128    0.1175    0.6622 H       1  LIG1        0.0337
     39 H          -4.5521   -0.9226    2.5180 H       1  LIG1        0.0468
     40 H          -5.4897    0.3980    1.8130 H       1  LIG1        0.0468
     41 H          -5.6390   -0.8035   -1.1359 H       1  LIG1        0.0815
     42 H          -5.1801    0.8916   -0.7958 H       1  LIG1        0.0815
     43 H          -7.7319   -3.7889    0.4295 H       1  LIG1        0.1530
     44 H          -6.0225   -2.3264    0.8118 H       1  LIG1        0.1480
     45 H          -4.3672   -0.2410   -2.8520 H       1  LIG1        0.2005
@<TRIPOS>BOND
     1     1     2   ar
     2     1     7   ar
     3     2     9   ar
     4     3     5   ar
     5     3     9   ar
     6     4    18   ar
     7     4    19   ar
     8     5     6   ar
     9     5     7   ar
    10     6     8   ar
    11     6    18   ar
    12     7    20   ar
    13     8    10   ar
    14     8    20   ar
    15     9    24    1
    16    10    19   ar
    17    10    21    1
    18    11    13    1
    19    11    22    1
    20    12    14    1
    21    12    22    1
    22    13    23    1
    23    14    23    1
    24    15    16    1
    25    15    17    1
    26    16    21    1
    27    17    22    1
    28     1    25    1
    29     2    26    1
    30     3    27    1
    31     4    28    1
    32    11    29    1
    33    11    30    1
    34    12    31    1
    35    12    32    1
    36    13    33    1
    37    13    34    1
    38    14    35    1
    39    14    36    1
    40    15    37    1
    41    15    38    1
    42    16    39    1
    43    16    40    1
    44    17    41    1
    45    17    42    1
    46    20    43    1
    47    21    44    1
    48    22    45    1
