@<TRIPOS>MOLECULE
ChEBML232440
 51 55 0 0 0
SMALL
USER_CHARGES

@<TRIPOS>ATOM
      1 C         -12.6645   -4.8056    1.2613 C.ar    1  LIG1       -0.0615
      2 C          -1.5104    0.0142   -3.4542 C.ar    1  LIG1       -0.0614
      3 C          -5.3634   -3.7118   -4.6215 C.ar    1  LIG1       -0.0614
      4 C         -11.7466   -5.5983    0.5751 C.ar    1  LIG1       -0.0603
      5 C          -1.8718    1.3539   -3.3627 C.ar    1  LIG1       -0.0603
      6 C          -5.0154   -4.9995   -4.2140 C.ar    1  LIG1       -0.0593
      7 C         -12.2636   -3.6130    1.8745 C.ar    1  LIG1       -0.0530
      8 C          -2.2925   -0.9612   -2.8371 C.ar    1  LIG1       -0.0509
      9 C          -5.1411   -2.6275   -3.7724 C.ar    1  LIG1       -0.0498
     10 C         -10.4026   -5.2265    0.4796 C.ar    1  LIG1       -0.0402
     11 C          -2.9960    1.7224   -2.6241 C.ar    1  LIG1       -0.0400
     12 C          -4.4451   -5.2031   -2.9574 C.ar    1  LIG1       -0.0256
     13 C         -10.1754   -2.1032    2.2793 C.ar    1  LIG1       -0.0262
     14 C         -10.9137   -3.2176    1.7917 C.ar    1  LIG1       -0.0022
     15 C          -3.4385   -0.6003   -2.1094 C.ar    1  LIG1        0.0218
     16 C          -4.5708   -2.8311   -2.5158 C.ar    1  LIG1        0.0361
     17 C         -10.0162   -4.0318    1.0975 C.ar    1  LIG1        0.0378
     18 C          -3.7638    0.7566   -1.9562 C.ar    1  LIG1        0.0420
     19 C          -4.2228   -4.1189   -2.1083 C.ar    1  LIG1        0.1321
     20 C          -8.8682   -2.2596    1.8795 C.ar    1  LIG1        0.0944
     21 C          -4.3390   -1.6890   -1.6269 C.2     1  LIG1        0.0777
     22 C          -5.4378    0.6144   -0.1052 C.2     1  LIG1        0.2424
     23 C          -7.7112   -1.3648    2.1398 C.2     1  LIG1        0.2573
     24 C          -4.7156   -0.6035    0.4439 C.3     1  LIG1        0.1427
     25 C          -5.2771   -1.0264    1.7980 C.3     1  LIG1        0.0427
     26 N          -4.9381   -1.6956   -0.4858 N.2     1  LIG1       -0.2692
     27 N          -8.7821   -3.4256    1.1671 N.ar    1  LIG1       -0.3101
     28 N          -4.8426    1.2353   -1.1847 N.am    1  LIG1       -0.2829
     29 N          -6.4810   -1.7654    1.6128 N.am    1  LIG1       -0.3076
     30 O          -6.4536    1.0701    0.4228 O.2     1  LIG1       -0.2747
     31 O          -7.8776   -0.3477    2.8076 O.2     1  LIG1       -0.2704
     32 F          -3.6742   -4.3271   -0.9027 F       1  LIG1       -0.2062
     33 H         -13.7045   -5.1154    1.3212 H       1  LIG1        0.0623
     34 H          -0.6322   -0.2746   -4.0241 H       1  LIG1        0.0623
     35 H          -5.8077   -3.5532   -5.5997 H       1  LIG1        0.0623
     36 H         -12.0798   -6.5207    0.1067 H       1  LIG1        0.0623
     37 H          -1.2740    2.1141   -3.8567 H       1  LIG1        0.0623
     38 H          -5.1882   -5.8437   -4.8750 H       1  LIG1        0.0623
     39 H         -12.9897   -3.0042    2.4059 H       1  LIG1        0.0629
     40 H          -2.0059   -2.0035   -2.9539 H       1  LIG1        0.0630
     41 H          -5.4163   -1.6286   -4.1010 H       1  LIG1        0.0631
     42 H          -9.6881   -5.8441   -0.0542 H       1  LIG1        0.0642
     43 H          -3.2478    2.7783   -2.5479 H       1  LIG1        0.0642
     44 H          -4.1739   -6.2057   -2.6399 H       1  LIG1        0.0653
     45 H         -10.5635   -1.2771    2.8604 H       1  LIG1        0.0651
     46 H          -3.6497   -0.3822    0.5806 H       1  LIG1        0.0670
     47 H          -5.4881   -0.1388    2.3806 H       1  LIG1        0.0494
     48 H          -4.5500   -1.6484    2.3033 H       1  LIG1        0.0494
     49 H          -7.9364   -3.7918    0.7519 H       1  LIG1        0.1529
     50 H          -5.1752    2.1711   -1.4036 H       1  LIG1        0.1557
     51 H          -6.4253   -2.6624    1.1214 H       1  LIG1        0.1498
@<TRIPOS>BOND
     1     1     4   ar
     2     1     7   ar
     3     2     5   ar
     4     2     8   ar
     5     3     6   ar
     6     3     9   ar
     7     4    10   ar
     8     5    11   ar
     9     6    12   ar
    10     7    14   ar
    11     8    15   ar
    12     9    16   ar
    13    10    17   ar
    14    11    18   ar
    15    12    19   ar
    16    13    14   ar
    17    13    20   ar
    18    14    17   ar
    19    15    18   ar
    20    15    21    1
    21    16    19   ar
    22    16    21    1
    23    17    27   ar
    24    18    28    1
    25    19    32    1
    26    20    23    1
    27    20    27   ar
    28    21    26    2
    29    22    24    1
    30    22    28   am
    31    22    30    2
    32    23    29   am
    33    23    31    2
    34    24    25    1
    35    24    26    1
    36    25    29    1
    37     1    33    1
    38     2    34    1
    39     3    35    1
    40     4    36    1
    41     5    37    1
    42     6    38    1
    43     7    39    1
    44     8    40    1
    45     9    41    1
    46    10    42    1
    47    11    43    1
    48    12    44    1
    49    13    45    1
    50    24    46    1
    51    25    47    1
    52    25    48    1
    53    27    49    1
    54    28    50    1
    55    29    51    1
