@<TRIPOS>MOLECULE
ChEBML578483
 66 68 0 0 0
SMALL
USER_CHARGES

@<TRIPOS>ATOM
      1 C         -10.3670   -4.5148    0.7361 C.ar    1  LIG1       -0.0370
      2 C         -11.6568   -5.0462    0.8216 C.ar    1  LIG1       -0.0377
      3 C         -12.2861   -3.2862    2.3443 C.ar    1  LIG1       -0.0165
      4 C         -10.0144   -3.3622    1.4518 C.ar    1  LIG1        0.0520
      5 C         -12.6150   -4.4320    1.6257 C.ar    1  LIG1        0.0449
      6 C         -10.9931   -2.7672    2.2478 C.ar    1  LIG1        0.0637
      7 C          -8.9608   -0.9476    2.8316 C.2     1  LIG1        0.0270
      8 C          -6.8663   -1.3683    1.7524 C.2     1  LIG1        0.0444
      9 C          -8.2328   -1.7216    1.9969 C.2     1  LIG1        0.0558
     10 C          -5.9552   -0.9107    2.6310 C.2     1  LIG1       -0.1289
     11 C          -6.2541   -1.4206    0.4095 C.2     1  LIG1        0.2467
     12 C          -4.6179   -0.6617    1.9376 C.3     1  LIG1        0.0376
     13 C          -3.1523   -1.1822    3.9042 C.3     1  LIG1       -0.0581
     14 C          -2.2265   -1.3235    1.5785 C.3     1  LIG1       -0.0581
     15 C          -3.8919   -3.0222    2.3700 C.3     1  LIG1       -0.0581
     16 C          -2.3446    1.0588   -2.4052 C.3     1  LIG1       -0.0601
     17 C          -4.3596    1.2629   -3.8830 C.3     1  LIG1       -0.0601
     18 C          -3.3266   -0.9754   -3.4733 C.3     1  LIG1       -0.0601
     19 C         -14.3745   -4.1916   -0.8183 C.3     1  LIG1        0.0225
     20 C          -4.5812    0.1331   -1.6101 C.3     1  LIG1       -0.0324
     21 C          -4.0274   -0.8169   -0.5492 C.3     1  LIG1        0.0155
     22 C          -3.4748   -1.5453    2.4464 C.3     1  LIG1       -0.0169
     23 C          -3.6596    0.3858   -2.8318 C.3     1  LIG1       -0.0367
     24 N          -8.7186   -2.8467    1.3529 N.pl3   1  LIG1       -0.3119
     25 N          -4.9472   -0.9673    0.5475 N.am    1  LIG1       -0.2917
     26 N         -13.9316   -4.9770    1.7115 N.pl3   1  LIG1       -0.2632
     27 O          -5.9739   -0.6308    3.8595 O.2     1  LIG1       -0.8288
     28 O          -6.8280   -1.7791   -0.6058 O.2     1  LIG1       -0.2716
     29 O         -11.4448   -0.2623    2.6161 O.2     1  LIG1       -0.4897
     30 O         -10.7251   -1.6925    4.5687 O.2     1  LIG1       -0.4897
     31 O         -13.8659   -6.6740   -0.2297 O.2     1  LIG1       -0.4814
     32 O         -16.0964   -5.7113    0.4361 O.2     1  LIG1       -0.4814
     33 S         -10.6164   -1.3161    3.1716 S.O2    1  LIG1       -0.2071
     34 S         -14.6635   -5.5693    0.2693 S.O2    1  LIG1       -0.1957
     35 H          -9.6355   -5.0116    0.1025 H       1  LIG1        0.0644
     36 H         -11.9017   -5.9415    0.2553 H       1  LIG1        0.0643
     37 H         -13.0304   -2.8032    2.9726 H       1  LIG1        0.0662
     38 H          -8.5351   -0.0737    3.3139 H       1  LIG1        0.0808
     39 H          -4.3381    0.3991    1.9845 H       1  LIG1        0.0546
     40 H          -2.3363   -1.7992    4.2971 H       1  LIG1        0.0237
     41 H          -4.0243   -1.3319    4.5508 H       1  LIG1        0.0237
     42 H          -2.8487   -0.1330    3.9918 H       1  LIG1        0.0237
     43 H          -1.3916   -1.9450    1.9213 H       1  LIG1        0.0237
     44 H          -2.4233   -1.5783    0.5311 H       1  LIG1        0.0237
     45 H          -1.8993   -0.2782    1.6113 H       1  LIG1        0.0237
     46 H          -3.0906   -3.6779    2.7289 H       1  LIG1        0.0237
     47 H          -4.1279   -3.3166    1.3412 H       1  LIG1        0.0237
     48 H          -4.7794   -3.2141    2.9837 H       1  LIG1        0.0237
     49 H          -1.8104    0.4671   -1.6547 H       1  LIG1        0.0236
     50 H          -2.5318    2.0451   -1.9650 H       1  LIG1        0.0236
     51 H          -1.6768    1.1993   -3.2623 H       1  LIG1        0.0236
     52 H          -5.3040    0.8208   -4.2169 H       1  LIG1        0.0236
     53 H          -4.5930    2.2538   -3.4765 H       1  LIG1        0.0236
     54 H          -3.7241    1.4064   -4.7640 H       1  LIG1        0.0236
     55 H          -4.2367   -1.4947   -3.7947 H       1  LIG1        0.0236
     56 H          -2.8025   -1.6301   -2.7679 H       1  LIG1        0.0236
     57 H          -2.6837   -0.8521   -4.3523 H       1  LIG1        0.0236
     58 H         -14.7957   -4.4305   -1.7961 H       1  LIG1        0.0442
     59 H         -14.8623   -3.3116   -0.3965 H       1  LIG1        0.0442
     60 H         -13.2978   -4.0328   -0.8942 H       1  LIG1        0.0442
     61 H          -4.8139    1.0942   -1.1308 H       1  LIG1        0.0288
     62 H          -5.5449   -0.2611   -1.9618 H       1  LIG1        0.0288
     63 H          -3.0905   -0.4461   -0.1255 H       1  LIG1        0.0470
     64 H          -3.8575   -1.8168   -0.9574 H       1  LIG1        0.0470
     65 H          -8.0691   -3.3418    0.7520 H       1  LIG1        0.1529
     66 H         -14.5691   -4.4511    2.3324 H       1  LIG1        0.1702
@<TRIPOS>BOND
     1     1     2   ar
     2     1     4   ar
     3     2     5   ar
     4     3     5   ar
     5     3     6   ar
     6     4     6   ar
     7     4    24    1
     8     5    26    1
     9     6    33    1
    10     7     9    2
    11     7    33    1
    12     8     9    1
    13     8    10    2
    14     8    11    1
    15     9    24    1
    16    10    12    1
    17    10    27    1
    18    11    25   am
    19    11    28    2
    20    12    22    1
    21    12    25    1
    22    13    22    1
    23    14    22    1
    24    15    22    1
    25    16    23    1
    26    17    23    1
    27    18    23    1
    28    19    34    1
    29    20    21    1
    30    20    23    1
    31    21    25    1
    32    26    34    1
    33    29    33    2
    34    30    33    2
    35    31    34    2
    36    32    34    2
    37     1    35    1
    38     2    36    1
    39     3    37    1
    40     7    38    1
    41    12    39    1
    42    13    40    1
    43    13    41    1
    44    13    42    1
    45    14    43    1
    46    14    44    1
    47    14    45    1
    48    15    46    1
    49    15    47    1
    50    15    48    1
    51    16    49    1
    52    16    50    1
    53    16    51    1
    54    17    52    1
    55    17    53    1
    56    17    54    1
    57    18    55    1
    58    18    56    1
    59    18    57    1
    60    19    58    1
    61    19    59    1
    62    19    60    1
    63    20    61    1
    64    20    62    1
    65    21    63    1
    66    21    64    1
    67    24    65    1
    68    26    66    1
