@<TRIPOS>MOLECULE
ChEBML703373
 43 47 0 0 0
SMALL
USER_CHARGES

@<TRIPOS>ATOM
      1 C         -11.5542   -5.2881    0.4180 C.ar    1  LIG1       -0.0600
      2 C         -12.3306   -4.6272    1.3583 C.ar    1  LIG1       -0.0602
      3 C         -10.2755   -4.8591    0.1415 C.ar    1  LIG1       -0.0344
      4 C         -11.8321   -3.5298    2.0295 C.ar    1  LIG1       -0.0385
      5 C          -6.4862   -1.7223   -0.3183 C.ar    1  LIG1       -0.0381
      6 C          -5.1331   -0.9705    1.5224 C.ar    1  LIG1       -0.0381
      7 C          -5.3602   -1.7987   -1.1137 C.ar    1  LIG1       -0.0293
      8 C          -4.0072   -1.0525    0.7272 C.ar    1  LIG1       -0.0293
      9 C          -0.6525    1.0827   -4.4498 C.ar    1  LIG1       -0.0201
     10 C          -0.0122   -0.0705   -4.1810 C.ar    1  LIG1       -0.0021
     11 C          -3.8901    1.6390   -2.6920 C.ar    1  LIG1        0.1187
     12 C          -9.7554   -3.7495    0.8129 C.ar    1  LIG1        0.0879
     13 C          -1.8769    1.0872   -3.6560 C.ar    1  LIG1        0.0920
     14 C         -10.5461   -3.0840    1.7642 C.ar    1  LIG1        0.0586
     15 C          -1.8788   -0.1252   -2.9412 C.ar    1  LIG1        0.1094
     16 C          -6.3759   -1.3078    1.0027 C.ar    1  LIG1        0.0326
     17 C          -4.1188   -1.4615   -0.5938 C.ar    1  LIG1        0.0842
     18 C          -2.9567   -0.3874   -2.0926 C.ar    1  LIG1        0.1977
     19 C          -8.5686   -2.0995    1.6040 C.ar    1  LIG1        0.1877
     20 C          -0.3386   -2.1123   -2.7562 C.3     1  LIG1        0.0049
     21 N          -2.8948    1.9362   -3.4985 N.ar    1  LIG1       -0.2347
     22 N          -3.9283    0.5136   -2.0011 N.ar    1  LIG1       -0.2105
     23 N          -8.5621   -3.1020    0.7611 N.ar    1  LIG1       -0.2171
     24 N          -9.7690   -2.0471    2.2535 N.ar    1  LIG1       -0.2852
     25 N          -0.7299   -0.8012   -3.2799 N.ar    1  LIG1       -0.3050
     26 N          -7.5173   -1.2298    1.8097 N.pl3   1  LIG1       -0.2870
     27 O          -3.0105   -1.5374   -1.3776 O.3     1  LIG1       -0.2899
     28 H         -11.9558   -6.1456   -0.1015 H       1  LIG1        0.0623
     29 H         -13.3322   -4.9736    1.5661 H       1  LIG1        0.0623
     30 H          -9.6765   -5.3782   -0.5920 H       1  LIG1        0.0646
     31 H         -12.4419   -3.0191    2.7600 H       1  LIG1        0.0643
     32 H          -7.4524   -1.9845   -0.7232 H       1  LIG1        0.0643
     33 H          -5.0466   -0.6482    2.5495 H       1  LIG1        0.0643
     34 H          -5.4458   -2.1206   -2.1411 H       1  LIG1        0.0651
     35 H          -3.0401   -0.7941    1.1325 H       1  LIG1        0.0651
     36 H          -0.3224    1.8580   -5.1253 H       1  LIG1        0.0659
     37 H           0.9298   -0.3724   -4.6143 H       1  LIG1        0.0792
     38 H          -4.7025    2.3427   -2.5861 H       1  LIG1        0.1063
     39 H          -0.7391   -2.8950   -3.4005 H       1  LIG1        0.0436
     40 H           0.7487   -2.1836   -2.7307 H       1  LIG1        0.0436
     41 H          -0.7345   -2.2337   -1.7480 H       1  LIG1        0.0436
     42 H         -10.0297   -1.4022    2.9296 H       1  LIG1        0.1557
     43 H          -7.5690   -0.5642    2.5135 H       1  LIG1        0.1556
@<TRIPOS>BOND
     1     1     2   ar
     2     1     3   ar
     3     2     4   ar
     4     3    12   ar
     5     4    14   ar
     6     5     7   ar
     7     5    16   ar
     8     6     8   ar
     9     6    16   ar
    10     7    17   ar
    11     8    17   ar
    12     9    10   ar
    13     9    13   ar
    14    10    25   ar
    15    11    21   ar
    16    11    22   ar
    17    12    14   ar
    18    12    23   ar
    19    13    15   ar
    20    13    21   ar
    21    14    24   ar
    22    15    18   ar
    23    15    25   ar
    24    16    26    1
    25    17    27    1
    26    18    22   ar
    27    18    27    1
    28    19    23   ar
    29    19    24   ar
    30    19    26    1
    31    20    25    1
    32     1    28    1
    33     2    29    1
    34     3    30    1
    35     4    31    1
    36     5    32    1
    37     6    33    1
    38     7    34    1
    39     8    35    1
    40     9    36    1
    41    10    37    1
    42    11    38    1
    43    20    39    1
    44    20    40    1
    45    20    41    1
    46    24    42    1
    47    26    43    1
