@<TRIPOS>MOLECULE
ChEBML307355
 56 60 0 0 0
SMALL
USER_CHARGES

@<TRIPOS>ATOM
      1 C         -11.3886   -1.9595    1.6152 C.ar    1  LIG1       -0.0525
      2 C         -10.3702   -5.5172    1.9079 C.ar    1  LIG1       -0.0528
      3 C          -1.3390    0.8810   -3.0396 C.ar    1  LIG1       -0.0496
      4 C         -10.1615   -1.3121    1.7610 C.ar    1  LIG1       -0.0389
      5 C         -11.5974   -6.1646    1.7623 C.ar    1  LIG1       -0.0429
      6 C          -1.8589   -0.3138   -2.5575 C.ar    1  LIG1       -0.0304
      7 C          -9.0625   -3.4476    2.0053 C.ar    1  LIG1       -0.0317
      8 C         -12.6963   -4.0291    1.5180 C.ar    1  LIG1       -0.0356
      9 C         -10.2892   -4.1159    1.8606 C.ar    1  LIG1       -0.0164
     10 C         -11.4697   -3.3608    1.6627 C.ar    1  LIG1       -0.0168
     11 C          -2.1322    2.0299   -3.0599 C.ar    1  LIG1        0.0175
     12 C          -9.0006   -2.0546    1.9556 C.ar    1  LIG1        0.0551
     13 C         -12.7582   -5.4220    1.5677 C.ar    1  LIG1        0.0412
     14 C          -3.1653   -0.3138   -2.1029 C.ar    1  LIG1        0.1259
     15 C          -3.4368    1.9329   -2.5659 C.ar    1  LIG1        0.0549
     16 C          -3.7616   -1.5348   -1.5891 C.2     1  LIG1        0.2642
     17 C          -1.5723    3.3348   -3.5416 C.3     1  LIG1       -0.0082
     18 C          -4.3553    3.1283   -2.5927 C.3     1  LIG1        0.0294
     19 C          -5.8162   -2.3881   -0.4931 C.3     1  LIG1        0.0316
     20 C          -4.7899   -0.3416    0.4076 C.3     1  LIG1        0.0316
     21 C          -7.1778   -1.7008   -0.5196 C.3     1  LIG1        0.0411
     22 C          -6.1418    0.3623    0.3768 C.3     1  LIG1        0.0411
     23 C          -3.6080    4.4543   -2.6428 C.3     1  LIG1       -0.0301
     24 N          -3.9656    0.7752   -2.0979 N.ar    1  LIG1       -0.2471
     25 N          -4.7408   -1.4020   -0.6081 N.am    1  LIG1       -0.2932
     26 N          -7.2291   -0.6505    0.5432 N.3     1  LIG1       -0.2737
     27 N          -2.6122    4.3938   -3.7543 N.4     1  LIG1        0.2421
     28 O          -3.3483   -2.5902   -2.0673 O.2     1  LIG1       -0.2698
     29 O          -7.6453   -0.1093    3.0291 O.2     1  LIG1       -0.4762
     30 O          -6.4432   -2.2367    2.4149 O.2     1  LIG1       -0.4762
     31 S          -7.4490   -1.2335    2.1394 S.O2    1  LIG1       -0.1657
     32 CL        -14.2711   -6.2230    1.3882 Cl      1  LIG1       -0.0843
     33 H         -12.2831   -1.3588    1.4637 H       1  LIG1        0.0630
     34 H          -9.4757   -6.1180    2.0592 H       1  LIG1        0.0630
     35 H          -0.3136    0.9136   -3.3977 H       1  LIG1        0.0629
     36 H         -10.1242   -0.2267    1.7204 H       1  LIG1        0.0642
     37 H         -11.6311   -7.2503    1.8034 H       1  LIG1        0.0638
     38 H          -1.2493   -1.2111   -2.5414 H       1  LIG1        0.0647
     39 H          -8.1481   -4.0181    2.1589 H       1  LIG1        0.0648
     40 H         -13.6090   -3.4553    1.3638 H       1  LIG1        0.0645
     41 H          -0.8695    3.7359   -2.8032 H       1  LIG1        0.0869
     42 H          -1.0626    3.2166   -4.5031 H       1  LIG1        0.0869
     43 H          -5.0032    3.0353   -3.4732 H       1  LIG1        0.0387
     44 H          -5.0028    3.1133   -1.7084 H       1  LIG1        0.0387
     45 H          -5.6699   -2.9182    0.4556 H       1  LIG1        0.0486
     46 H          -5.7525   -3.1253   -1.2998 H       1  LIG1        0.0486
     47 H          -3.9911    0.3901    0.2646 H       1  LIG1        0.0486
     48 H          -4.6274   -0.8215    1.3803 H       1  LIG1        0.0486
     49 H          -7.3546   -1.2350   -1.4964 H       1  LIG1        0.0499
     50 H          -7.9607   -2.4446   -0.3384 H       1  LIG1        0.0499
     51 H          -6.1892    1.0887    1.1950 H       1  LIG1        0.0499
     52 H          -6.2811    0.8914   -0.5731 H       1  LIG1        0.0499
     53 H          -4.2823    5.2888   -2.8557 H       1  LIG1        0.0818
     54 H          -3.0544    4.6598   -1.7200 H       1  LIG1        0.0818
     55 H          -2.1525    5.3083   -3.8617 H       1  LIG1        0.1986
     56 H          -3.1032    4.2213   -4.6427 H       1  LIG1        0.1986
@<TRIPOS>BOND
     1     1     4   ar
     2     1    10   ar
     3     2     5   ar
     4     2     9   ar
     5     3     6   ar
     6     3    11   ar
     7     4    12   ar
     8     5    13   ar
     9     6    14   ar
    10     7     9   ar
    11     7    12   ar
    12     8    10   ar
    13     8    13   ar
    14     9    10   ar
    15    11    15   ar
    16    11    17    1
    17    12    31    1
    18    13    32    1
    19    14    16    1
    20    14    24   ar
    21    15    18    1
    22    15    24   ar
    23    16    25   am
    24    16    28    2
    25    17    27    1
    26    18    23    1
    27    19    21    1
    28    19    25    1
    29    20    22    1
    30    20    25    1
    31    21    26    1
    32    22    26    1
    33    23    27    1
    34    26    31    1
    35    29    31    2
    36    30    31    2
    37     1    33    1
    38     2    34    1
    39     3    35    1
    40     4    36    1
    41     5    37    1
    42     6    38    1
    43     7    39    1
    44     8    40    1
    45    17    41    1
    46    17    42    1
    47    18    43    1
    48    18    44    1
    49    19    45    1
    50    19    46    1
    51    20    47    1
    52    20    48    1
    53    21    49    1
    54    21    50    1
    55    22    51    1
    56    22    52    1
    57    23    53    1
    58    23    54    1
    59    27    55    1
    60    27    56    1
