@<TRIPOS>MOLECULE
ChEBML440136
 38 40 0 0 0
SMALL
USER_CHARGES

@<TRIPOS>ATOM
      1 C          -2.8256   -0.3143   -2.8445 C.ar    1  LIG1       -0.0622
      2 C          -4.0326    0.3679   -2.6909 C.ar    1  LIG1       -0.0619
      3 C          -2.3796   -1.1768   -1.8430 C.ar    1  LIG1       -0.0619
      4 C         -10.9842   -1.9102    2.6099 C.ar    1  LIG1       -0.0519
      5 C          -4.7934    0.1878   -1.5357 C.ar    1  LIG1       -0.0575
      6 C          -3.1404   -1.3569   -0.6879 C.ar    1  LIG1       -0.0575
      7 C          -9.6303   -1.5660    2.5730 C.ar    1  LIG1       -0.0390
      8 C         -12.7781   -3.5875    1.7870 C.ar    1  LIG1       -0.0344
      9 C          -9.1668   -3.4512    1.1306 C.ar    1  LIG1       -0.0250
     10 C         -11.4555   -3.0415    1.9007 C.ar    1  LIG1       -0.0102
     11 C          -4.3473   -0.6746   -0.5341 C.ar    1  LIG1       -0.0295
     12 C          -8.7330   -2.3299    1.8404 C.ar    1  LIG1        0.0441
     13 C         -10.5322   -3.7955    1.1699 C.ar    1  LIG1        0.0216
     14 C         -12.8270   -4.7105    0.9956 C.ar    1  LIG1        0.0775
     15 C         -13.9552   -5.5159    0.6568 C.2     1  LIG1        0.2724
     16 C          -5.1635   -0.8682    0.7064 C.3     1  LIG1        0.0589
     17 N          -7.3519   -1.9663    1.8097 N.pl3   1  LIG1       -0.2627
     18 N         -15.2045   -5.1544    1.1764 N.am    1  LIG1       -0.1935
     19 O         -13.8515   -6.5195   -0.0960 O.2     1  LIG1       -0.2690
     20 O          -6.0617   -3.1863   -0.0598 O.2     1  LIG1       -0.4808
     21 O          -7.3750   -1.1249   -0.6689 O.2     1  LIG1       -0.4808
     22 O         -16.3107   -5.9430    0.8282 O.3     1  LIG1       -0.2964
     23 S         -11.2930   -5.1257    0.3794 S.2     1  LIG1       -0.0837
     24 S          -6.5700   -1.8700    0.2787 S.O2    1  LIG1       -0.1886
     25 H          -2.2341   -0.1750   -3.7447 H       1  LIG1        0.0622
     26 H          -4.3806    1.0386   -3.4711 H       1  LIG1        0.0623
     27 H          -1.4406   -1.7089   -1.9628 H       1  LIG1        0.0623
     28 H         -11.6756   -1.3013    3.1870 H       1  LIG1        0.0630
     29 H          -5.7324    0.7236   -1.4245 H       1  LIG1        0.0626
     30 H          -2.7849   -2.0307    0.0872 H       1  LIG1        0.0626
     31 H          -9.2918   -0.6935    3.1260 H       1  LIG1        0.0643
     32 H         -13.6505   -3.1651    2.2713 H       1  LIG1        0.0643
     33 H          -8.4637   -4.0500    0.5567 H       1  LIG1        0.0655
     34 H          -5.5303    0.0805    1.1080 H       1  LIG1        0.0530
     35 H          -4.6023   -1.3857    1.4896 H       1  LIG1        0.0530
     36 H          -6.7837   -2.3977    2.5570 H       1  LIG1        0.1702
     37 H         -15.3057   -4.3501    1.7836 H       1  LIG1        0.1839
     38 H         -15.8787   -6.6024    0.2590 H       1  LIG1        0.2427
@<TRIPOS>BOND
     1     1     2   ar
     2     1     3   ar
     3     2     5   ar
     4     3     6   ar
     5     4     7   ar
     6     4    10   ar
     7     5    11   ar
     8     6    11   ar
     9     7    12   ar
    10     8    10   ar
    11     8    14   ar
    12     9    12   ar
    13     9    13   ar
    14    10    13   ar
    15    11    16    1
    16    12    17    1
    17    13    23   ar
    18    14    15    1
    19    14    23   ar
    20    15    18   am
    21    15    19    2
    22    16    24    1
    23    17    24    1
    24    18    22    1
    25    20    24    2
    26    21    24    2
    27     1    25    1
    28     2    26    1
    29     3    27    1
    30     4    28    1
    31     5    29    1
    32     6    30    1
    33     7    31    1
    34     8    32    1
    35     9    33    1
    36    16    34    1
    37    16    35    1
    38    17    36    1
    39    18    37    1
    40    22    38    1
