@<TRIPOS>MOLECULE
ChEBML209088
 41 44 0 0 0
SMALL
USER_CHARGES

@<TRIPOS>ATOM
      1 C         -12.1610   -5.1799    0.5043 C.ar    1  LIG1       -0.0600
      2 C         -12.9316   -4.2137    1.1554 C.ar    1  LIG1       -0.0602
      3 C         -10.7646   -5.0817    0.4637 C.ar    1  LIG1       -0.0344
      4 C         -12.3374   -3.1169    1.7882 C.ar    1  LIG1       -0.0385
      5 C          -2.0254    0.5319   -3.4731 C.ar    1  LIG1       -0.0252
      6 C          -1.8936   -0.6979   -2.8614 C.ar    1  LIG1        0.0322
      7 C          -3.0471    1.3287   -2.9981 C.ar    1  LIG1        0.0322
      8 C         -10.1509   -3.9861    1.0941 C.ar    1  LIG1        0.0864
      9 C         -10.9454   -3.0396    1.7350 C.ar    1  LIG1        0.0575
     10 C          -8.7957   -2.5391    1.8876 C.ar    1  LIG1        0.1434
     11 C          -3.6508   -0.2591   -1.4876 C.ar    1  LIG1        0.2165
     12 C          -5.2515   -1.8892   -0.7429 C.3     1  LIG1        0.0537
     13 C          -5.2255    0.4164    0.1946 C.3     1  LIG1        0.0537
     14 C          -5.9387   -2.3928    0.5192 C.3     1  LIG1       -0.0175
     15 C          -5.9177   -0.0917    1.4531 C.3     1  LIG1       -0.0175
     16 C          -7.5804   -1.7539    2.2845 C.3     1  LIG1        0.0233
     17 N          -2.6918   -1.1273   -1.8619 N.ar    1  LIG1       -0.2235
     18 N          -3.8819    0.9634   -2.0031 N.ar    1  LIG1       -0.2235
     19 N          -8.8185   -3.6586    1.1996 N.ar    1  LIG1       -0.2303
     20 N         -10.0523   -2.1260    2.2333 N.ar    1  LIG1       -0.2969
     21 N          -4.4874   -0.6662   -0.4637 N.pl3   1  LIG1       -0.2896
     22 N          -6.7730   -1.2834    1.1074 N.4     1  LIG1        0.2537
     23 H         -12.6521   -6.0214    0.0220 H       1  LIG1        0.0623
     24 H         -14.0142   -4.3148    1.1698 H       1  LIG1        0.0623
     25 H         -10.1751   -5.8383   -0.0439 H       1  LIG1        0.0646
     26 H         -12.9338   -2.3666    2.2948 H       1  LIG1        0.0643
     27 H          -1.3721    0.8511   -4.2740 H       1  LIG1        0.0655
     28 H          -1.1188   -1.3930   -3.1667 H       1  LIG1        0.0841
     29 H          -3.2289    2.3123   -3.4177 H       1  LIG1        0.0841
     30 H          -4.5842   -2.6758   -1.1163 H       1  LIG1        0.0525
     31 H          -5.9977   -1.6906   -1.5234 H       1  LIG1        0.0525
     32 H          -5.9678    0.8350   -0.4976 H       1  LIG1        0.0525
     33 H          -4.5412    1.2270    0.4745 H       1  LIG1        0.0525
     34 H          -6.6088   -3.2273    0.2889 H       1  LIG1        0.0831
     35 H          -5.2143   -2.7022    1.2816 H       1  LIG1        0.0831
     36 H          -5.1956   -0.4126    2.2128 H       1  LIG1        0.0831
     37 H          -6.5735    0.6786    1.8719 H       1  LIG1        0.0831
     38 H          -7.8554   -0.8601    2.8548 H       1  LIG1        0.0899
     39 H          -6.9082   -2.3536    2.9076 H       1  LIG1        0.0899
     40 H         -10.2848   -1.2959    2.7625 H       1  LIG1        0.1542
     41 H          -7.4471   -0.9853    0.3888 H       1  LIG1        0.2009
@<TRIPOS>BOND
     1     1     2   ar
     2     1     3   ar
     3     2     4   ar
     4     3     8   ar
     5     4     9   ar
     6     5     6   ar
     7     5     7   ar
     8     6    17   ar
     9     7    18   ar
    10     8     9   ar
    11     8    19   ar
    12     9    20   ar
    13    10    16    1
    14    10    19   ar
    15    10    20   ar
    16    11    17   ar
    17    11    18   ar
    18    11    21    1
    19    12    14    1
    20    12    21    1
    21    13    15    1
    22    13    21    1
    23    14    22    1
    24    15    22    1
    25    16    22    1
    26     1    23    1
    27     2    24    1
    28     3    25    1
    29     4    26    1
    30     5    27    1
    31     6    28    1
    32     7    29    1
    33    12    30    1
    34    12    31    1
    35    13    32    1
    36    13    33    1
    37    14    34    1
    38    14    35    1
    39    15    36    1
    40    15    37    1
    41    16    38    1
    42    16    39    1
    43    20    40    1
    44    22    41    1
