@<TRIPOS>MOLECULE
ChEBML1249782
 42 45 0 0 0
SMALL
USER_CHARGES

@<TRIPOS>ATOM
      1 C          -4.1667   -1.7598   -0.8906 C.ar    1  LIG1       -0.0525
      2 C          -3.6471    0.5228   -0.2933 C.ar    1  LIG1       -0.0525
      3 C         -10.4238   -5.2446    0.4513 C.ar    1  LIG1       -0.0376
      4 C         -11.7652   -5.5775    0.6608 C.ar    1  LIG1       -0.0302
      5 C          -3.1774   -1.7280   -1.8733 C.ar    1  LIG1       -0.0407
      6 C          -2.6577    0.5547   -1.2761 C.ar    1  LIG1       -0.0407
      7 C         -12.1286   -3.5478    1.9435 C.ar    1  LIG1       -0.0229
      8 C          -9.9779   -2.0857    2.1446 C.ar    1  LIG1       -0.0309
      9 C          -6.5560   -1.4636    0.7725 C.ar    1  LIG1       -0.0421
     10 C          -5.3131    0.0963    2.0682 C.ar    1  LIG1        0.0347
     11 C          -7.3194   -0.6726    2.8814 C.ar    1  LIG1        0.0359
     12 C         -10.7799   -3.1913    1.7455 C.ar    1  LIG1        0.0002
     13 C          -4.4016   -0.6345   -0.1005 C.ar    1  LIG1       -0.0167
     14 C          -5.4255   -0.6672    0.9174 C.ar    1  LIG1        0.0007
     15 C          -7.5259   -1.4720    1.7686 C.ar    1  LIG1        0.0147
     16 C          -9.9603   -4.0462    1.0055 C.ar    1  LIG1        0.0379
     17 C         -12.6062   -4.7437    1.3951 C.ar    1  LIG1        0.0720
     18 C          -2.4229   -0.5707   -2.0661 C.ar    1  LIG1        0.0357
     19 C          -8.7105   -2.2871    1.6486 C.ar    1  LIG1        0.0398
     20 C           0.2857   -1.0842   -2.4586 C.3     1  LIG1        0.0099
     21 N          -6.2343    0.1141    3.0575 N.ar    1  LIG1       -0.2633
     22 N          -8.7097   -3.4721    0.9628 N.ar    1  LIG1       -0.3139
     23 O          -1.5226   -1.5235   -4.3058 O.2     1  LIG1       -0.4944
     24 O          -0.9526    0.8515   -3.6890 O.2     1  LIG1       -0.4944
     25 O         -13.9100   -5.0943    1.5817 O.3     1  LIG1       -0.3609
     26 S          -1.1834   -0.5317   -3.2952 S.O2    1  LIG1       -0.2348
     27 H          -4.7466   -2.6692   -0.7526 H       1  LIG1        0.0630
     28 H          -3.8181    1.4085    0.3141 H       1  LIG1        0.0630
     29 H          -9.7699   -5.8945   -0.1203 H       1  LIG1        0.0643
     30 H         -12.1517   -6.5037    0.2416 H       1  LIG1        0.0651
     31 H          -3.0024   -2.6099   -2.4835 H       1  LIG1        0.0641
     32 H          -2.0759    1.4611   -1.4185 H       1  LIG1        0.0641
     33 H         -12.7904   -2.9015    2.5133 H       1  LIG1        0.0657
     34 H         -10.2991   -1.2355    2.7321 H       1  LIG1        0.0650
     35 H          -6.6815   -2.0772   -0.1178 H       1  LIG1        0.0637
     36 H          -4.4553    0.7400    2.2407 H       1  LIG1        0.0846
     37 H          -8.0381   -0.6341    3.6952 H       1  LIG1        0.0847
     38 H           1.1097   -1.0849   -3.1738 H       1  LIG1        0.0429
     39 H           0.4930   -0.3969   -1.6369 H       1  LIG1        0.0429
     40 H           0.1076   -2.0915   -2.0792 H       1  LIG1        0.0429
     41 H          -7.9100   -3.8728    0.4916 H       1  LIG1        0.1528
     42 H         -14.3658   -4.4195    2.1086 H       1  LIG1        0.2182
@<TRIPOS>BOND
     1     1     5   ar
     2     1    13   ar
     3     2     6   ar
     4     2    13   ar
     5     3     4   ar
     6     3    16   ar
     7     4    17   ar
     8     5    18   ar
     9     6    18   ar
    10     7    12   ar
    11     7    17   ar
    12     8    12   ar
    13     8    19   ar
    14     9    14   ar
    15     9    15   ar
    16    10    14   ar
    17    10    21   ar
    18    11    15   ar
    19    11    21   ar
    20    12    16   ar
    21    13    14    1
    22    15    19    1
    23    16    22   ar
    24    17    25    1
    25    18    26    1
    26    19    22   ar
    27    20    26    1
    28    23    26    2
    29    24    26    2
    30     1    27    1
    31     2    28    1
    32     3    29    1
    33     4    30    1
    34     5    31    1
    35     6    32    1
    36     7    33    1
    37     8    34    1
    38     9    35    1
    39    10    36    1
    40    11    37    1
    41    20    38    1
    42    20    39    1
    43    20    40    1
    44    22    41    1
    45    25    42    1
