@<TRIPOS>MOLECULE
ChEBML596783
 51 55 0 0 0
SMALL
USER_CHARGES

@<TRIPOS>ATOM
      1 C         -12.4826   -4.7370    0.4525 C.ar    1  LIG1       -0.0616
      2 C         -11.4046   -5.5319    0.0742 C.ar    1  LIG1       -0.0616
      3 C         -12.2714   -3.5964    1.2276 C.ar    1  LIG1       -0.0544
      4 C         -10.1113   -5.1891    0.4696 C.ar    1  LIG1       -0.0544
      5 C         -10.7454   -2.0917    2.4151 C.ar    1  LIG1       -0.0541
      6 C          -9.4521   -1.7490    2.8105 C.ar    1  LIG1       -0.0581
      7 C          -2.0030   -2.3722   -1.6242 C.ar    1  LIG1       -0.0340
      8 C          -8.5852   -3.6845    1.6572 C.ar    1  LIG1       -0.0509
      9 C          -0.9331   -2.5229   -2.4809 C.ar    1  LIG1       -0.0049
     10 C          -3.2359    1.2073   -3.0406 C.ar    1  LIG1        0.1194
     11 C         -10.9764   -3.2363    1.6347 C.ar    1  LIG1       -0.0184
     12 C          -9.8802   -4.0446    1.2501 C.ar    1  LIG1       -0.0181
     13 C          -2.6270   -1.1368   -1.9341 C.ar    1  LIG1        0.0566
     14 C          -8.3741   -2.5439    2.4323 C.ar    1  LIG1       -0.0415
     15 C          -1.9088   -0.5714   -2.9807 C.ar    1  LIG1        0.1339
     16 C          -3.7196   -0.4107   -1.4622 C.ar    1  LIG1        0.1326
     17 C          -4.7796   -1.2818    1.9973 C.3     1  LIG1        0.0081
     18 C          -6.6882   -1.6568    0.4029 C.3     1  LIG1        0.0081
     19 C          -4.0444   -0.4873    0.9158 C.3     1  LIG1        0.0184
     20 C          -5.9391   -0.8608   -0.6687 C.3     1  LIG1        0.0184
     21 C          -6.3057   -1.2590    1.8347 C.3     1  LIG1       -0.0090
     22 C          -6.9817   -2.1730    2.8590 C.3     1  LIG1        0.0173
     23 N          -2.1596    0.6035   -3.5843 N.ar    1  LIG1       -0.2206
     24 N          -4.0240    0.7799   -2.0284 N.ar    1  LIG1       -0.2207
     25 N          -0.8859   -1.4243   -3.3004 N.ar    1  LIG1       -0.3054
     26 N          -4.4938   -0.8943   -0.4222 N.pl3   1  LIG1       -0.3147
     27 N          -6.7997    0.1316    2.0990 N.4     1  LIG1        0.2355
     28 H         -13.4889   -5.0047    0.1444 H       1  LIG1        0.0623
     29 H         -11.5699   -6.4198   -0.5288 H       1  LIG1        0.0623
     30 H         -13.1291   -2.9898    1.5112 H       1  LIG1        0.0629
     31 H          -9.2835   -5.8253    0.1626 H       1  LIG1        0.0629
     32 H         -11.5732   -1.4559    2.7225 H       1  LIG1        0.0629
     33 H          -9.2964   -0.8590    3.4145 H       1  LIG1        0.0626
     34 H          -2.2952   -3.0803   -0.8609 H       1  LIG1        0.0645
     35 H          -7.7331   -4.2975    1.3678 H       1  LIG1        0.0632
     36 H          -0.2029   -3.3136   -2.5799 H       1  LIG1        0.0790
     37 H          -3.5063    2.1648   -3.4726 H       1  LIG1        0.1063
     38 H          -4.4341   -2.3237    1.9515 H       1  LIG1        0.0343
     39 H          -4.4883   -0.9026    2.9850 H       1  LIG1        0.0343
     40 H          -7.7686   -1.5469    0.2446 H       1  LIG1        0.0343
     41 H          -6.4614   -2.7221    0.2589 H       1  LIG1        0.0343
     42 H          -4.2035    0.5893    1.0546 H       1  LIG1        0.0471
     43 H          -2.9677   -0.6716    1.0228 H       1  LIG1        0.0471
     44 H          -6.1647   -1.3023   -1.6480 H       1  LIG1        0.0471
     45 H          -6.2931    0.1773   -0.6931 H       1  LIG1        0.0471
     46 H          -7.0077   -1.6702    3.8300 H       1  LIG1        0.0377
     47 H          -6.3771   -3.0744    2.9932 H       1  LIG1        0.0377
     48 H          -0.2017   -1.2673   -4.0273 H       1  LIG1        0.1537
     49 H          -7.7669    0.2257    1.7889 H       1  LIG1        0.1968
     50 H          -6.2259    0.8090    1.5960 H       1  LIG1        0.1968
     51 H          -6.7528    0.3374    3.0970 H       1  LIG1        0.1968
@<TRIPOS>BOND
     1     1     2   ar
     2     1     3   ar
     3     2     4   ar
     4     3    11   ar
     5     4    12   ar
     6     5     6   ar
     7     5    11   ar
     8     6    14   ar
     9     7     9   ar
    10     7    13   ar
    11     8    12   ar
    12     8    14   ar
    13     9    25   ar
    14    10    23   ar
    15    10    24   ar
    16    11    12   ar
    17    13    15   ar
    18    13    16   ar
    19    14    22    1
    20    15    23   ar
    21    15    25   ar
    22    16    24   ar
    23    16    26    1
    24    17    19    1
    25    17    21    1
    26    18    20    1
    27    18    21    1
    28    19    26    1
    29    20    26    1
    30    21    22    1
    31    21    27    1
    32     1    28    1
    33     2    29    1
    34     3    30    1
    35     4    31    1
    36     5    32    1
    37     6    33    1
    38     7    34    1
    39     8    35    1
    40     9    36    1
    41    10    37    1
    42    17    38    1
    43    17    39    1
    44    18    40    1
    45    18    41    1
    46    19    42    1
    47    19    43    1
    48    20    44    1
    49    20    45    1
    50    22    46    1
    51    22    47    1
    52    25    48    1
    53    27    49    1
    54    27    50    1
    55    27    51    1
