@<TRIPOS>MOLECULE
ChEBML348108
 52 55 0 0 0
SMALL
USER_CHARGES

@<TRIPOS>ATOM
      1 C          -4.4555   -1.7343   -2.1899 C.ar    1  LIG1       -0.0504
      2 C         -10.3022   -5.1668    0.4560 C.ar    1  LIG1       -0.0376
      3 C          -3.2442   -1.1007   -2.4909 C.ar    1  LIG1       -0.0311
      4 C         -11.6375   -5.5330    0.6479 C.ar    1  LIG1       -0.0299
      5 C         -12.0632   -3.5228    1.9421 C.ar    1  LIG1       -0.0226
      6 C          -6.3174   -1.8644   -0.3677 C.ar    1  LIG1       -0.0276
      7 C          -9.9501   -2.0118    2.1785 C.ar    1  LIG1       -0.0275
      8 C          -3.3162    0.1448   -0.4057 C.ar    1  LIG1       -0.0098
      9 C          -5.1099   -1.4269   -0.9805 C.ar    1  LIG1       -0.0021
     10 C         -10.7212   -3.1329    1.7619 C.ar    1  LIG1        0.0003
     11 C          -9.8734   -3.9622    1.0246 C.ar    1  LIG1        0.0379
     12 C          -4.5264   -0.4964   -0.1180 C.ar    1  LIG1        0.0404
     13 C         -12.5062   -4.7252    1.3790 C.ar    1  LIG1        0.0760
     14 C          -2.6852   -0.1760   -1.6111 C.ar    1  LIG1        0.0765
     15 C          -6.4410   -1.2035    0.8327 C.ar    1  LIG1        0.0811
     16 C          -8.6728   -2.1793    1.6952 C.ar    1  LIG1        0.0811
     17 C          -7.5447   -1.3171    1.8540 C.2     1  LIG1        0.2206
     18 C         -15.4187   -3.7637   -1.1307 C.3     1  LIG1       -0.0456
     19 C         -17.5753   -3.8399    0.1118 C.3     1  LIG1       -0.0456
     20 C          -0.9054    0.0620   -3.1704 C.3     1  LIG1        0.0422
     21 C         -15.8780   -5.6299    0.4530 C.3     1  LIG1       -0.0102
     22 C         -14.3866   -5.8945    0.5115 C.3     1  LIG1        0.0922
     23 N          -8.6364   -3.3584    1.0004 N.ar    1  LIG1       -0.3112
     24 N          -5.3561   -0.3805    0.9743 N.ar    1  LIG1       -0.3111
     25 N         -16.1098   -4.1976    0.1382 N.4     1  LIG1        0.2434
     26 O          -7.4136   -0.5978    2.8718 O.2     1  LIG1       -0.2856
     27 O          -1.5041    0.4268   -1.9290 O.3     1  LIG1       -0.3492
     28 O         -13.8028   -5.1094    1.5488 O.3     1  LIG1       -0.3406
     29 H          -4.8809   -2.4517   -2.8856 H       1  LIG1        0.0630
     30 H          -9.6268   -5.7961   -0.1138 H       1  LIG1        0.0643
     31 H          -2.7405   -1.3392   -3.4244 H       1  LIG1        0.0650
     32 H         -11.9963   -6.4647    0.2164 H       1  LIG1        0.0651
     33 H         -12.7470   -2.8980    2.5102 H       1  LIG1        0.0657
     34 H          -7.0184   -2.5857   -0.7662 H       1  LIG1        0.0651
     35 H         -10.2969   -1.1741    2.7691 H       1  LIG1        0.0651
     36 H          -2.8840    0.8642    0.2824 H       1  LIG1        0.0670
     37 H         -15.8406   -4.3414   -1.9551 H       1  LIG1        0.0777
     38 H         -15.6041   -2.6962   -1.2640 H       1  LIG1        0.0777
     39 H         -14.3520   -3.9654   -1.0159 H       1  LIG1        0.0777
     40 H         -18.0461   -4.4194   -0.6845 H       1  LIG1        0.0777
     41 H         -17.9987   -4.0940    1.0854 H       1  LIG1        0.0777
     42 H         -17.6543   -2.7688   -0.0831 H       1  LIG1        0.0777
     43 H           0.0288    0.6136   -3.3011 H       1  LIG1        0.0535
     44 H          -1.5932    0.2899   -3.9885 H       1  LIG1        0.0535
     45 H          -0.6947   -1.0100   -3.1620 H       1  LIG1        0.0535
     46 H         -16.3680   -5.8178    1.4125 H       1  LIG1        0.0839
     47 H         -16.3605   -6.2074   -0.3401 H       1  LIG1        0.0839
     48 H         -14.2050   -6.9487    0.7431 H       1  LIG1        0.0628
     49 H         -13.8954   -5.6532   -0.4368 H       1  LIG1        0.0628
     50 H          -7.8214   -3.7342    0.5354 H       1  LIG1        0.1529
     51 H          -5.1849    0.2244    1.7659 H       1  LIG1        0.1529
     52 H         -15.6914   -3.6358    0.8990 H       1  LIG1        0.1998
@<TRIPOS>BOND
     1     1     3   ar
     2     1     9   ar
     3     2     4   ar
     4     2    11   ar
     5     3    14   ar
     6     4    13   ar
     7     5    10   ar
     8     5    13   ar
     9     6     9   ar
    10     6    15   ar
    11     7    10   ar
    12     7    16   ar
    13     8    12   ar
    14     8    14   ar
    15     9    12   ar
    16    10    11   ar
    17    11    23   ar
    18    12    24   ar
    19    13    28    1
    20    14    27    1
    21    15    17    1
    22    15    24   ar
    23    16    17    1
    24    16    23   ar
    25    17    26    2
    26    18    25    1
    27    19    25    1
    28    20    27    1
    29    21    22    1
    30    21    25    1
    31    22    28    1
    32     1    29    1
    33     2    30    1
    34     3    31    1
    35     4    32    1
    36     5    33    1
    37     6    34    1
    38     7    35    1
    39     8    36    1
    40    18    37    1
    41    18    38    1
    42    18    39    1
    43    19    40    1
    44    19    41    1
    45    19    42    1
    46    20    43    1
    47    20    44    1
    48    20    45    1
    49    21    46    1
    50    21    47    1
    51    22    48    1
    52    22    49    1
    53    23    50    1
    54    24    51    1
    55    25    52    1
