@<TRIPOS>MOLECULE
ChEBML409600
 37 40 0 0 0
SMALL
USER_CHARGES

@<TRIPOS>ATOM
      1 C         -12.4239   -4.5661    1.4498 C.ar    1  LIG1       -0.0615
      2 C         -11.5954   -5.4580    0.7718 C.ar    1  LIG1       -0.0603
      3 C          -4.3135   -2.5850    0.0997 C.ar    1  LIG1       -0.0590
      4 C         -11.9359   -3.3327    1.8962 C.ar    1  LIG1       -0.0527
      5 C          -5.4647   -2.4496    0.8757 C.ar    1  LIG1       -0.0526
      6 C         -10.2565   -5.1474    0.5182 C.ar    1  LIG1       -0.0402
      7 C          -3.9381   -1.5654   -0.7751 C.ar    1  LIG1       -0.0318
      8 C          -5.8652   -0.2752   -0.0981 C.ar    1  LIG1       -0.0223
      9 C         -10.5895   -2.9973    1.6525 C.ar    1  LIG1        0.0010
     10 C          -6.2406   -1.2948    0.7768 C.ar    1  LIG1        0.0042
     11 C          -9.7719   -1.8770    1.9471 C.ar    1  LIG1       -0.0135
     12 C          -9.7807   -3.9108    0.9688 C.ar    1  LIG1        0.0380
     13 C          -4.7140   -0.4106   -0.8740 C.ar    1  LIG1        0.0752
     14 C          -8.5116   -2.1138    1.4426 C.ar    1  LIG1        0.0605
     15 C          -7.4431   -1.1527    1.5872 C.2     1  LIG1        0.0864
     16 C         -10.0451   -0.5978    2.6430 C.3     1  LIG1       -0.0055
     17 C          -8.7494   -0.0952    3.2997 C.3     1  LIG1        0.0439
     18 C          -3.1598    0.3810   -2.4908 C.3     1  LIG1        0.0422
     19 N          -7.5565   -0.1685    2.4234 N.2     1  LIG1       -0.2823
     20 N          -8.5243   -3.3513    0.8600 N.ar    1  LIG1       -0.3124
     21 O          -4.3480    0.5844   -1.7274 O.3     1  LIG1       -0.3493
     22 H         -13.4617   -4.8303    1.6353 H       1  LIG1        0.0623
     23 H         -11.9952   -6.4105    0.4335 H       1  LIG1        0.0623
     24 H          -3.7095   -3.4843    0.1769 H       1  LIG1        0.0624
     25 H         -12.5934   -2.6481    2.4244 H       1  LIG1        0.0630
     26 H          -5.7475   -3.2497    1.5548 H       1  LIG1        0.0630
     27 H          -9.6131   -5.8425   -0.0108 H       1  LIG1        0.0642
     28 H          -3.0403   -1.6768   -1.3769 H       1  LIG1        0.0650
     29 H          -6.4663    0.6278   -0.1786 H       1  LIG1        0.0657
     30 H         -10.3943    0.1385    1.9090 H       1  LIG1        0.0336
     31 H         -10.8272   -0.7133    3.4008 H       1  LIG1        0.0336
     32 H          -8.8877    0.9463    3.6100 H       1  LIG1        0.0518
     33 H          -8.5389   -0.6727    4.2086 H       1  LIG1        0.0518
     34 H          -2.9831    1.2497   -3.1297 H       1  LIG1        0.0535
     35 H          -3.2680   -0.5185   -3.1021 H       1  LIG1        0.0535
     36 H          -2.3159    0.2559   -1.8082 H       1  LIG1        0.0535
     37 H          -7.7344   -3.7939    0.4108 H       1  LIG1        0.1529
@<TRIPOS>BOND
     1     1     2   ar
     2     1     4   ar
     3     2     6   ar
     4     3     5   ar
     5     3     7   ar
     6     4     9   ar
     7     5    10   ar
     8     6    12   ar
     9     7    13   ar
    10     8    10   ar
    11     8    13   ar
    12     9    11   ar
    13     9    12   ar
    14    10    15    1
    15    11    14   ar
    16    11    16    1
    17    12    20   ar
    18    13    21    1
    19    14    15    1
    20    14    20   ar
    21    15    19    2
    22    16    17    1
    23    17    19    1
    24    18    21    1
    25     1    22    1
    26     2    23    1
    27     3    24    1
    28     4    25    1
    29     5    26    1
    30     6    27    1
    31     7    28    1
    32     8    29    1
    33    16    30    1
    34    16    31    1
    35    17    32    1
    36    17    33    1
    37    18    34    1
    38    18    35    1
    39    18    36    1
    40    20    37    1
