@<TRIPOS>MOLECULE
ChEBML799014
 36 39 0 0 0
SMALL
USER_CHARGES

@<TRIPOS>ATOM
      1 C          -3.0914    0.0970   -1.6116 C.ar    1  LIG1       -0.0364
      2 C         -10.4783   -5.0765    0.3351 C.ar    1  LIG1       -0.0375
      3 C         -11.7929   -5.4248    0.6578 C.ar    1  LIG1       -0.0299
      4 C          -3.6478    0.5821   -0.4040 C.ar    1  LIG1       -0.0319
      5 C         -11.9880   -3.5262    2.1581 C.ar    1  LIG1       -0.0204
      6 C          -3.5388   -1.1968   -1.7457 C.ar    1  LIG1        0.0456
      7 C          -8.9816   -0.2551    3.2650 C.ar    1  LIG1        0.1180
      8 C         -10.6640   -3.1548    1.8487 C.ar    1  LIG1        0.0262
      9 C          -9.8064   -2.0956    2.2582 C.ar    1  LIG1        0.0989
     10 C          -9.9403   -3.9374    0.9451 C.ar    1  LIG1        0.0402
     11 C          -8.5906   -2.2530    1.6026 C.ar    1  LIG1        0.0979
     12 C         -12.5380   -4.6632    1.5552 C.ar    1  LIG1        0.0754
     13 C          -4.3959   -0.4497    0.1135 C.ar    1  LIG1        0.0757
     14 C          -7.5603   -1.3541    1.8167 C.ar    1  LIG1        0.1434
     15 C         -14.3231   -6.1954    1.2070 C.3     1  LIG1        0.0422
     16 C          -5.2301   -0.5917    1.3537 C.3     1  LIG1        0.0571
     17 N         -10.0412   -1.0762    3.1222 N.ar    1  LIG1       -0.2341
     18 N          -7.7697   -0.3307    2.6724 N.ar    1  LIG1       -0.2197
     19 N          -8.6915   -3.3693    0.8151 N.ar    1  LIG1       -0.3097
     20 N          -6.3245   -1.4969    1.1632 N.pl3   1  LIG1       -0.3215
     21 O          -4.3348   -1.5376   -0.6985 O.2     1  LIG1       -0.3208
     22 O         -13.8172   -5.0281    1.8512 O.3     1  LIG1       -0.3493
     23 H          -2.4447    0.6241   -2.2979 H       1  LIG1        0.0645
     24 H          -9.9000   -5.6710   -0.3641 H       1  LIG1        0.0643
     25 H         -12.2339   -6.3058    0.1970 H       1  LIG1        0.0651
     26 H          -3.5175    1.5622    0.0323 H       1  LIG1        0.0648
     27 H         -12.5757   -2.9375    2.8574 H       1  LIG1        0.0658
     28 H          -3.3894   -1.9659   -2.4892 H       1  LIG1        0.0901
     29 H          -9.1194    0.5772    3.9467 H       1  LIG1        0.1063
     30 H         -15.3515   -6.3741    1.5303 H       1  LIG1        0.0535
     31 H         -13.6957   -7.0535    1.4608 H       1  LIG1        0.0535
     32 H         -14.3052   -6.0406    0.1256 H       1  LIG1        0.0535
     33 H          -4.6241   -0.9656    2.1860 H       1  LIG1        0.0539
     34 H          -5.6444    0.3742    1.6613 H       1  LIG1        0.0539
     35 H          -7.9562   -3.7285    0.2218 H       1  LIG1        0.1530
     36 H          -6.2236   -2.2757    0.5362 H       1  LIG1        0.1485
@<TRIPOS>BOND
     1     1     4   ar
     2     1     6   ar
     3     2     3   ar
     4     2    10   ar
     5     3    12   ar
     6     4    13   ar
     7     5     8   ar
     8     5    12   ar
     9     6    21   ar
    10     7    17   ar
    11     7    18   ar
    12     8     9   ar
    13     8    10   ar
    14     9    11   ar
    15     9    17   ar
    16    10    19   ar
    17    11    14   ar
    18    11    19   ar
    19    12    22    1
    20    13    16    1
    21    13    21   ar
    22    14    18   ar
    23    14    20    1
    24    15    22    1
    25    16    20    1
    26     1    23    1
    27     2    24    1
    28     3    25    1
    29     4    26    1
    30     5    27    1
    31     6    28    1
    32     7    29    1
    33    15    30    1
    34    15    31    1
    35    15    32    1
    36    16    33    1
    37    16    34    1
    38    19    35    1
    39    20    36    1
