@<TRIPOS>MOLECULE
ChEBML198653
 53 56 0 0 0
SMALL
USER_CHARGES

@<TRIPOS>ATOM
      1 C         -16.5479   -5.6411   -0.9396 C.ar    1  LIG1       -0.0621
      2 C         -15.6659   -4.5724   -1.0998 C.ar    1  LIG1       -0.0596
      3 C         -16.5997   -6.3267    0.2740 C.ar    1  LIG1       -0.0596
      4 C          -1.9925    0.9107   -3.2633 C.ar    1  LIG1       -0.0431
      5 C          -1.8371   -0.4522   -3.0357 C.ar    1  LIG1       -0.0449
      6 C         -10.4772   -5.0120    1.6957 C.ar    1  LIG1       -0.0381
      7 C         -11.0175   -2.6937    1.2827 C.ar    1  LIG1       -0.0381
      8 C         -14.8357   -4.1895   -0.0464 C.ar    1  LIG1       -0.0312
      9 C         -15.7695   -5.9438    1.3274 C.ar    1  LIG1       -0.0312
     10 C         -11.8160   -5.2719    1.9880 C.ar    1  LIG1       -0.0294
     11 C         -12.3565   -2.9537    1.5749 C.ar    1  LIG1       -0.0294
     12 C          -3.0870    1.5425   -2.6955 C.ar    1  LIG1        0.0291
     13 C          -2.7680   -1.1319   -2.2581 C.ar    1  LIG1        0.0957
     14 C         -10.0779   -3.7229    1.3432 C.ar    1  LIG1        0.0341
     15 C         -14.8874   -4.8752    1.1672 C.ar    1  LIG1        0.0820
     16 C         -12.7557   -4.2428    1.9275 C.ar    1  LIG1        0.0822
     17 C          -3.8278   -0.4087   -1.7350 C.ar    1  LIG1        0.1323
     18 C          -8.1606   -2.2350    1.3661 C.2     1  LIG1        0.3050
     19 C          -4.9501   -0.6531    0.4219 C.3     1  LIG1        0.0288
     20 C          -5.8386   -1.7814   -1.6407 C.3     1  LIG1        0.0288
     21 C          -6.4392   -0.5632    0.7482 C.3     1  LIG1        0.0315
     22 C          -6.6480   -2.6118   -0.6435 C.3     1  LIG1        0.0315
     23 C          -2.5978   -2.5933   -2.0163 C.3     1  LIG1        0.4193
     24 N          -4.0120    0.9156   -1.9343 N.ar    1  LIG1       -0.2408
     25 N          -4.7474   -1.0749   -0.9668 N.pl3   1  LIG1       -0.3122
     26 N          -7.1218   -1.8324    0.5056 N.am    1  LIG1       -0.2824
     27 N          -8.7344   -3.4618    1.0499 N.am    1  LIG1       -0.2690
     28 O          -8.5290   -1.5574    2.3310 O.2     1  LIG1       -0.2537
     29 O         -14.0622   -4.4965    2.2127 O.3     1  LIG1       -0.3104
     30 F          -1.4908   -3.1228   -2.6169 F       1  LIG1       -0.1660
     31 F          -2.4752   -2.9187   -0.6953 F       1  LIG1       -0.1660
     32 F          -3.6511   -3.3287   -2.4779 F       1  LIG1       -0.1660
     33 H         -17.1950   -5.9392   -1.7595 H       1  LIG1        0.0622
     34 H         -15.6254   -4.0386   -2.0448 H       1  LIG1        0.0623
     35 H         -17.2869   -7.1587    0.3980 H       1  LIG1        0.0623
     36 H          -1.2789    1.4609   -3.8659 H       1  LIG1        0.0639
     37 H          -0.9883   -0.9748   -3.4682 H       1  LIG1        0.0631
     38 H          -9.7535   -5.8216    1.7459 H       1  LIG1        0.0643
     39 H         -10.7178   -1.6852    1.0091 H       1  LIG1        0.0643
     40 H         -14.1498   -3.3571   -0.1781 H       1  LIG1        0.0650
     41 H         -15.8129   -6.4827    2.2700 H       1  LIG1        0.0650
     42 H         -12.1211   -6.2782    2.2621 H       1  LIG1        0.0651
     43 H         -13.0838   -2.1478    1.5262 H       1  LIG1        0.0651
     44 H          -3.2545    2.6043   -2.8433 H       1  LIG1        0.0840
     45 H          -4.4840    0.3221    0.6095 H       1  LIG1        0.0485
     46 H          -4.4634   -1.3815    1.0815 H       1  LIG1        0.0485
     47 H          -5.4383   -2.4429   -2.4182 H       1  LIG1        0.0485
     48 H          -6.4951   -1.0510   -2.1309 H       1  LIG1        0.0485
     49 H          -6.5738   -0.2550    1.7903 H       1  LIG1        0.0486
     50 H          -6.9285    0.1894    0.1178 H       1  LIG1        0.0486
     51 H          -7.5043   -3.0582   -1.1596 H       1  LIG1        0.0486
     52 H          -6.0334   -3.4264   -0.2415 H       1  LIG1        0.0486
     53 H          -8.1958   -4.2227    0.6526 H       1  LIG1        0.1573
@<TRIPOS>BOND
     1     1     2   ar
     2     1     3   ar
     3     2     8   ar
     4     3     9   ar
     5     4     5   ar
     6     4    12   ar
     7     5    13   ar
     8     6    10   ar
     9     6    14   ar
    10     7    11   ar
    11     7    14   ar
    12     8    15   ar
    13     9    15   ar
    14    10    16   ar
    15    11    16   ar
    16    12    24   ar
    17    13    17   ar
    18    13    23    1
    19    14    27    1
    20    15    29    1
    21    16    29    1
    22    17    24   ar
    23    17    25    1
    24    18    26   am
    25    18    27   am
    26    18    28    2
    27    19    21    1
    28    19    25    1
    29    20    22    1
    30    20    25    1
    31    21    26    1
    32    22    26    1
    33    23    30    1
    34    23    31    1
    35    23    32    1
    36     1    33    1
    37     2    34    1
    38     3    35    1
    39     4    36    1
    40     5    37    1
    41     6    38    1
    42     7    39    1
    43     8    40    1
    44     9    41    1
    45    10    42    1
    46    11    43    1
    47    12    44    1
    48    19    45    1
    49    19    46    1
    50    20    47    1
    51    20    48    1
    52    21    49    1
    53    21    50    1
    54    22    51    1
    55    22    52    1
    56    27    53    1
