@<TRIPOS>MOLECULE
ChEBML1273812
 39 42 0 0 0
SMALL
USER_CHARGES

@<TRIPOS>ATOM
      1 C         -12.0877   -3.5220    1.9530 C.ar    1  LIG1       -0.0311
      2 C          -9.9832   -2.0319    2.1893 C.ar    1  LIG1       -0.0245
      3 C         -11.6124   -5.4809    0.6648 C.ar    1  LIG1        0.0477
      4 C         -10.7500   -3.1445    1.7698 C.ar    1  LIG1        0.0185
      5 C         -12.5121   -4.7084    1.3877 C.ar    1  LIG1        0.0596
      6 C          -8.7222   -2.1987    1.7115 C.ar    1  LIG1        0.0959
      7 C          -9.8953   -3.9806    1.0234 C.ar    1  LIG1        0.1292
      8 C          -7.6023   -1.2685    1.9178 C.2     1  LIG1        0.2598
      9 C          -6.1459   -2.4856    0.2500 C.3     1  LIG1        0.0228
     10 C          -5.1732   -0.7151    1.4660 C.3     1  LIG1        0.0228
     11 C          -3.7455   -2.8099   -0.4043 C.3     1  LIG1       -0.0296
     12 C          -3.0742   -0.6005    0.0955 C.3     1  LIG1       -0.0296
     13 C          -5.0048   -1.9384   -0.6244 C.3     1  LIG1        0.0231
     14 C          -4.6107   -0.5822    0.0307 C.3     1  LIG1        0.0231
     15 C          -1.4218   -2.3643    0.1121 C.3     1  LIG1       -0.0454
     16 N         -10.3605   -5.1100    0.5043 N.ar    1  LIG1       -0.2391
     17 N          -8.6616   -3.3795    0.9957 N.ar    1  LIG1       -0.2948
     18 N          -6.4329   -1.4694    1.2787 N.am    1  LIG1       -0.2957
     19 N          -2.6245   -1.8491   -0.5558 N.4     1  LIG1        0.2444
     20 O          -7.7314   -0.3174    2.6653 O.2     1  LIG1       -0.2702
     21 CL        -14.1566   -5.2302    1.5797 Cl      1  LIG1       -0.0826
     22 H         -12.7669   -2.9027    2.5202 H       1  LIG1        0.0646
     23 H         -10.3361   -1.2010    2.7820 H       1  LIG1        0.0652
     24 H         -11.9485   -6.4080    0.2244 H       1  LIG1        0.0856
     25 H          -7.0325   -2.6555   -0.3609 H       1  LIG1        0.0475
     26 H          -5.8357   -3.4165    0.7245 H       1  LIG1        0.0475
     27 H          -5.3747    0.2680    1.8913 H       1  LIG1        0.0475
     28 H          -4.4826   -1.2731    2.0982 H       1  LIG1        0.0475
     29 H          -3.6841   -3.5929   -1.1603 H       1  LIG1        0.0818
     30 H          -3.7479   -3.2414    0.5966 H       1  LIG1        0.0818
     31 H          -2.7465   -0.5854    1.1349 H       1  LIG1        0.0818
     32 H          -2.6703    0.2613   -0.4357 H       1  LIG1        0.0818
     33 H          -5.2745   -1.8415   -1.6760 H       1  LIG1        0.0379
     34 H          -5.0102    0.2806   -0.5024 H       1  LIG1        0.0379
     35 H          -1.6467   -2.5687    1.1588 H       1  LIG1        0.0777
     36 H          -1.1004   -3.2840   -0.3768 H       1  LIG1        0.0777
     37 H          -0.6256   -1.6224    0.0498 H       1  LIG1        0.0777
     38 H          -7.8746   -3.7279    0.5484 H       1  LIG1        0.1545
     39 H          -2.4361   -1.6836   -1.5331 H       1  LIG1        0.2000
@<TRIPOS>BOND
     1     1     4   ar
     2     1     5   ar
     3     2     4   ar
     4     2     6   ar
     5     3     5   ar
     6     3    16   ar
     7     4     7   ar
     8     5    21    1
     9     6     8    1
    10     6    17   ar
    11     7    16   ar
    12     7    17   ar
    13     8    18   am
    14     8    20    2
    15     9    13    1
    16     9    18    1
    17    10    14    1
    18    10    18    1
    19    11    13    1
    20    11    19    1
    21    12    14    1
    22    12    19    1
    23    13    14    1
    24    15    19    1
    25     1    22    1
    26     2    23    1
    27     3    24    1
    28     9    25    1
    29     9    26    1
    30    10    27    1
    31    10    28    1
    32    11    29    1
    33    11    30    1
    34    12    31    1
    35    12    32    1
    36    13    33    1
    37    14    34    1
    38    15    35    1
    39    15    36    1
    40    15    37    1
    41    17    38    1
    42    19    39    1
