@<TRIPOS>MOLECULE
ChEBML92747
 45 48 0 0 0
SMALL
USER_CHARGES

@<TRIPOS>ATOM
      1 C          -1.3130    0.8540   -3.7131 C.ar    1  LIG1        0.0000
      2 C          -2.5884    1.3104   -4.0455 C.ar    1  LIG1        0.0000
      3 C          -1.1489   -0.0623   -2.6742 C.ar    1  LIG1        0.0000
      4 C          -7.2493   -0.5203    2.7355 C.ar    1  LIG1        0.0000
      5 C         -11.8662   -5.2824    0.9071 C.ar    1  LIG1        0.0000
      6 C          -3.6998    0.8505   -3.3390 C.ar    1  LIG1        0.0000
      7 C          -2.2602   -0.5220   -1.9677 C.ar    1  LIG1        0.0000
      8 C         -10.5019   -5.1136    0.6488 C.ar    1  LIG1        0.0000
      9 C          -6.0876    0.2475    2.8158 C.ar    1  LIG1        0.0000
     10 C          -6.4497   -1.5159    0.6846 C.ar    1  LIG1        0.0000
     11 C         -12.0055   -3.1058    1.9891 C.ar    1  LIG1        0.0000
     12 C          -7.4304   -1.4020    1.6700 C.ar    1  LIG1        0.0000
     13 C         -12.6066   -4.2976    1.5652 C.ar    1  LIG1        0.0000
     14 C          -3.5357   -0.0656   -2.3001 C.ar    1  LIG1        0.0000
     15 C         -10.6355   -2.9195    1.7380 C.ar    1  LIG1        0.0000
     16 C          -9.9244   -3.9190    1.0800 C.ar    1  LIG1        0.0000
     17 C          -5.1068    0.1336    1.8306 C.ar    1  LIG1        0.0000
     18 C          -5.2879   -0.7482    0.7648 C.ar    1  LIG1        0.0000
     19 C          -8.6320   -2.1964    1.5872 C.ar    1  LIG1        0.0000
     20 C         -14.0413   -4.5144    1.8178 C.2     1  LIG1        0.0000
     21 C          -4.0026    2.1705    1.2945 C.3     1  LIG1        0.0000
     22 C          -4.7307   -0.5604   -1.5395 C.3     1  LIG1        0.0000
     23 N          -9.8163   -1.8574    2.0451 N.ar    1  LIG1        0.0000
     24 N          -8.6459   -3.4297    0.9973 N.ar    1  LIG1        0.0000
     25 O         -14.7081   -3.5962    2.4259 O.co2   1  LIG1       -0.5000
     26 O         -14.5799   -5.6148    1.4225 O.co2   1  LIG1       -0.5000
     27 O          -3.9766    0.8888    1.9195 O.3     1  LIG1        0.0000
     28 O          -4.3374   -0.8687   -0.2037 O.3     1  LIG1        0.0000
     29 H          -0.4478    1.2111   -4.2642 H       1  LIG1        0.0000
     30 H          -2.7165    2.0229   -4.8550 H       1  LIG1        0.0000
     31 H          -0.1561   -0.4187   -2.4158 H       1  LIG1        0.0000
     32 H          -8.0043   -0.4200    3.5117 H       1  LIG1        0.0000
     33 H         -12.3489   -6.2030    0.5854 H       1  LIG1        0.0000
     34 H          -4.6897    1.2118   -3.6048 H       1  LIG1        0.0000
     35 H          -2.1227   -1.2358   -1.1597 H       1  LIG1        0.0000
     36 H          -9.9258   -5.8769    0.1381 H       1  LIG1        0.0000
     37 H          -5.9529    0.9324    3.6485 H       1  LIG1        0.0000
     38 H          -6.5816   -2.2013   -0.1500 H       1  LIG1        0.0000
     39 H         -12.5805   -2.3399    2.5007 H       1  LIG1        0.0000
     40 H          -3.0404    2.6674    1.4402 H       1  LIG1        0.0000
     41 H          -4.8051    2.7723    1.7284 H       1  LIG1        0.0000
     42 H          -4.1848    2.0408    0.2250 H       1  LIG1        0.0000
     43 H          -5.5202    0.1984   -1.5133 H       1  LIG1        0.0000
     44 H          -5.1439   -1.4597   -2.0089 H       1  LIG1        0.0000
     45 H          -7.8572   -3.9005    0.5734 H       1  LIG1        0.0000
@<TRIPOS>BOND
     1     1     2   ar
     2     1     3   ar
     3     2     6   ar
     4     3     7   ar
     5     4     9   ar
     6     4    12   ar
     7     5     8   ar
     8     5    13   ar
     9     6    14   ar
    10     7    14   ar
    11     8    16   ar
    12     9    17   ar
    13    10    12   ar
    14    10    18   ar
    15    11    13   ar
    16    11    15   ar
    17    12    19    1
    18    13    20    1
    19    14    22    1
    20    15    16   ar
    21    15    23   ar
    22    16    24   ar
    23    17    18   ar
    24    17    27    1
    25    18    28    1
    26    19    23   ar
    27    19    24   ar
    28    20    25   ar
    29    20    26   ar
    30    21    27    1
    31    22    28    1
    32     1    29    1
    33     2    30    1
    34     3    31    1
    35     4    32    1
    36     5    33    1
    37     6    34    1
    38     7    35    1
    39     8    36    1
    40     9    37    1
    41    10    38    1
    42    11    39    1
    43    21    40    1
    44    21    41    1
    45    21    42    1
    46    22    43    1
    47    22    44    1
    48    24    45    1
