@<TRIPOS>MOLECULE
ChEBML512901
 45 47 0 0 0
SMALL
USER_CHARGES

@<TRIPOS>ATOM
      1 C          -2.6292    0.4575   -3.8767 C.ar    1  LIG1       -0.0622
      2 C         -12.0129   -4.8485    0.0318 C.ar    1  LIG1       -0.0615
      3 C          -2.0431   -0.5939   -3.1719 C.ar    1  LIG1       -0.0620
      4 C          -3.4988    1.3335   -3.2270 C.ar    1  LIG1       -0.0620
      5 C         -12.5076   -4.7175    1.3279 C.ar    1  LIG1       -0.0603
      6 C         -10.7997   -4.2549   -0.3353 C.ar    1  LIG1       -0.0530
      7 C          -2.3268   -0.7695   -1.8176 C.ar    1  LIG1       -0.0590
      8 C          -3.7825    1.1579   -1.8726 C.ar    1  LIG1       -0.0590
      9 C         -11.8083   -3.9915    2.2963 C.ar    1  LIG1       -0.0400
     10 C          -8.8477   -2.8018    0.6038 C.ar    1  LIG1       -0.0260
     11 C         -10.0771   -3.5179    0.6239 C.ar    1  LIG1       -0.0020
     12 C          -3.1965    0.1064   -1.1679 C.ar    1  LIG1       -0.0479
     13 C         -10.5970   -3.4035    1.9150 C.ar    1  LIG1        0.0402
     14 C          -8.6488   -2.2759    1.8596 C.ar    1  LIG1        0.0970
     15 C          -7.5455   -1.4808    2.3053 C.2     1  LIG1        0.2597
     16 C          -9.8730   -2.2874    4.0377 C.3     1  LIG1        0.0054
     17 C          -5.9590   -3.4315    2.4011 C.3     1  LIG1        0.0031
     18 C          -3.5037   -0.0830    0.2962 C.3     1  LIG1       -0.0264
     19 C          -4.7131   -0.9885    0.5650 C.3     1  LIG1       -0.0333
     20 C          -5.0591   -1.1598    2.0428 C.3     1  LIG1        0.0144
     21 N          -9.7090   -2.6445    2.6435 N.ar    1  LIG1       -0.2991
     22 N          -6.2300   -2.0087    2.2516 N.am    1  LIG1       -0.2998
     23 O          -7.7855   -0.3275    2.7198 O.2     1  LIG1       -0.2702
     24 H          -2.4071    0.5949   -4.9310 H       1  LIG1        0.0622
     25 H         -12.5742   -5.4182   -0.7041 H       1  LIG1        0.0623
     26 H          -1.3651   -1.2754   -3.6774 H       1  LIG1        0.0623
     27 H          -3.9544    2.1528   -3.7751 H       1  LIG1        0.0623
     28 H         -13.4516   -5.1875    1.5916 H       1  LIG1        0.0623
     29 H         -10.4265   -4.3644   -1.3495 H       1  LIG1        0.0629
     30 H          -1.8656   -1.5916   -1.2765 H       1  LIG1        0.0625
     31 H          -4.4614    1.8452   -1.3747 H       1  LIG1        0.0625
     32 H         -12.1987   -3.8926    3.3037 H       1  LIG1        0.0643
     33 H          -8.1829   -2.6861   -0.2419 H       1  LIG1        0.0651
     34 H          -9.4036   -3.0673    4.6430 H       1  LIG1        0.0436
     35 H          -9.3973   -1.3205    4.2243 H       1  LIG1        0.0436
     36 H         -10.9392   -2.2125    4.2686 H       1  LIG1        0.0436
     37 H          -5.9802   -3.9226    1.4247 H       1  LIG1        0.0433
     38 H          -6.7125   -3.8944    3.0442 H       1  LIG1        0.0433
     39 H          -4.9738   -3.5836    2.8501 H       1  LIG1        0.0433
     40 H          -3.6458    0.8904    0.7815 H       1  LIG1        0.0316
     41 H          -2.6188   -0.5213    0.7761 H       1  LIG1        0.0316
     42 H          -4.5030   -1.9749    0.1322 H       1  LIG1        0.0286
     43 H          -5.5943   -0.5976    0.0416 H       1  LIG1        0.0286
     44 H          -5.2905   -0.1856    2.4849 H       1  LIG1        0.0469
     45 H          -4.2262   -1.5923    2.6049 H       1  LIG1        0.0469
@<TRIPOS>BOND
     1     1     3   ar
     2     1     4   ar
     3     2     5   ar
     4     2     6   ar
     5     3     7   ar
     6     4     8   ar
     7     5     9   ar
     8     6    11   ar
     9     7    12   ar
    10     8    12   ar
    11     9    13   ar
    12    10    11   ar
    13    10    14   ar
    14    11    13   ar
    15    12    18    1
    16    13    21   ar
    17    14    15    1
    18    14    21   ar
    19    15    22   am
    20    15    23    2
    21    16    21    1
    22    17    22    1
    23    18    19    1
    24    19    20    1
    25    20    22    1
    26     1    24    1
    27     2    25    1
    28     3    26    1
    29     4    27    1
    30     5    28    1
    31     6    29    1
    32     7    30    1
    33     8    31    1
    34     9    32    1
    35    10    33    1
    36    16    34    1
    37    16    35    1
    38    16    36    1
    39    17    37    1
    40    17    38    1
    41    17    39    1
    42    18    40    1
    43    18    41    1
    44    19    42    1
    45    19    43    1
    46    20    44    1
    47    20    45    1
