@<TRIPOS>MOLECULE
ChEBML139448
 54 57 0 0 0
SMALL
USER_CHARGES

@<TRIPOS>ATOM
      1 C           1.0406   -4.6798   -0.5720 C.ar    1  LIG1       -0.0622
      2 C           1.6622   -3.4326   -0.6319 C.ar    1  LIG1       -0.0617
      3 C          -0.2295   -4.8532   -1.1218 C.ar    1  LIG1       -0.0617
      4 C           1.0135   -2.3587   -1.2416 C.ar    1  LIG1       -0.0527
      5 C          -0.8782   -3.7793   -1.7315 C.ar    1  LIG1       -0.0527
      6 C          -3.4055   -0.2339    0.0720 C.3     1  LIG1        0.0053
      7 C          -4.5820   -1.3039   -1.7374 C.3     1  LIG1        0.0053
      8 C         -10.5149   -5.1894    0.2665 C.ar    1  LIG1       -0.0207
      9 C          -8.7850   -3.3572    0.8659 C.ar    1  LIG1       -0.0361
     10 C         -12.2347   -3.8464    2.0286 C.ar    1  LIG1       -0.0145
     11 C          -2.2144   -0.4877   -0.5931 C.3     1  LIG1        0.1690
     12 C          -3.3611   -1.5306   -2.3568 C.3     1  LIG1        0.1690
     13 C         -10.0533   -4.0262    0.9289 C.ar    1  LIG1       -0.0076
     14 C          -0.2566   -2.5320   -1.7914 C.ar    1  LIG1        0.0167
     15 C          -4.5996   -0.6482   -0.5102 C.3     1  LIG1       -0.0357
     16 C         -11.8111   -5.6621    0.4880 C.ar    1  LIG1        0.1054
     17 C         -12.6602   -4.9960    1.3603 C.ar    1  LIG1        0.1059
     18 C         -10.9273   -3.3725    1.8030 C.ar    1  LIG1        0.0224
     19 C          -8.7269   -2.2437    1.6699 C.ar    1  LIG1        0.0559
     20 C          -7.6409   -1.3390    1.8648 C.2     1  LIG1        0.1694
     21 C         -12.0021   -8.0326    0.4877 C.3     1  LIG1        0.0424
     22 C         -14.9499   -4.9596    0.7185 C.3     1  LIG1        0.0424
     23 C          -5.9096   -0.3885    0.1880 C.3     1  LIG1       -0.0201
     24 C          -0.9568   -1.3744   -2.4488 C.3     1  LIG1        0.1734
     25 C          -6.2924   -1.5408    1.1195 C.3     1  LIG1        0.0154
     26 N          -2.2261   -1.1210   -1.7740 N.3     1  LIG1       -0.2007
     27 O          -7.7308   -0.3483    2.6421 O.2     1  LIG1       -0.2935
     28 O         -12.2288   -6.7844   -0.1631 O.3     1  LIG1       -0.3465
     29 O         -13.9255   -5.4569    1.5761 O.3     1  LIG1       -0.3465
     30 S         -10.1873   -1.9846    2.5098 S.2     1  LIG1       -0.0856
     31 H           1.5463   -5.5162   -0.0984 H       1  LIG1        0.0622
     32 H           2.6516   -3.2976   -0.2049 H       1  LIG1        0.0623
     33 H          -0.7133   -5.8244   -1.0764 H       1  LIG1        0.0623
     34 H           1.5054   -1.3904   -1.2835 H       1  LIG1        0.0628
     35 H          -1.8678   -3.9238   -2.1571 H       1  LIG1        0.0628
     36 H          -3.3957    0.2775    1.0294 H       1  LIG1        0.0688
     37 H          -5.5012   -1.6360   -2.2096 H       1  LIG1        0.0688
     38 H          -9.8558   -5.7176   -0.4193 H       1  LIG1        0.0658
     39 H          -7.9565   -3.6896    0.2518 H       1  LIG1        0.0642
     40 H         -12.9016   -3.3275    2.7119 H       1  LIG1        0.0663
     41 H          -1.2488   -0.1944   -0.2000 H       1  LIG1        0.1394
     42 H          -3.2717   -2.0337   -3.3117 H       1  LIG1        0.1394
     43 H         -12.3817   -8.8446   -0.1373 H       1  LIG1        0.0535
     44 H         -12.5085   -8.0367    1.4562 H       1  LIG1        0.0535
     45 H         -10.9283   -8.1644    0.6397 H       1  LIG1        0.0535
     46 H         -15.9078   -5.4057    0.9971 H       1  LIG1        0.0535
     47 H         -14.7093   -5.2057   -0.3188 H       1  LIG1        0.0535
     48 H         -15.0101   -3.8743    0.8289 H       1  LIG1        0.0535
     49 H          -6.6969   -0.2264   -0.5597 H       1  LIG1        0.0320
     50 H          -5.8427    0.5508    0.7524 H       1  LIG1        0.0320
     51 H          -0.3373   -0.4706   -2.4123 H       1  LIG1        0.1098
     52 H          -1.1420   -1.5811   -3.5096 H       1  LIG1        0.1098
     53 H          -5.5133   -1.6669    1.8807 H       1  LIG1        0.0354
     54 H          -6.3754   -2.4663    0.5374 H       1  LIG1        0.0354
@<TRIPOS>BOND
     1     1     2   ar
     2     1     3   ar
     3     2     4   ar
     4     3     5   ar
     5     4    14   ar
     6     5    14   ar
     7     6    11    1
     8     6    15    1
     9     7    12    1
    10     7    15    1
    11     8    13   ar
    12     8    16   ar
    13     9    13   ar
    14     9    19   ar
    15    10    17   ar
    16    10    18   ar
    17    11    26    1
    18    12    26    1
    19    13    18   ar
    20    14    24    1
    21    15    23    1
    22    16    17   ar
    23    16    28    1
    24    17    29    1
    25    18    30   ar
    26    19    20    1
    27    19    30   ar
    28    20    25    1
    29    20    27    2
    30    21    28    1
    31    22    29    1
    32    23    25    1
    33    24    26    1
    34     1    31    1
    35     2    32    1
    36     3    33    1
    37     4    34    1
    38     5    35    1
    39     6    36    1
    40     7    37    1
    41     8    38    1
    42     9    39    1
    43    10    40    1
    44    11    41    1
    45    12    42    1
    46    21    43    1
    47    21    44    1
    48    21    45    1
    49    22    46    1
    50    22    47    1
    51    22    48    1
    52    23    49    1
    53    23    50    1
    54    24    51    1
    55    24    52    1
    56    25    53    1
    57    25    54    1
