@<TRIPOS>MOLECULE
ChEBML209108
 49 52 0 0 0
SMALL
USER_CHARGES

@<TRIPOS>ATOM
      1 C         -12.1353   -5.3941    1.3547 C.ar    1  LIG1       -0.0600
      2 C         -11.1582   -5.9691    0.5389 C.ar    1  LIG1       -0.0602
      3 C          -1.8168    0.4319   -3.4201 C.ar    1  LIG1       -0.0589
      4 C          -2.9469    1.2389   -3.5519 C.ar    1  LIG1       -0.0572
      5 C         -11.9118   -4.1679    1.9932 C.ar    1  LIG1       -0.0344
      6 C          -9.9250   -5.3423    0.3315 C.ar    1  LIG1       -0.0385
      7 C          -2.8022   -0.6324   -1.4881 C.ar    1  LIG1       -0.0377
      8 C          -1.7445   -0.5038   -2.3882 C.ar    1  LIG1       -0.0492
      9 C          -4.0046    1.1103   -2.6517 C.ar    1  LIG1       -0.0298
     10 C         -10.6784   -3.5242    1.7961 C.ar    1  LIG1        0.0864
     11 C          -9.7243   -4.1220    0.9775 C.ar    1  LIG1        0.0575
     12 C          -3.9323    0.1745   -1.6198 C.ar    1  LIG1        0.0322
     13 C          -9.0036   -2.1997    1.8019 C.ar    1  LIG1        0.1434
     14 C          -4.5652   -0.4004    0.6259 C.3     1  LIG1        0.0509
     15 C          -6.1771   -0.5984   -1.2604 C.3     1  LIG1        0.0509
     16 C          -5.7265   -0.2798    1.6034 C.3     1  LIG1       -0.0177
     17 C          -7.3354   -0.4825   -0.2776 C.3     1  LIG1       -0.0177
     18 C          -0.5362   -1.3663   -2.2478 C.3     1  LIG1       -0.0397
     19 C          -5.2019    1.9889   -2.8153 C.3     1  LIG1       -0.0379
     20 C          -8.0541   -1.0625    2.0389 C.3     1  LIG1        0.0233
     21 N         -10.2130   -2.3310    2.2991 N.ar    1  LIG1       -0.2303
     22 N          -8.6637   -3.2531    0.9995 N.ar    1  LIG1       -0.2969
     23 N          -4.9713    0.0347   -0.7170 N.pl3   1  LIG1       -0.3201
     24 N          -6.9138   -1.0336    1.0602 N.4     1  LIG1        0.2537
     25 H         -13.0843   -5.9053    1.4959 H       1  LIG1        0.0623
     26 H         -11.3586   -6.9229    0.0567 H       1  LIG1        0.0623
     27 H          -0.9976    0.5389   -4.1263 H       1  LIG1        0.0625
     28 H          -2.9931    1.9653   -4.3591 H       1  LIG1        0.0626
     29 H         -12.6782   -3.7292    2.6242 H       1  LIG1        0.0646
     30 H          -9.1659   -5.7867   -0.3022 H       1  LIG1        0.0643
     31 H          -2.7434   -1.3639   -0.6850 H       1  LIG1        0.0645
     32 H          -3.7353    0.2180    0.9896 H       1  LIG1        0.0524
     33 H          -4.2118   -1.4392    0.5884 H       1  LIG1        0.0524
     34 H          -5.9760   -1.6555   -1.4786 H       1  LIG1        0.0524
     35 H          -6.4676   -0.1165   -2.2021 H       1  LIG1        0.0524
     36 H          -5.4661   -0.7209    2.5709 H       1  LIG1        0.0831
     37 H          -6.0331    0.7631    1.7450 H       1  LIG1        0.0831
     38 H          -7.6365    0.5604   -0.1252 H       1  LIG1        0.0831
     39 H          -8.1953   -1.0663   -0.6222 H       1  LIG1        0.0831
     40 H           0.2064   -0.8816   -1.6021 H       1  LIG1        0.0280
     41 H          -0.7909   -2.3417   -1.8133 H       1  LIG1        0.0280
     42 H          -0.0725   -1.5647   -3.2231 H       1  LIG1        0.0280
     43 H          -5.9395    1.5072   -3.4672 H       1  LIG1        0.0280
     44 H          -5.6739    2.1989   -1.8479 H       1  LIG1        0.0280
     45 H          -4.9261    2.9560   -3.2533 H       1  LIG1        0.0280
     46 H          -8.5642   -0.0969    1.9559 H       1  LIG1        0.0899
     47 H          -7.6095   -1.1202    3.0383 H       1  LIG1        0.0899
     48 H          -7.7879   -3.3726    0.5078 H       1  LIG1        0.1542
     49 H          -6.6241   -2.0110    0.9174 H       1  LIG1        0.2009
@<TRIPOS>BOND
     1     1     2   ar
     2     1     5   ar
     3     2     6   ar
     4     3     4   ar
     5     3     8   ar
     6     4     9   ar
     7     5    10   ar
     8     6    11   ar
     9     7     8   ar
    10     7    12   ar
    11     8    18    1
    12     9    12   ar
    13     9    19    1
    14    10    11   ar
    15    10    21   ar
    16    11    22   ar
    17    12    23    1
    18    13    20    1
    19    13    21   ar
    20    13    22   ar
    21    14    16    1
    22    14    23    1
    23    15    17    1
    24    15    23    1
    25    16    24    1
    26    17    24    1
    27    20    24    1
    28     1    25    1
    29     2    26    1
    30     3    27    1
    31     4    28    1
    32     5    29    1
    33     6    30    1
    34     7    31    1
    35    14    32    1
    36    14    33    1
    37    15    34    1
    38    15    35    1
    39    16    36    1
    40    16    37    1
    41    17    38    1
    42    17    39    1
    43    18    40    1
    44    18    41    1
    45    18    42    1
    46    19    43    1
    47    19    44    1
    48    19    45    1
    49    20    46    1
    50    20    47    1
    51    22    48    1
    52    24    49    1
