@<TRIPOS>MOLECULE
ChEBML418028
 56 60 0 0 0
SMALL
USER_CHARGES

@<TRIPOS>ATOM
      1 C          -4.2685    3.3044   -3.2964 C.ar    1  LIG1       -0.0600
      2 C          -5.2202    2.8772   -2.3676 C.ar    1  LIG1       -0.0602
      3 C          -3.1608    2.5079   -3.6126 C.ar    1  LIG1       -0.0344
      4 C          -5.1010    1.6420   -1.7220 C.ar    1  LIG1       -0.0383
      5 C         -10.2428   -5.4078    1.0999 C.ar    1  LIG1       -0.0376
      6 C         -11.6110   -5.6863    1.0343 C.ar    1  LIG1       -0.0299
      7 C         -12.1637   -3.3579    1.4466 C.ar    1  LIG1       -0.0226
      8 C         -10.0496   -1.8584    1.7401 C.ar    1  LIG1       -0.0261
      9 C         -10.7898   -3.0530    1.5170 C.ar    1  LIG1        0.0004
     10 C          -3.0251    1.2639   -2.9734 C.ar    1  LIG1        0.0864
     11 C          -9.8629   -4.0829    1.3423 C.ar    1  LIG1        0.0380
     12 C          -3.9899    0.8656   -2.0525 C.ar    1  LIG1        0.0602
     13 C         -12.5584   -4.6788    1.2048 C.ar    1  LIG1        0.0753
     14 C          -8.7126   -2.1801    1.6978 C.ar    1  LIG1        0.0947
     15 C          -2.4013   -0.6572   -2.2809 C.ar    1  LIG1        0.1013
     16 C          -7.5831   -1.3133    1.8669 C.2     1  LIG1        0.2598
     17 C          -4.3132   -0.4985    0.7114 C.3     1  LIG1       -0.0181
     18 C          -5.6376   -1.6017   -1.1572 C.3     1  LIG1       -0.0181
     19 C          -5.1049   -1.3335    1.7169 C.3     1  LIG1        0.0162
     20 C          -6.3851   -2.4096   -0.0981 C.3     1  LIG1        0.0162
     21 C          -4.2356   -1.2066   -0.6547 C.3     1  LIG1        0.0320
     22 C          -0.8751   -1.9175   -0.7418 C.3     1  LIG1       -0.0585
     23 C         -14.2263   -6.3439    0.8867 C.3     1  LIG1        0.0422
     24 C          -1.6654   -1.9180   -2.0541 C.3     1  LIG1        0.0008
     25 N          -2.0465    0.3053   -3.1023 N.ar    1  LIG1       -0.2357
     26 N          -8.6100   -3.5240    1.4571 N.ar    1  LIG1       -0.3101
     27 N          -3.5655   -0.3666   -1.6256 N.ar    1  LIG1       -0.2840
     28 N          -6.4196   -1.6774    1.1748 N.am    1  LIG1       -0.2966
     29 O          -7.6636   -0.3168    2.5828 O.2     1  LIG1       -0.2702
     30 O         -13.8854   -4.9818    1.1354 O.3     1  LIG1       -0.3493
     31 H          -4.3893    4.2689   -3.7827 H       1  LIG1        0.0623
     32 H          -6.0701    3.5166   -2.1411 H       1  LIG1        0.0623
     33 H          -2.4275    2.8488   -4.3363 H       1  LIG1        0.0646
     34 H          -5.8407    1.3108   -1.0018 H       1  LIG1        0.0643
     35 H          -9.5058   -6.1927    0.9668 H       1  LIG1        0.0643
     36 H         -11.9329   -6.7082    0.8471 H       1  LIG1        0.0651
     37 H         -12.9087   -2.5778    1.5777 H       1  LIG1        0.0657
     38 H         -10.4560   -0.8707    1.9131 H       1  LIG1        0.0651
     39 H          -4.7969    0.4801    0.5914 H       1  LIG1        0.0302
     40 H          -3.3048   -0.3078    1.0978 H       1  LIG1        0.0302
     41 H          -5.5582   -2.1839   -2.0831 H       1  LIG1        0.0302
     42 H          -6.2117   -0.6971   -1.3985 H       1  LIG1        0.0302
     43 H          -4.5814   -2.2718    1.9345 H       1  LIG1        0.0470
     44 H          -5.2010   -0.7845    2.6587 H       1  LIG1        0.0470
     45 H          -7.3890   -2.6441   -0.4601 H       1  LIG1        0.0470
     46 H          -5.8753   -3.3626    0.0870 H       1  LIG1        0.0470
     47 H          -3.6119   -2.1040   -0.5668 H       1  LIG1        0.0511
     48 H          -0.1796   -1.0720   -0.7075 H       1  LIG1        0.0235
     49 H          -0.2949   -2.8386   -0.6284 H       1  LIG1        0.0235
     50 H          -1.5491   -1.8330    0.1174 H       1  LIG1        0.0235
     51 H         -15.3137   -6.4483    0.8558 H       1  LIG1        0.0535
     52 H         -13.8114   -6.9744    1.6772 H       1  LIG1        0.0535
     53 H         -13.8060   -6.6456   -0.0756 H       1  LIG1        0.0535
     54 H          -2.3535   -2.7849   -2.0474 H       1  LIG1        0.0343
     55 H          -0.9635   -2.1243   -2.8848 H       1  LIG1        0.0343
     56 H          -7.7419   -4.0353    1.3747 H       1  LIG1        0.1529
@<TRIPOS>BOND
     1     1     2   ar
     2     1     3   ar
     3     2     4   ar
     4     3    10   ar
     5     4    12   ar
     6     5     6   ar
     7     5    11   ar
     8     6    13   ar
     9     7     9   ar
    10     7    13   ar
    11     8     9   ar
    12     8    14   ar
    13     9    11   ar
    14    10    12   ar
    15    10    25   ar
    16    11    26   ar
    17    12    27   ar
    18    13    30    1
    19    14    16    1
    20    14    26   ar
    21    15    24    1
    22    15    25   ar
    23    15    27   ar
    24    16    28   am
    25    16    29    2
    26    17    19    1
    27    17    21    1
    28    18    20    1
    29    18    21    1
    30    19    28    1
    31    20    28    1
    32    21    27    1
    33    22    24    1
    34    23    30    1
    35     1    31    1
    36     2    32    1
    37     3    33    1
    38     4    34    1
    39     5    35    1
    40     6    36    1
    41     7    37    1
    42     8    38    1
    43    17    39    1
    44    17    40    1
    45    18    41    1
    46    18    42    1
    47    19    43    1
    48    19    44    1
    49    20    45    1
    50    20    46    1
    51    21    47    1
    52    22    48    1
    53    22    49    1
    54    22    50    1
    55    23    51    1
    56    23    52    1
    57    23    53    1
    58    24    54    1
    59    24    55    1
    60    26    56    1
