@<TRIPOS>MOLECULE
ChEBML234167
 45 48 0 0 0
SMALL
USER_CHARGES

@<TRIPOS>ATOM
      1 C         -11.1793   -7.2632   -0.2560 C.1     1  LIG1        0.0992
      2 C         -12.0794   -5.5057    1.1774 C.ar    1  LIG1       -0.0437
      3 C         -11.9605   -4.2783    1.8393 C.ar    1  LIG1       -0.0517
      4 C          -3.6327    1.3918   -2.2453 C.ar    1  LIG1       -0.0393
      5 C          -2.5748    1.5078   -3.1470 C.ar    1  LIG1       -0.0401
      6 C          -9.8318   -5.2986    0.2773 C.ar    1  LIG1       -0.0224
      7 C         -10.3043   -2.3029    2.2391 C.ar    1  LIG1       -0.0305
      8 C          -3.1029   -0.9435   -1.9242 C.ar    1  LIG1       -0.0207
      9 C         -11.0302   -6.0062    0.4091 C.ar    1  LIG1        0.0539
     10 C         -10.7618   -3.5470    1.7214 C.ar    1  LIG1       -0.0024
     11 C          -9.7273   -4.0730    0.9446 C.ar    1  LIG1        0.0389
     12 C          -3.8968    0.1662   -1.6338 C.ar    1  LIG1        0.0305
     13 C          -1.7811    0.3982   -3.4373 C.ar    1  LIG1        0.0593
     14 C          -2.0451   -0.8274   -2.8260 C.ar    1  LIG1        0.0610
     15 C          -9.0247   -2.1017    1.7755 C.ar    1  LIG1        0.0524
     16 C          -4.5580   -0.3637    0.6147 C.3     1  LIG1        0.0509
     17 C          -6.1522   -0.5800   -1.2845 C.3     1  LIG1        0.0509
     18 C          -5.7281   -0.2155    1.5779 C.3     1  LIG1       -0.0177
     19 C          -7.3194   -0.4363   -0.3159 C.3     1  LIG1       -0.0177
     20 C          -8.0671   -0.9692    2.0027 C.3     1  LIG1        0.0052
     21 N         -11.3003   -8.2834   -0.7959 N.1     1  LIG1       -0.1924
     22 N          -8.6855   -3.1745    0.9956 N.ar    1  LIG1       -0.3134
     23 N          -4.9462    0.0516   -0.7396 N.pl3   1  LIG1       -0.3202
     24 N          -6.9167   -0.9678    1.0356 N.4     1  LIG1        0.2525
     25 CL         -0.4855    0.6055   -4.5628 Cl      1  LIG1       -0.0827
     26 CL         -1.0976   -2.2379   -3.1447 Cl      1  LIG1       -0.0826
     27 H         -13.0087   -6.0631    1.2759 H       1  LIG1        0.0637
     28 H         -12.7860   -3.8996    2.4352 H       1  LIG1        0.0630
     29 H          -4.2450    2.2629   -2.0263 H       1  LIG1        0.0643
     30 H          -2.3834    2.4705   -3.6144 H       1  LIG1        0.0639
     31 H          -9.0070   -5.6779   -0.3185 H       1  LIG1        0.0656
     32 H         -10.8544   -1.6293    2.8822 H       1  LIG1        0.0648
     33 H          -3.3145   -1.8964   -1.4437 H       1  LIG1        0.0658
     34 H          -3.7261    0.2534    0.9763 H       1  LIG1        0.0524
     35 H          -4.2138   -1.4062    0.5990 H       1  LIG1        0.0524
     36 H          -5.9587   -1.6425   -1.4822 H       1  LIG1        0.0524
     37 H          -6.4285   -0.1119   -2.2374 H       1  LIG1        0.0524
     38 H          -5.4816   -0.6420    2.5556 H       1  LIG1        0.0831
     39 H          -6.0263    0.8325    1.6982 H       1  LIG1        0.0831
     40 H          -7.6123    0.6118   -0.1849 H       1  LIG1        0.0831
     41 H          -8.1810   -1.0182   -0.6592 H       1  LIG1        0.0831
     42 H          -8.5674   -0.0006    1.8976 H       1  LIG1        0.0882
     43 H          -7.6333   -1.0135    3.0075 H       1  LIG1        0.0882
     44 H          -7.7995   -3.2931    0.5234 H       1  LIG1        0.1527
     45 H          -6.6346   -1.9502    0.9127 H       1  LIG1        0.2009
@<TRIPOS>BOND
     1     1     9    1
     2     1    21    3
     3     2     3   ar
     4     2     9   ar
     5     3    10   ar
     6     4     5   ar
     7     4    12   ar
     8     5    13   ar
     9     6     9   ar
    10     6    11   ar
    11     7    10   ar
    12     7    15   ar
    13     8    12   ar
    14     8    14   ar
    15    10    11   ar
    16    11    22   ar
    17    12    23    1
    18    13    14   ar
    19    13    25    1
    20    14    26    1
    21    15    20    1
    22    15    22   ar
    23    16    18    1
    24    16    23    1
    25    17    19    1
    26    17    23    1
    27    18    24    1
    28    19    24    1
    29    20    24    1
    30     2    27    1
    31     3    28    1
    32     4    29    1
    33     5    30    1
    34     6    31    1
    35     7    32    1
    36     8    33    1
    37    16    34    1
    38    16    35    1
    39    17    36    1
    40    17    37    1
    41    18    38    1
    42    18    39    1
    43    19    40    1
    44    19    41    1
    45    20    42    1
    46    20    43    1
    47    22    44    1
    48    24    45    1
