@<TRIPOS>MOLECULE
ChEBML220805
 37 39 0 0 0
SMALL
USER_CHARGES

@<TRIPOS>ATOM
      1 C          -8.5193   -2.9900    0.1643 C.ar    1  LIG1       -0.0490
      2 C          -9.4808   -3.9275   -0.2274 C.ar    1  LIG1       -0.0378
      3 C          -9.9067   -2.2317    2.0158 C.ar    1  LIG1       -0.0231
      4 C          -6.1303   -0.2449   -0.1870 C.ar    1  LIG1       -0.0326
      5 C          -4.0960   -1.3249    0.1248 C.ar    1  LIG1       -0.0128
      6 C          -8.7264   -2.1563    1.2657 C.ar    1  LIG1        0.0253
      7 C          -4.7848   -0.4004   -0.6292 C.ar    1  LIG1        0.0350
      8 C         -10.8836   -3.1677    1.6364 C.ar    1  LIG1        0.0887
      9 C         -10.6485   -3.9849    0.5343 C.ar    1  LIG1        0.0586
     10 C          -6.4187   -1.0568    0.8880 C.ar    1  LIG1        0.0604
     11 C         -12.6174   -4.4007    1.4536 C.ar    1  LIG1        0.1917
     12 C          -7.7018   -1.1939    1.6408 C.2     1  LIG1        0.1993
     13 C          -4.1805    0.3054   -1.7280 C.2     1  LIG1        0.2665
     14 C         -14.4057   -6.0517    0.8314 C.2     1  LIG1        0.3569
     15 C         -16.3417   -7.4168    0.6382 C.3     1  LIG1        0.0469
     16 C          -3.0622   -0.3268   -2.5581 C.3     1  LIG1        0.4544
     17 N         -12.1114   -3.4404    2.1945 N.ar    1  LIG1       -0.2170
     18 N         -11.7736   -4.7632    0.4407 N.ar    1  LIG1       -0.2851
     19 N         -13.8298   -5.0226    1.6010 N.am    1  LIG1       -0.2327
     20 O          -7.8729   -0.4476    2.6158 O.2     1  LIG1       -0.2879
     21 O          -4.5417    1.4639   -2.0499 O.2     1  LIG1       -0.2839
     22 O         -13.9048   -6.5952   -0.1455 O.2     1  LIG1       -0.2420
     23 O         -15.6386   -6.3783    1.3300 O.3     1  LIG1       -0.3034
     24 F          -2.7584   -1.5737   -2.1163 F       1  LIG1       -0.1630
     25 F          -3.4131   -0.4370   -3.8645 F       1  LIG1       -0.1630
     26 F          -1.9042    0.3836   -2.5298 F       1  LIG1       -0.1630
     27 S          -5.0704   -2.0010    1.3600 S.2     1  LIG1       -0.0931
     28 H          -7.5961   -2.9182   -0.4076 H       1  LIG1        0.0631
     29 H          -9.3222   -4.5754   -1.0821 H       1  LIG1        0.0643
     30 H         -10.0697   -1.5844    2.8725 H       1  LIG1        0.0654
     31 H          -6.8508    0.4286   -0.6353 H       1  LIG1        0.0644
     32 H          -3.0673   -1.6403    0.0149 H       1  LIG1        0.0708
     33 H         -17.3060   -7.5900    1.1223 H       1  LIG1        0.0537
     34 H         -15.7457   -8.3328    0.6512 H       1  LIG1        0.0537
     35 H         -16.5065   -7.1064   -0.3963 H       1  LIG1        0.0537
     36 H         -11.9488   -5.4782   -0.2524 H       1  LIG1        0.1557
     37 H         -14.4066   -4.6867    2.3943 H       1  LIG1        0.1610
@<TRIPOS>BOND
     1     1     2   ar
     2     1     6   ar
     3     2     9   ar
     4     3     6   ar
     5     3     8   ar
     6     4     7   ar
     7     4    10   ar
     8     5     7   ar
     9     5    27   ar
    10     6    12    1
    11     7    13    1
    12     8     9   ar
    13     8    17   ar
    14     9    18   ar
    15    10    12    1
    16    10    27   ar
    17    11    17   ar
    18    11    18   ar
    19    11    19    1
    20    12    20    2
    21    13    16    1
    22    13    21    2
    23    14    19   am
    24    14    22    2
    25    14    23    1
    26    15    23    1
    27    16    24    1
    28    16    25    1
    29    16    26    1
    30     1    28    1
    31     2    29    1
    32     3    30    1
    33     4    31    1
    34     5    32    1
    35    15    33    1
    36    15    34    1
    37    15    35    1
    38    18    36    1
    39    19    37    1
