@<TRIPOS>MOLECULE
ChEBML486239
 34 36 0 0 0
SMALL
USER_CHARGES

@<TRIPOS>ATOM
      1 C         -10.2727   -5.3773    0.8924 C.ar    1  LIG1       -0.0387
      2 C         -11.6106   -5.7509    1.0481 C.ar    1  LIG1       -0.0416
      3 C         -12.1870   -3.5495    1.8959 C.ar    1  LIG1       -0.0343
      4 C         -10.1353   -1.9419    1.9990 C.ar    1  LIG1       -0.0262
      5 C          -3.8229    0.7206    0.8449 C.ar    1  LIG1        0.0423
      6 C         -10.8439   -3.1500    1.7476 C.ar    1  LIG1       -0.0007
      7 C          -9.9196   -4.0713    1.2503 C.ar    1  LIG1        0.0379
      8 C         -12.5547   -4.8528    1.5420 C.ar    1  LIG1        0.0413
      9 C          -8.8191   -2.1492    1.6562 C.ar    1  LIG1        0.0949
     10 C          -3.3523    0.0179   -0.2445 C.ar    1  LIG1        0.0418
     11 C          -5.4867   -0.6903    0.6188 C.ar    1  LIG1        0.1639
     12 C          -7.7275   -1.2307    1.7333 C.2     1  LIG1        0.2630
     13 C          -1.2163   -1.0746   -1.0441 C.3     1  LIG1        0.0739
     14 C          -2.1025    0.1879   -1.0103 C.3     1  LIG1        0.1098
     15 N          -5.0468    0.3161    1.3411 N.ar    1  LIG1       -0.2334
     16 N          -8.6989   -3.4364    1.2054 N.ar    1  LIG1       -0.3101
     17 N          -6.6992   -1.4074    0.7780 N.am    1  LIG1       -0.2590
     18 O          -7.6537   -0.3391    2.6099 O.2     1  LIG1       -0.2699
     19 O          -1.9425   -2.1447   -1.6318 O.3     1  LIG1       -0.3932
     20 O          -2.4011    0.5586   -2.3677 O.3     1  LIG1       -0.3853
     21 S          -4.4790   -1.2022   -0.6725 S.2     1  LIG1       -0.0542
     22 CL        -14.1949   -5.3499    1.7182 Cl      1  LIG1       -0.0843
     23 H          -9.5385   -6.0777    0.5084 H       1  LIG1        0.0643
     24 H         -11.9032   -6.7627    0.7753 H       1  LIG1        0.0639
     25 H         -12.9221   -2.8480    2.2816 H       1  LIG1        0.0645
     26 H         -10.5483   -1.0211    2.3891 H       1  LIG1        0.0651
     27 H          -3.3113    1.5470    1.3204 H       1  LIG1        0.0850
     28 H          -0.3021   -0.9011   -1.6224 H       1  LIG1        0.0595
     29 H          -0.9113   -1.3776   -0.0362 H       1  LIG1        0.0595
     30 H          -1.4942    1.0201   -0.5998 H       1  LIG1        0.0683
     31 H          -7.8398   -3.8625    0.8855 H       1  LIG1        0.1529
     32 H          -6.8519   -2.1575    0.1085 H       1  LIG1        0.1581
     33 H          -1.3529   -2.9163   -1.6342 H       1  LIG1        0.2102
     34 H          -1.5467    0.6528   -2.8087 H       1  LIG1        0.2111
@<TRIPOS>BOND
     1     1     2   ar
     2     1     7   ar
     3     2     8   ar
     4     3     6   ar
     5     3     8   ar
     6     4     6   ar
     7     4     9   ar
     8     5    10   ar
     9     5    15   ar
    10     6     7   ar
    11     7    16   ar
    12     8    22    1
    13     9    12    1
    14     9    16   ar
    15    10    14    1
    16    10    21   ar
    17    11    15   ar
    18    11    17    1
    19    11    21   ar
    20    12    17   am
    21    12    18    2
    22    13    14    1
    23    13    19    1
    24    14    20    1
    25     1    23    1
    26     2    24    1
    27     3    25    1
    28     4    26    1
    29     5    27    1
    30    13    28    1
    31    13    29    1
    32    14    30    1
    33    16    31    1
    34    17    32    1
    35    19    33    1
    36    20    34    1
