@<TRIPOS>MOLECULE
ChEBML369992
 46 49 0 0 0
SMALL
USER_CHARGES

@<TRIPOS>ATOM
      1 C          -1.4358    1.3764   -3.4458 C.ar    1  LIG1       -0.0622
      2 C          -2.8003    1.6652   -3.4281 C.ar    1  LIG1       -0.0620
      3 C          -0.9891    0.0977   -3.1124 C.ar    1  LIG1       -0.0620
      4 C         -10.7726   -4.5760   -0.0461 C.ar    1  LIG1       -0.0496
      5 C          -3.7182    0.6755   -3.0767 C.ar    1  LIG1       -0.0590
      6 C          -1.9071   -0.8922   -2.7611 C.ar    1  LIG1       -0.0590
      7 C         -11.9149   -5.1391    0.5394 C.ar    1  LIG1       -0.0313
      8 C          -8.8401   -2.8914    0.4799 C.ar    1  LIG1       -0.0159
      9 C         -11.5649   -3.8848    2.5980 C.ar    1  LIG1       -0.0005
     10 C         -10.0163   -3.6555    0.7003 C.ar    1  LIG1        0.0083
     11 C          -3.2716   -0.6032   -2.7432 C.ar    1  LIG1       -0.0477
     12 C         -10.4346   -3.3421    1.9895 C.ar    1  LIG1        0.0922
     13 C         -12.3018   -4.7979    1.8379 C.ar    1  LIG1        0.0740
     14 C          -8.6224   -2.1732    1.6328 C.ar    1  LIG1        0.1453
     15 C          -7.5943   -1.2392    1.9875 C.2     1  LIG1        0.2693
     16 C          -5.5146   -2.8008   -0.4892 C.3     1  LIG1       -0.0341
     17 C          -5.0685   -0.3183   -0.3938 C.3     1  LIG1       -0.0341
     18 C          -5.8586   -2.7685    0.9988 C.3     1  LIG1        0.0148
     19 C          -5.4140   -0.3453    1.0930 C.3     1  LIG1        0.0148
     20 C          -4.5305   -1.6803   -0.8613 C.3     1  LIG1       -0.0344
     21 C          -4.2608   -1.6709   -2.3640 C.3     1  LIG1       -0.0249
     22 N          -6.3451   -1.4434    1.3865 N.am    1  LIG1       -0.2961
     23 O          -7.8272   -0.3246    2.7757 O.2     1  LIG1       -0.2693
     24 O          -9.5842   -2.4395    2.5546 O.2     1  LIG1       -0.3041
     25 O         -13.4197   -5.3659    2.3747 O.3     1  LIG1       -0.3608
     26 H          -0.7212    2.1468   -3.7208 H       1  LIG1        0.0622
     27 H          -3.1483    2.6605   -3.6887 H       1  LIG1        0.0623
     28 H           0.0730   -0.1279   -3.1272 H       1  LIG1        0.0623
     29 H         -10.4849   -4.8502   -1.0565 H       1  LIG1        0.0631
     30 H          -4.7794    0.9097   -3.0653 H       1  LIG1        0.0625
     31 H          -1.5499   -1.8855   -2.5026 H       1  LIG1        0.0625
     32 H         -12.5043   -5.8512   -0.0334 H       1  LIG1        0.0650
     33 H          -8.2298   -2.8695   -0.4125 H       1  LIG1        0.0660
     34 H         -11.8544   -3.6123    3.6063 H       1  LIG1        0.0678
     35 H          -5.0879   -3.7777   -0.7449 H       1  LIG1        0.0285
     36 H          -6.4371   -2.6884   -1.0736 H       1  LIG1        0.0285
     37 H          -5.9668   -0.0590   -0.9689 H       1  LIG1        0.0285
     38 H          -4.3255    0.4652   -0.5833 H       1  LIG1        0.0285
     39 H          -6.6034   -3.5386    1.2230 H       1  LIG1        0.0469
     40 H          -4.9703   -2.9838    1.6043 H       1  LIG1        0.0469
     41 H          -4.5119   -0.5134    1.6934 H       1  LIG1        0.0469
     42 H          -5.8237    0.6235    1.3889 H       1  LIG1        0.0469
     43 H          -3.5791   -1.8714   -0.3473 H       1  LIG1        0.0307
     44 H          -5.2015   -1.5165   -2.9024 H       1  LIG1        0.0319
     45 H          -3.8875   -2.6526   -2.6736 H       1  LIG1        0.0319
     46 H         -13.8242   -5.9736    1.7367 H       1  LIG1        0.2182
@<TRIPOS>BOND
     1     1     2   ar
     2     1     3   ar
     3     2     5   ar
     4     3     6   ar
     5     4     7   ar
     6     4    10   ar
     7     5    11   ar
     8     6    11   ar
     9     7    13   ar
    10     8    10   ar
    11     8    14   ar
    12     9    12   ar
    13     9    13   ar
    14    10    12   ar
    15    11    21    1
    16    12    24   ar
    17    13    25    1
    18    14    15    1
    19    14    24   ar
    20    15    22   am
    21    15    23    2
    22    16    18    1
    23    16    20    1
    24    17    19    1
    25    17    20    1
    26    18    22    1
    27    19    22    1
    28    20    21    1
    29     1    26    1
    30     2    27    1
    31     3    28    1
    32     4    29    1
    33     5    30    1
    34     6    31    1
    35     7    32    1
    36     8    33    1
    37     9    34    1
    38    16    35    1
    39    16    36    1
    40    17    37    1
    41    17    38    1
    42    18    39    1
    43    18    40    1
    44    19    41    1
    45    19    42    1
    46    20    43    1
    47    21    44    1
    48    21    45    1
    49    25    46    1
