@<TRIPOS>MOLECULE
ChEBML208208
 41 44 0 0 0
SMALL
USER_CHARGES

@<TRIPOS>ATOM
      1 C         -12.8270   -4.0063    0.9599 C.ar    1  LIG1       -0.0600
      2 C         -12.0877   -4.9007    0.1823 C.ar    1  LIG1       -0.0602
      3 C          -1.4367   -0.0199   -2.5936 C.ar    1  LIG1       -0.0586
      4 C          -1.9035    0.8421   -3.5797 C.ar    1  LIG1       -0.0438
      5 C         -12.1927   -3.0109    1.7140 C.ar    1  LIG1       -0.0344
      6 C         -10.6915   -4.8339    0.1292 C.ar    1  LIG1       -0.0385
      7 C          -2.3024   -0.4652   -1.6007 C.ar    1  LIG1       -0.0361
      8 C          -3.2338    1.2261   -3.5288 C.ar    1  LIG1        0.0275
      9 C         -10.7906   -2.9295    1.6724 C.ar    1  LIG1        0.0864
     10 C         -10.0813   -3.8347    0.8881 C.ar    1  LIG1        0.0575
     11 C          -3.6148   -0.0225   -1.6384 C.ar    1  LIG1        0.0663
     12 C          -8.7322   -2.4206    1.9249 C.ar    1  LIG1        0.1434
     13 C          -4.7175    0.2390    0.5154 C.2     1  LIG1       -0.0351
     14 C          -4.5569   -0.4600   -0.6242 C.2     1  LIG1       -0.0159
     15 C          -5.6792   -0.1668    1.5895 C.3     1  LIG1       -0.0143
     16 C          -5.3571   -1.7184   -0.8787 C.3     1  LIG1        0.0137
     17 C          -5.9541   -2.3315    0.3882 C.3     1  LIG1       -0.0293
     18 C          -7.4328   -1.7907    2.3321 C.3     1  LIG1        0.0235
     19 N          -4.1046    0.8145   -2.5802 N.ar    1  LIG1       -0.2566
     20 N          -9.9359   -2.0588    2.3088 N.ar    1  LIG1       -0.2303
     21 N          -8.7674   -3.4858    1.0687 N.ar    1  LIG1       -0.2969
     22 N          -6.6521   -1.2485    1.1698 N.4     1  LIG1        0.2545
     23 H         -13.9111   -4.0831    0.9804 H       1  LIG1        0.0623
     24 H         -12.6066   -5.6643   -0.3919 H       1  LIG1        0.0623
     25 H          -0.4005   -0.3445   -2.5999 H       1  LIG1        0.0624
     26 H          -1.2463    1.2022   -4.3627 H       1  LIG1        0.0639
     27 H         -12.7766   -2.3204    2.3141 H       1  LIG1        0.0646
     28 H         -10.1162   -5.5265   -0.4747 H       1  LIG1        0.0643
     29 H          -1.9451   -1.1383   -0.8279 H       1  LIG1        0.0645
     30 H          -3.6469    1.8983   -4.2737 H       1  LIG1        0.0840
     31 H          -4.1332    1.1380    0.6955 H       1  LIG1        0.0635
     32 H          -5.1259   -0.5381    2.4596 H       1  LIG1        0.0863
     33 H          -6.2886    0.6913    1.8920 H       1  LIG1        0.0863
     34 H          -6.1610   -1.4833   -1.5882 H       1  LIG1        0.0371
     35 H          -4.7215   -2.4746   -1.3559 H       1  LIG1        0.0371
     36 H          -6.6974   -3.0946    0.1346 H       1  LIG1        0.0818
     37 H          -5.1863   -2.7690    1.0368 H       1  LIG1        0.0818
     38 H          -7.5968   -0.9534    3.0188 H       1  LIG1        0.0899
     39 H          -6.7837   -2.5142    2.8371 H       1  LIG1        0.0899
     40 H          -7.9691   -3.9375    0.6422 H       1  LIG1        0.1542
     41 H          -7.3357   -0.8119    0.5357 H       1  LIG1        0.2012
@<TRIPOS>BOND
     1     1     2   ar
     2     1     5   ar
     3     2     6   ar
     4     3     4   ar
     5     3     7   ar
     6     4     8   ar
     7     5     9   ar
     8     6    10   ar
     9     7    11   ar
    10     8    19   ar
    11     9    10   ar
    12     9    20   ar
    13    10    21   ar
    14    11    14    1
    15    11    19   ar
    16    12    18    1
    17    12    20   ar
    18    12    21   ar
    19    13    14    2
    20    13    15    1
    21    14    16    1
    22    15    22    1
    23    16    17    1
    24    17    22    1
    25    18    22    1
    26     1    23    1
    27     2    24    1
    28     3    25    1
    29     4    26    1
    30     5    27    1
    31     6    28    1
    32     7    29    1
    33     8    30    1
    34    13    31    1
    35    15    32    1
    36    15    33    1
    37    16    34    1
    38    16    35    1
    39    17    36    1
    40    17    37    1
    41    18    38    1
    42    18    39    1
    43    21    40    1
    44    22    41    1
