@<TRIPOS>MOLECULE
ChEBML248653
 45 48 0 0 0
SMALL
USER_CHARGES

@<TRIPOS>ATOM
      1 C         -12.5270   -4.7631    1.2743 C.ar    1  LIG1       -0.0599
      2 C         -11.6736   -5.4902    0.4581 C.ar    1  LIG1       -0.0599
      3 C         -12.0546   -3.6216    1.9196 C.ar    1  LIG1       -0.0342
      4 C         -10.3548   -5.0699    0.2944 C.ar    1  LIG1       -0.0341
      5 C          -2.6242   -1.0345   -1.2329 C.ar    1  LIG1       -0.0032
      6 C          -1.8407   -0.5904   -2.2786 C.ar    1  LIG1        0.0326
      7 C          -9.0262   -1.7197    2.2090 C.ar    1  LIG1        0.0680
      8 C         -10.7386   -3.1930    1.7628 C.ar    1  LIG1        0.0888
      9 C          -9.8727   -3.9308    0.9349 C.ar    1  LIG1        0.0909
     10 C          -3.8166   -0.3635   -1.0535 C.ar    1  LIG1        0.1238
     11 C          -8.1832   -2.4380    1.4032 C.ar    1  LIG1        0.1393
     12 C          -3.3714    1.0020   -2.8153 C.ar    1  LIG1        0.1582
     13 C          -4.5904   -2.1819    0.3799 C.3     1  LIG1        0.0287
     14 C          -5.8444   -0.0148    0.2420 C.3     1  LIG1        0.0287
     15 C          -5.9992   -2.7816    0.3932 C.3     1  LIG1        0.0288
     16 C          -6.5937   -0.5862    1.4489 C.3     1  LIG1        0.0288
     17 C          -2.6030    2.8887   -4.3003 C.3     1  LIG1       -0.0315
     18 C          -3.7866    2.1324   -3.6946 C.3     1  LIG1        0.1109
     19 N         -10.3063   -2.0884    2.3959 N.ar    1  LIG1       -0.2509
     20 N          -2.1849    0.4289   -3.0927 N.ar    1  LIG1       -0.2384
     21 N          -8.5963   -3.5455    0.7611 N.ar    1  LIG1       -0.2297
     22 N          -4.2232    0.6630   -1.8288 N.ar    1  LIG1       -0.2153
     23 N          -4.6243   -0.7765   -0.0246 N.pl3   1  LIG1       -0.3126
     24 N          -6.8896   -2.0059    1.2563 N.pl3   1  LIG1       -0.3114
     25 O          -4.5810    1.6215   -4.7715 O.3     1  LIG1       -0.3853
     26 H         -13.5567   -5.0796    1.4101 H       1  LIG1        0.0623
     27 H         -12.0295   -6.3802   -0.0519 H       1  LIG1        0.0623
     28 H         -12.7349   -3.0612    2.5580 H       1  LIG1        0.0646
     29 H          -9.6964   -5.6491   -0.3499 H       1  LIG1        0.0646
     30 H          -2.3110   -1.8575   -0.6030 H       1  LIG1        0.0676
     31 H          -0.8862   -1.0567   -2.4973 H       1  LIG1        0.0841
     32 H          -8.7155   -0.8246    2.7346 H       1  LIG1        0.0877
     33 H          -4.1496   -2.2435    1.3826 H       1  LIG1        0.0485
     34 H          -3.9527   -2.7742   -0.2882 H       1  LIG1        0.0485
     35 H          -6.4953   -0.0438   -0.6415 H       1  LIG1        0.0485
     36 H          -5.5940    1.0348    0.4370 H       1  LIG1        0.0485
     37 H          -6.4006   -2.7974   -0.6287 H       1  LIG1        0.0485
     38 H          -5.9466   -3.8183    0.7466 H       1  LIG1        0.0485
     39 H          -5.9811   -0.4794    2.3526 H       1  LIG1        0.0485
     40 H          -7.5105   -0.0058    1.6120 H       1  LIG1        0.0485
     41 H          -1.9396    2.2104   -4.8464 H       1  LIG1        0.0261
     42 H          -2.0168    3.3973   -3.5266 H       1  LIG1        0.0261
     43 H          -2.9486    3.6678   -4.9886 H       1  LIG1        0.0261
     44 H          -4.4183    2.8616   -3.1591 H       1  LIG1        0.0683
     45 H          -4.8255    2.3862   -5.3117 H       1  LIG1        0.2111
@<TRIPOS>BOND
     1     1     2   ar
     2     1     3   ar
     3     2     4   ar
     4     3     8   ar
     5     4     9   ar
     6     5     6   ar
     7     5    10   ar
     8     6    20   ar
     9     7    11   ar
    10     7    19   ar
    11     8     9   ar
    12     8    19   ar
    13     9    21   ar
    14    10    22   ar
    15    10    23    1
    16    11    21   ar
    17    11    24    1
    18    12    18    1
    19    12    20   ar
    20    12    22   ar
    21    13    15    1
    22    13    23    1
    23    14    16    1
    24    14    23    1
    25    15    24    1
    26    16    24    1
    27    17    18    1
    28    18    25    1
    29     1    26    1
    30     2    27    1
    31     3    28    1
    32     4    29    1
    33     5    30    1
    34     6    31    1
    35     7    32    1
    36    13    33    1
    37    13    34    1
    38    14    35    1
    39    14    36    1
    40    15    37    1
    41    15    38    1
    42    16    39    1
    43    16    40    1
    44    17    41    1
    45    17    42    1
    46    17    43    1
    47    18    44    1
    48    25    45    1
