@<TRIPOS>MOLECULE
ChEBML1271570
 57 62 0 0 0
SMALL
USER_CHARGES

@<TRIPOS>ATOM
      1 C          -9.7582   -7.7686    0.8479 C.ar    1  LIG1       -0.0615
      2 C          -2.2534    0.5216   -3.6065 C.ar    1  LIG1       -0.0616
      3 C          -3.4595    1.1681   -3.4048 C.ar    1  LIG1       -0.0619
      4 C         -11.1137   -7.9344    0.6077 C.ar    1  LIG1       -0.0603
      5 C          -9.2519   -6.5188    1.1327 C.ar    1  LIG1       -0.0524
      6 C          -1.8635   -0.5038   -2.7702 C.ar    1  LIG1       -0.0547
      7 C         -10.1816   -1.2499    1.8355 C.ar    1  LIG1       -0.0478
      8 C          -4.2848    0.7886   -2.3594 C.ar    1  LIG1       -0.0575
      9 C         -11.9703   -6.8557    0.6506 C.ar    1  LIG1       -0.0399
     10 C         -11.2820   -2.0012    1.5446 C.ar    1  LIG1       -0.0392
     11 C          -8.7819   -3.2207    1.7502 C.ar    1  LIG1       -0.0398
     12 C         -10.1066   -5.4205    1.1794 C.ar    1  LIG1        0.0051
     13 C          -9.9012   -3.9847    1.4482 C.ar    1  LIG1        0.0059
     14 C          -2.6895   -0.8932   -1.7135 C.ar    1  LIG1       -0.0218
     15 C          -8.9188   -1.8461    1.9377 C.ar    1  LIG1        0.0380
     16 C          -3.9054   -0.2326   -1.5202 C.ar    1  LIG1       -0.0306
     17 C         -11.4780   -5.5859    0.9370 C.ar    1  LIG1        0.0409
     18 C         -11.1640   -3.3759    1.3441 C.ar    1  LIG1        0.0410
     19 C          -2.5412   -1.9328   -0.6780 C.2     1  LIG1       -0.0578
     20 C          -3.5863   -1.9487    0.1322 C.2     1  LIG1       -0.0732
     21 C          -7.7356   -1.0218    2.2531 C.2     1  LIG1        0.2455
     22 C          -5.8859   -1.5045   -0.7111 C.3     1  LIG1       -0.0239
     23 C          -4.7487    0.1521    0.7898 C.3     1  LIG1       -0.0239
     24 C          -6.4944   -2.2066    0.5073 C.3     1  LIG1        0.0156
     25 C          -5.3489   -0.5319    2.0172 C.3     1  LIG1        0.0156
     26 C          -4.5485   -0.8785   -0.3199 C.3     1  LIG1        0.0171
     27 C         -13.8052   -3.8036   -0.6142 C.3     1  LIG1       -0.0490
     28 C         -13.5259   -4.1113    0.8584 C.3     1  LIG1        0.0138
     29 N         -12.0925   -4.3507    1.0439 N.ar    1  LIG1       -0.3000
     30 N          -6.5687   -1.2466    1.6172 N.am    1  LIG1       -0.2977
     31 O          -7.8137   -0.1400    3.0865 O.2     1  LIG1       -0.2716
     32 H          -9.0971   -8.6218    0.8119 H       1  LIG1        0.0623
     33 H          -1.6134    0.8213   -4.4232 H       1  LIG1        0.0623
     34 H          -3.7582    1.9699   -4.0637 H       1  LIG1        0.0623
     35 H         -11.5016   -8.9176    0.3856 H       1  LIG1        0.0623
     36 H          -8.1957   -6.3917    1.3191 H       1  LIG1        0.0630
     37 H          -0.9205   -1.0049   -2.9323 H       1  LIG1        0.0629
     38 H         -10.2850   -0.1857    1.9881 H       1  LIG1        0.0631
     39 H          -5.2263    1.2943   -2.2036 H       1  LIG1        0.0626
     40 H         -13.0245   -6.9959    0.4619 H       1  LIG1        0.0643
     41 H         -12.2503   -1.5287    1.4688 H       1  LIG1        0.0643
     42 H          -7.8103   -3.6858    1.8260 H       1  LIG1        0.0638
     43 H          -1.6912   -2.5937   -0.5925 H       1  LIG1        0.0626
     44 H          -3.7266   -2.6128    0.9723 H       1  LIG1        0.0585
     45 H          -5.7281   -2.2310   -1.5082 H       1  LIG1        0.0295
     46 H          -6.5644   -0.7252   -1.0583 H       1  LIG1        0.0295
     47 H          -3.7879    0.5950    1.0524 H       1  LIG1        0.0295
     48 H          -5.4265    0.9323    0.4434 H       1  LIG1        0.0295
     49 H          -5.8663   -3.0497    0.7948 H       1  LIG1        0.0470
     50 H          -7.4959   -2.5607    0.2628 H       1  LIG1        0.0470
     51 H          -5.5949    0.2187    2.7684 H       1  LIG1        0.0470
     52 H          -4.6283   -1.2397    2.4268 H       1  LIG1        0.0470
     53 H         -14.8716   -3.6253   -0.7521 H       1  LIG1        0.0246
     54 H         -13.2469   -2.9161   -0.9121 H       1  LIG1        0.0246
     55 H         -13.4959   -4.6501   -1.2271 H       1  LIG1        0.0246
     56 H         -13.8352   -3.2647    1.4715 H       1  LIG1        0.0470
     57 H         -14.0841   -4.9987    1.1564 H       1  LIG1        0.0470
@<TRIPOS>BOND
     1     1     4   ar
     2     1     5   ar
     3     2     3   ar
     4     2     6   ar
     5     3     8   ar
     6     4     9   ar
     7     5    12   ar
     8     6    14   ar
     9     7    10   ar
    10     7    15   ar
    11     8    16   ar
    12     9    17   ar
    13    10    18   ar
    14    11    13   ar
    15    11    15   ar
    16    12    13   ar
    17    12    17   ar
    18    13    18   ar
    19    14    16   ar
    20    14    19    1
    21    15    21    1
    22    16    26    1
    23    17    29   ar
    24    18    29   ar
    25    19    20    2
    26    20    26    1
    27    21    30   am
    28    21    31    2
    29    22    24    1
    30    22    26    1
    31    23    25    1
    32    23    26    1
    33    24    30    1
    34    25    30    1
    35    27    28    1
    36    28    29    1
    37     1    32    1
    38     2    33    1
    39     3    34    1
    40     4    35    1
    41     5    36    1
    42     6    37    1
    43     7    38    1
    44     8    39    1
    45     9    40    1
    46    10    41    1
    47    11    42    1
    48    19    43    1
    49    20    44    1
    50    22    45    1
    51    22    46    1
    52    23    47    1
    53    23    48    1
    54    24    49    1
    55    24    50    1
    56    25    51    1
    57    25    52    1
    58    27    53    1
    59    27    54    1
    60    27    55    1
    61    28    56    1
    62    28    57    1
