@<TRIPOS>MOLECULE
ChEBML1137605
 53 56 0 0 0
SMALL
USER_CHARGES

@<TRIPOS>ATOM
      1 C          -3.6529    1.2134   -3.2082 C.ar    1  LIG1       -0.0602
      2 C          -2.3857    0.8225   -3.5989 C.ar    1  LIG1       -0.0595
      3 C         -12.9821   -2.5087    1.8868 C.ar    1  LIG1       -0.0513
      4 C         -12.5291   -4.6772    0.9367 C.ar    1  LIG1       -0.0513
      5 C          -4.2547    0.6235   -2.1125 C.ar    1  LIG1       -0.0382
      6 C          -1.7136   -0.1605   -2.8959 C.ar    1  LIG1       -0.0298
      7 C         -14.3328   -2.7921    1.8765 C.ar    1  LIG1       -0.0428
      8 C         -13.8811   -4.9538    0.9361 C.ar    1  LIG1       -0.0428
      9 C         -10.0163   -1.9652    1.8825 C.ar    1  LIG1       -0.0059
     10 C         -12.0711   -3.4530    1.4187 C.ar    1  LIG1        0.0019
     11 C          -3.5887   -0.3671   -1.4056 C.ar    1  LIG1        0.0595
     12 C          -2.3094   -0.7563   -1.7966 C.ar    1  LIG1        0.0968
     13 C         -14.7827   -4.0121    1.4020 C.ar    1  LIG1        0.0406
     14 C         -10.6171   -3.1531    1.4276 C.ar    1  LIG1        0.0905
     15 C          -8.6594   -2.1480    1.6954 C.ar    1  LIG1        0.1123
     16 C          -7.5889   -1.1895    2.0145 C.2     1  LIG1        0.2614
     17 C           0.4035   -2.9586   -1.0176 C.2     1  LIG1        0.2357
     18 C          -4.5882    0.1136    0.6099 C.3     1  LIG1        0.0275
     19 C          -5.4310   -1.5985   -0.7875 C.3     1  LIG1        0.0275
     20 C          -5.2438   -0.4778    1.8620 C.3     1  LIG1        0.0303
     21 C          -6.1423   -2.3029    0.3723 C.3     1  LIG1        0.0303
     22 C          -0.3818   -1.8950   -1.7408 C.3     1  LIG1        0.1297
     23 N          -9.6560   -3.9508    1.0118 N.ar    1  LIG1       -0.1834
     24 N          -8.5081   -3.3918    1.1498 N.ar    1  LIG1       -0.2326
     25 N          -4.1982   -0.9701   -0.2993 N.pl3   1  LIG1       -0.3255
     26 N          -6.3763   -1.3178    1.4404 N.am    1  LIG1       -0.2935
     27 N           1.6378   -3.2920   -1.4440 N.am    1  LIG1       -0.3271
     28 O          -7.7987   -0.2817    2.7962 O.2     1  LIG1       -0.2701
     29 O          -0.0752   -3.5146   -0.0518 O.2     1  LIG1       -0.2752
     30 O          -1.6494   -1.7229   -1.1039 O.3     1  LIG1       -0.3345
     31 CL        -16.4829   -4.3628    1.3915 Cl      1  LIG1       -0.0843
     32 H          -4.1738    1.9818   -3.7601 H       1  LIG1        0.0623
     33 H          -1.9192    1.2864   -4.4554 H       1  LIG1        0.0623
     34 H         -12.6320   -1.5567    2.2575 H       1  LIG1        0.0630
     35 H         -11.8269   -5.4104    0.5683 H       1  LIG1        0.0630
     36 H          -5.2445    0.9309   -1.8092 H       1  LIG1        0.0643
     37 H          -0.7239   -0.4635   -3.2038 H       1  LIG1        0.0651
     38 H         -15.0397   -2.0608    2.2396 H       1  LIG1        0.0638
     39 H         -14.2368   -5.9045    0.5676 H       1  LIG1        0.0638
     40 H         -10.5101   -1.0961    2.2912 H       1  LIG1        0.0668
     41 H          -3.7038    0.6822    0.8974 H       1  LIG1        0.0485
     42 H          -5.2955    0.7727    0.1067 H       1  LIG1        0.0485
     43 H          -6.0869   -0.8348   -1.2054 H       1  LIG1        0.0485
     44 H          -5.1855   -2.3278   -1.5595 H       1  LIG1        0.0485
     45 H          -4.5187   -1.0846    2.4044 H       1  LIG1        0.0486
     46 H          -5.6027    0.3271    2.5034 H       1  LIG1        0.0486
     47 H          -5.5166   -3.1117    0.7496 H       1  LIG1        0.0486
     48 H          -7.0952   -2.7050    0.0286 H       1  LIG1        0.0486
     49 H           0.1691   -0.9549   -1.7135 H       1  LIG1        0.0674
     50 H          -0.5339   -2.1971   -2.7770 H       1  LIG1        0.0674
     51 H          -7.6597   -3.7936    0.9055 H       1  LIG1        0.1757
     52 H           2.1432   -3.9767   -0.9785 H       1  LIG1        0.1455
     53 H           2.0191   -2.8502   -2.2188 H       1  LIG1        0.1455
@<TRIPOS>BOND
     1     1     2   ar
     2     1     5   ar
     3     2     6   ar
     4     3     7   ar
     5     3    10   ar
     6     4     8   ar
     7     4    10   ar
     8     5    11   ar
     9     6    12   ar
    10     7    13   ar
    11     8    13   ar
    12     9    14   ar
    13     9    15   ar
    14    10    14    1
    15    11    12   ar
    16    11    25    1
    17    12    30    1
    18    13    31    1
    19    14    23   ar
    20    15    16    1
    21    15    24   ar
    22    16    26   am
    23    16    28    2
    24    17    22    1
    25    17    27   am
    26    17    29    2
    27    18    20    1
    28    18    25    1
    29    19    21    1
    30    19    25    1
    31    20    26    1
    32    21    26    1
    33    22    30    1
    34    23    24   ar
    35     1    32    1
    36     2    33    1
    37     3    34    1
    38     4    35    1
    39     5    36    1
    40     6    37    1
    41     7    38    1
    42     8    39    1
    43     9    40    1
    44    18    41    1
    45    18    42    1
    46    19    43    1
    47    19    44    1
    48    20    45    1
    49    20    46    1
    50    21    47    1
    51    21    48    1
    52    22    49    1
    53    22    50    1
    54    24    51    1
    55    27    52    1
    56    27    53    1
