@<TRIPOS>MOLECULE
ChEBML122546
 43 46 0 0 0
SMALL
USER_CHARGES

@<TRIPOS>ATOM
      1 C         -12.1302   -5.3995    1.3567 C.ar    1  LIG1       -0.0600
      2 C         -11.1522   -5.9732    0.5411 C.ar    1  LIG1       -0.0602
      3 C          -1.7497   -0.5082   -2.3764 C.ar    1  LIG1       -0.0603
      4 C          -1.8127    0.4216   -3.4142 C.ar    1  LIG1       -0.0606
      5 C         -11.9090   -4.1724    1.9943 C.ar    1  LIG1       -0.0344
      6 C          -9.9203   -5.3441    0.3329 C.ar    1  LIG1       -0.0385
      7 C          -2.8128   -0.6274   -1.4813 C.ar    1  LIG1       -0.0394
      8 C          -2.9388    1.2322   -3.5570 C.ar    1  LIG1       -0.0416
      9 C         -10.6769   -3.5264    1.7964 C.ar    1  LIG1        0.0864
     10 C          -9.7219   -4.1229    0.9779 C.ar    1  LIG1        0.0575
     11 C          -3.9391    0.1832   -1.6241 C.ar    1  LIG1        0.0479
     12 C          -4.0021    1.1130   -2.6620 C.ar    1  LIG1        0.0618
     13 C          -9.0047   -2.1986    1.8007 C.ar    1  LIG1        0.1434
     14 C          -4.5702   -0.3914    0.6222 C.3     1  LIG1        0.0509
     15 C          -6.1823   -0.5940   -1.2635 C.3     1  LIG1        0.0509
     16 C          -5.7315   -0.2723    1.5999 C.3     1  LIG1       -0.0177
     17 C          -7.3405   -0.4796   -0.2805 C.3     1  LIG1       -0.0177
     18 C          -8.0574   -1.0593    2.0367 C.3     1  LIG1        0.0233
     19 N         -10.2137   -2.3319    2.2984 N.ar    1  LIG1       -0.2303
     20 N          -8.6630   -3.2519    0.9990 N.ar    1  LIG1       -0.2969
     21 N          -4.9775    0.0420   -0.7209 N.pl3   1  LIG1       -0.3191
     22 N          -6.9174   -1.0289    1.0576 N.4     1  LIG1        0.2537
     23 CL         -5.3773    2.1363   -2.8752 Cl      1  LIG1       -0.0823
     24 H         -13.0781   -5.9125    1.4986 H       1  LIG1        0.0623
     25 H         -11.3509   -6.9277    0.0596 H       1  LIG1        0.0623
     26 H          -0.8728   -1.1392   -2.2652 H       1  LIG1        0.0623
     27 H          -0.9848    0.5142   -4.1110 H       1  LIG1        0.0623
     28 H         -12.6761   -3.7348    2.6251 H       1  LIG1        0.0646
     29 H          -9.1605   -5.7874   -0.3007 H       1  LIG1        0.0643
     30 H          -2.7519   -1.3558   -0.6765 H       1  LIG1        0.0643
     31 H          -2.9719    1.9517   -4.3712 H       1  LIG1        0.0639
     32 H          -3.7414    0.2289    0.9852 H       1  LIG1        0.0524
     33 H          -4.2148   -1.4295    0.5854 H       1  LIG1        0.0524
     34 H          -5.9791   -1.6508   -1.4810 H       1  LIG1        0.0524
     35 H          -6.4739   -0.1133   -2.2055 H       1  LIG1        0.0524
     36 H          -5.4699   -0.7123    2.5677 H       1  LIG1        0.0831
     37 H          -6.0400    0.7700    1.7409 H       1  LIG1        0.0831
     38 H          -7.6436    0.5628   -0.1288 H       1  LIG1        0.0831
     39 H          -8.1993   -1.0654   -0.6244 H       1  LIG1        0.0831
     40 H          -8.5695   -0.0948    1.9531 H       1  LIG1        0.0899
     41 H          -7.6124   -1.1154    3.0360 H       1  LIG1        0.0899
     42 H          -7.7870   -3.3700    0.5072 H       1  LIG1        0.1542
     43 H          -6.6258   -2.0059    0.9154 H       1  LIG1        0.2009
@<TRIPOS>BOND
     1     1     2   ar
     2     1     5   ar
     3     2     6   ar
     4     3     4   ar
     5     3     7   ar
     6     4     8   ar
     7     5     9   ar
     8     6    10   ar
     9     7    11   ar
    10     8    12   ar
    11     9    10   ar
    12     9    19   ar
    13    10    20   ar
    14    11    12   ar
    15    11    21    1
    16    12    23    1
    17    13    18    1
    18    13    19   ar
    19    13    20   ar
    20    14    16    1
    21    14    21    1
    22    15    17    1
    23    15    21    1
    24    16    22    1
    25    17    22    1
    26    18    22    1
    27     1    24    1
    28     2    25    1
    29     3    26    1
    30     4    27    1
    31     5    28    1
    32     6    29    1
    33     7    30    1
    34     8    31    1
    35    14    32    1
    36    14    33    1
    37    15    34    1
    38    15    35    1
    39    16    36    1
    40    16    37    1
    41    17    38    1
    42    17    39    1
    43    18    40    1
    44    18    41    1
    45    20    42    1
    46    22    43    1
