@<TRIPOS>MOLECULE
ChEBML249202
 43 46 0 0 0
SMALL
USER_CHARGES

@<TRIPOS>ATOM
      1 C         -12.6591   -4.3045    1.9367 C.ar    1  LIG1       -0.0615
      2 C         -11.9863   -5.3403    1.3005 C.ar    1  LIG1       -0.0601
      3 C         -11.9997   -3.1024    2.1772 C.ar    1  LIG1       -0.0528
      4 C          -9.9747   -1.7340    2.0104 C.ar    1  LIG1       -0.0493
      5 C         -10.6566   -5.1719    0.9063 C.ar    1  LIG1       -0.0357
      6 C          -8.6543   -1.5982    1.6066 C.ar    1  LIG1       -0.0210
      7 C          -2.6321   -1.0817   -2.0997 C.ar    1  LIG1       -0.0032
      8 C          -1.9575   -0.2709   -2.9895 C.ar    1  LIG1        0.0326
      9 C         -10.6623   -2.9333    1.7807 C.ar    1  LIG1        0.0003
     10 C          -9.9731   -3.9806    1.1340 C.ar    1  LIG1        0.0725
     11 C          -8.0639   -2.6778    0.9816 C.ar    1  LIG1        0.1207
     12 C          -3.7642   -0.5332   -1.5323 C.ar    1  LIG1        0.1238
     13 C          -3.4680    1.4011   -2.6888 C.ar    1  LIG1        0.1554
     14 C          -5.8789   -1.6526    1.3480 C.3     1  LIG1        0.0287
     15 C          -6.4359   -2.7800   -0.8214 C.3     1  LIG1        0.0287
     16 C          -5.1954   -0.6358    0.4297 C.3     1  LIG1        0.0287
     17 C          -4.9333   -2.6260   -1.0727 C.3     1  LIG1        0.0287
     18 C          -3.9323    2.7795   -3.0168 C.3     1  LIG1        0.1030
     19 N          -2.3488    0.9803   -3.3085 N.ar    1  LIG1       -0.2387
     20 N          -8.6917   -3.8517    0.7411 N.ar    1  LIG1       -0.2330
     21 N          -4.2125    0.7097   -1.8050 N.ar    1  LIG1       -0.2156
     22 N          -6.7153   -2.5333    0.5716 N.pl3   1  LIG1       -0.3127
     23 N          -4.4636   -1.3092   -0.6429 N.pl3   1  LIG1       -0.3126
     24 O          -3.0970    3.7276   -2.3637 O.3     1  LIG1       -0.3883
     25 H         -13.6922   -4.4321    2.2450 H       1  LIG1        0.0623
     26 H         -12.4924   -6.2819    1.1084 H       1  LIG1        0.0623
     27 H         -12.5354   -2.2982    2.6768 H       1  LIG1        0.0630
     28 H         -10.4649   -0.8986    2.5051 H       1  LIG1        0.0631
     29 H         -10.1523   -5.9985    0.4091 H       1  LIG1        0.0645
     30 H          -8.1193   -0.6710    1.7824 H       1  LIG1        0.0659
     31 H          -2.2845   -2.0814   -1.8718 H       1  LIG1        0.0676
     32 H          -1.0570   -0.6159   -3.4859 H       1  LIG1        0.0841
     33 H          -5.1227   -2.2664    1.8529 H       1  LIG1        0.0485
     34 H          -6.4324   -1.1175    2.1298 H       1  LIG1        0.0485
     35 H          -6.9879   -2.0707   -1.4518 H       1  LIG1        0.0485
     36 H          -6.7474   -3.7918   -1.1070 H       1  LIG1        0.0485
     37 H          -5.9509    0.0321   -0.0044 H       1  LIG1        0.0485
     38 H          -4.5075   -0.0205    1.0218 H       1  LIG1        0.0485
     39 H          -4.3815   -3.3907   -0.5123 H       1  LIG1        0.0485
     40 H          -4.7264   -2.7962   -2.1368 H       1  LIG1        0.0485
     41 H          -3.8973    2.9678   -4.0987 H       1  LIG1        0.0649
     42 H          -4.9690    2.9378   -2.6891 H       1  LIG1        0.0649
     43 H          -3.4325    4.6064   -2.6029 H       1  LIG1        0.2107
@<TRIPOS>BOND
     1     1     2   ar
     2     1     3   ar
     3     2     5   ar
     4     3     9   ar
     5     4     6   ar
     6     4     9   ar
     7     5    10   ar
     8     6    11   ar
     9     7     8   ar
    10     7    12   ar
    11     8    19   ar
    12     9    10   ar
    13    10    20   ar
    14    11    20   ar
    15    11    22    1
    16    12    21   ar
    17    12    23    1
    18    13    18    1
    19    13    19   ar
    20    13    21   ar
    21    14    16    1
    22    14    22    1
    23    15    17    1
    24    15    22    1
    25    16    23    1
    26    17    23    1
    27    18    24    1
    28     1    25    1
    29     2    26    1
    30     3    27    1
    31     4    28    1
    32     5    29    1
    33     6    30    1
    34     7    31    1
    35     8    32    1
    36    14    33    1
    37    14    34    1
    38    15    35    1
    39    15    36    1
    40    16    37    1
    41    16    38    1
    42    17    39    1
    43    17    40    1
    44    18    41    1
    45    18    42    1
    46    24    43    1
