@<TRIPOS>MOLECULE
ChEBML300429
 44 46 0 0 0
SMALL
USER_CHARGES

@<TRIPOS>ATOM
      1 C         -10.3464   -5.1707    0.4644 C.ar    1  LIG1       -0.0387
      2 C         -11.6840   -5.5239    0.6649 C.ar    1  LIG1       -0.0416
      3 C         -12.0824   -3.5080    1.9590 C.ar    1  LIG1       -0.0343
      4 C          -9.9534   -2.0171    2.1806 C.ar    1  LIG1       -0.0262
      5 C          -2.1581   -0.2224   -3.6156 C.ar    1  LIG1        0.0426
      6 C          -1.8479    1.0406   -4.0619 C.ar    1  LIG1        0.0124
      7 C         -10.7378   -3.1312    1.7702 C.ar    1  LIG1       -0.0007
      8 C          -9.9025   -3.9697    1.0287 C.ar    1  LIG1        0.0379
      9 C         -12.5404   -4.7068    1.4003 C.ar    1  LIG1        0.0413
     10 C          -8.6808   -2.1975    1.6898 C.ar    1  LIG1        0.0945
     11 C          -2.9258    1.1067   -2.1409 C.ar    1  LIG1        0.1151
     12 C          -7.4979   -1.3126    1.8473 C.2     1  LIG1        0.2576
     13 C          -4.9939   -0.0277    0.1701 C.2     1  LIG1        0.2321
     14 C          -3.5752    1.7191   -0.9336 C.3     1  LIG1        0.0703
     15 C          -5.0917   -1.0114    1.3228 C.3     1  LIG1        0.0887
     16 C          -2.7546    0.5950    1.1005 C.3     1  LIG1        0.0379
     17 C          -2.9977    1.5557    2.2501 C.3     1  LIG1        0.0589
     18 N          -2.8293   -0.1743   -2.4195 N.ar    1  LIG1       -0.2427
     19 N          -2.3463    1.8814   -3.1070 N.ar    1  LIG1       -0.3066
     20 N          -8.6600   -3.3778    0.9963 N.ar    1  LIG1       -0.3101
     21 N          -6.3228   -1.7438    1.2398 N.am    1  LIG1       -0.3013
     22 N          -3.8201    0.7321    0.1152 N.am    1  LIG1       -0.2909
     23 O          -7.6038   -0.2809    2.5053 O.2     1  LIG1       -0.2704
     24 O          -5.9073    0.0729   -0.6534 O.2     1  LIG1       -0.2756
     25 O          -1.9757    1.3934    3.2253 O.3     1  LIG1       -0.3947
     26 CL        -14.1831   -5.1753    1.6245 Cl      1  LIG1       -0.0843
     27 H          -9.6806   -5.8081   -0.1079 H       1  LIG1        0.0643
     28 H         -12.0464   -6.4546    0.2337 H       1  LIG1        0.0639
     29 H         -12.7490   -2.8700    2.5333 H       1  LIG1        0.0645
     30 H         -10.2884   -1.1753    2.7718 H       1  LIG1        0.0651
     31 H          -1.9337   -1.1636   -4.0955 H       1  LIG1        0.0854
     32 H          -1.3358    1.4064   -4.9399 H       1  LIG1        0.0806
     33 H          -2.9423    2.5081   -0.5132 H       1  LIG1        0.0551
     34 H          -4.5357    2.1765   -1.1937 H       1  LIG1        0.0551
     35 H          -4.2731   -1.7343    1.2756 H       1  LIG1        0.0567
     36 H          -5.0881   -0.4804    2.2782 H       1  LIG1        0.0567
     37 H          -1.8007    0.8021    0.6052 H       1  LIG1        0.0493
     38 H          -2.7543   -0.4381    1.4610 H       1  LIG1        0.0493
     39 H          -3.9577    1.3344    2.7268 H       1  LIG1        0.0580
     40 H          -2.9990    2.5968    1.9113 H       1  LIG1        0.0580
     41 H          -2.2929    2.8914   -3.1136 H       1  LIG1        0.1535
     42 H          -7.8514   -3.7622    0.5272 H       1  LIG1        0.1529
     43 H          -6.3044   -2.6453    0.7640 H       1  LIG1        0.1503
     44 H          -2.1678    2.0227    3.9390 H       1  LIG1        0.2101
@<TRIPOS>BOND
     1     1     2   ar
     2     1     8   ar
     3     2     9   ar
     4     3     7   ar
     5     3     9   ar
     6     4     7   ar
     7     4    10   ar
     8     5     6   ar
     9     5    18   ar
    10     6    19   ar
    11     7     8   ar
    12     8    20   ar
    13     9    26    1
    14    10    12    1
    15    10    20   ar
    16    11    14    1
    17    11    18   ar
    18    11    19   ar
    19    12    21   am
    20    12    23    2
    21    13    15    1
    22    13    22   am
    23    13    24    2
    24    14    22    1
    25    15    21    1
    26    16    17    1
    27    16    22    1
    28    17    25    1
    29     1    27    1
    30     2    28    1
    31     3    29    1
    32     4    30    1
    33     5    31    1
    34     6    32    1
    35    14    33    1
    36    14    34    1
    37    15    35    1
    38    15    36    1
    39    16    37    1
    40    16    38    1
    41    17    39    1
    42    17    40    1
    43    19    41    1
    44    20    42    1
    45    21    43    1
    46    25    44    1
