@<TRIPOS>MOLECULE
ChEBML369817
 55 58 0 0 0
SMALL
USER_CHARGES

@<TRIPOS>ATOM
      1 C          -2.7789    1.6475   -4.9177 C.ar    1  LIG1       -0.0622
      2 C          -3.5048    0.4571   -4.9589 C.ar    1  LIG1       -0.0620
      3 C          -2.1340    2.0307   -3.7417 C.ar    1  LIG1       -0.0620
      4 C          -3.5857   -0.3501   -3.8242 C.ar    1  LIG1       -0.0590
      5 C          -2.2149    1.2235   -2.6070 C.ar    1  LIG1       -0.0590
      6 C         -10.3030   -5.0172    0.5494 C.ar    1  LIG1       -0.0325
      7 C         -11.6409   -5.3873    0.7354 C.ar    1  LIG1       -0.0374
      8 C         -12.0898   -3.3728    2.0298 C.ar    1  LIG1       -0.0160
      9 C          -2.9408    0.0331   -2.6483 C.ar    1  LIG1       -0.0477
     10 C          -9.8570   -3.8094    1.1120 C.ar    1  LIG1        0.0866
     11 C         -10.7534   -3.0245    1.8317 C.ar    1  LIG1        0.0594
     12 C         -12.5168   -4.5782    1.4627 C.ar    1  LIG1        0.0449
     13 C          -8.7410   -2.1079    1.7594 C.ar    1  LIG1        0.1434
     14 C          -4.0239   -0.9489    0.8864 C.3     1  LIG1       -0.0102
     15 C          -5.5215   -1.0432   -1.1368 C.3     1  LIG1       -0.0102
     16 C          -5.2335   -0.6440    1.7595 C.3     1  LIG1       -0.0336
     17 C          -6.7234   -0.7376   -0.2533 C.3     1  LIG1       -0.0336
     18 C          -4.2265   -0.4652   -0.5543 C.3     1  LIG1       -0.0275
     19 C         -15.2969   -3.2100    0.2078 C.3     1  LIG1        0.0225
     20 C          -3.0278   -0.8366   -1.4244 C.3     1  LIG1       -0.0246
     21 C          -7.6717   -1.0897    2.0252 C.3     1  LIG1        0.0232
     22 N          -8.6122   -3.2242    1.0780 N.ar    1  LIG1       -0.2303
     23 N         -10.0125   -1.9428    2.2340 N.ar    1  LIG1       -0.2969
     24 N         -13.8753   -4.9877    1.6328 N.pl3   1  LIG1       -0.2632
     25 N          -6.4667   -1.2561    1.1408 N.4     1  LIG1        0.2514
     26 O         -14.1245   -5.2397   -0.9207 O.2     1  LIG1       -0.4814
     27 O         -16.1459   -5.6655    0.5208 O.2     1  LIG1       -0.4814
     28 S         -14.9144   -4.9466    0.2607 S.O2    1  LIG1       -0.1957
     29 H          -2.7149    2.2752   -5.8017 H       1  LIG1        0.0622
     30 H          -4.0062    0.1581   -5.8748 H       1  LIG1        0.0623
     31 H          -1.5679    2.9569   -3.7095 H       1  LIG1        0.0623
     32 H          -4.1537   -1.2758   -3.8656 H       1  LIG1        0.0625
     33 H          -1.7092    1.5301   -1.6952 H       1  LIG1        0.0625
     34 H          -9.6302   -5.6532   -0.0170 H       1  LIG1        0.0647
     35 H         -11.9919   -6.3216    0.3025 H       1  LIG1        0.0643
     36 H         -12.7612   -2.7362    2.5962 H       1  LIG1        0.0663
     37 H          -3.1381   -0.4693    1.3195 H       1  LIG1        0.0323
     38 H          -3.8337   -2.0301    0.8939 H       1  LIG1        0.0323
     39 H          -5.4248   -2.1303   -1.2558 H       1  LIG1        0.0323
     40 H          -5.6968   -0.6306   -2.1375 H       1  LIG1        0.0323
     41 H          -5.1106   -1.0851    2.7541 H       1  LIG1        0.0815
     42 H          -5.4075    0.4336    1.8544 H       1  LIG1        0.0815
     43 H          -6.9126    0.3392   -0.1795 H       1  LIG1        0.0815
     44 H          -7.6184   -1.2412   -0.6330 H       1  LIG1        0.0815
     45 H          -4.3100    0.6298   -0.5434 H       1  LIG1        0.0310
     46 H         -15.9659   -3.0303   -0.6353 H       1  LIG1        0.0442
     47 H         -15.7816   -2.9355    1.1459 H       1  LIG1        0.0442
     48 H         -14.3655   -2.6561    0.0818 H       1  LIG1        0.0442
     49 H          -3.1029   -1.8885   -1.7181 H       1  LIG1        0.0319
     50 H          -2.1088   -0.7468   -0.8362 H       1  LIG1        0.0319
     51 H          -8.0439   -0.0727    1.8615 H       1  LIG1        0.0899
     52 H          -7.3144   -1.1519    3.0587 H       1  LIG1        0.0899
     53 H         -10.3496   -1.1631    2.7833 H       1  LIG1        0.1542
     54 H         -14.3086   -4.6612    2.5117 H       1  LIG1        0.1702
     55 H          -6.3003   -2.2691    1.0647 H       1  LIG1        0.2008
@<TRIPOS>BOND
     1     1     2   ar
     2     1     3   ar
     3     2     4   ar
     4     3     5   ar
     5     4     9   ar
     6     5     9   ar
     7     6     7   ar
     8     6    10   ar
     9     7    12   ar
    10     8    11   ar
    11     8    12   ar
    12     9    20    1
    13    10    11   ar
    14    10    22   ar
    15    11    23   ar
    16    12    24    1
    17    13    21    1
    18    13    22   ar
    19    13    23   ar
    20    14    16    1
    21    14    18    1
    22    15    17    1
    23    15    18    1
    24    16    25    1
    25    17    25    1
    26    18    20    1
    27    19    28    1
    28    21    25    1
    29    24    28    1
    30    26    28    2
    31    27    28    2
    32     1    29    1
    33     2    30    1
    34     3    31    1
    35     4    32    1
    36     5    33    1
    37     6    34    1
    38     7    35    1
    39     8    36    1
    40    14    37    1
    41    14    38    1
    42    15    39    1
    43    15    40    1
    44    16    41    1
    45    16    42    1
    46    17    43    1
    47    17    44    1
    48    18    45    1
    49    19    46    1
    50    19    47    1
    51    19    48    1
    52    20    49    1
    53    20    50    1
    54    21    51    1
    55    21    52    1
    56    23    53    1
    57    24    54    1
    58    25    55    1
