@<TRIPOS>MOLECULE
ChEBML723203
 52 55 0 0 0
SMALL
USER_CHARGES

@<TRIPOS>ATOM
      1 C         -12.6566   -5.1450    1.4457 C.ar    1  LIG1       -0.0621
      2 C         -11.3396   -5.2993    1.0130 C.ar    1  LIG1       -0.0596
      3 C         -13.0259   -4.0080    2.1643 C.ar    1  LIG1       -0.0596
      4 C         -10.3919   -4.3165    1.2989 C.ar    1  LIG1       -0.0318
      5 C         -12.0782   -3.0252    2.4502 C.ar    1  LIG1       -0.0318
      6 C          -2.5408   -0.5745   -2.1091 C.ar    1  LIG1        0.0512
      7 C          -1.9553   -1.7925   -1.6403 C.ar    1  LIG1       -0.0280
      8 C         -10.7612   -3.1795    2.0175 C.ar    1  LIG1        0.0756
      9 C          -0.8100   -2.1270   -2.3296 C.ar    1  LIG1       -0.0080
     10 C          -3.6780    0.1445   -1.7277 C.ar    1  LIG1        0.1325
     11 C          -1.7956   -0.0364   -3.1503 C.ar    1  LIG1        0.1137
     12 C          -3.1848    1.6971   -3.3542 C.ar    1  LIG1        0.1284
     13 C          -7.8588   -0.9417    1.8550 C.2     1  LIG1        0.2409
     14 C          -4.6697    0.5696    0.4573 C.3     1  LIG1        0.0288
     15 C          -5.5239   -1.2872   -1.0073 C.3     1  LIG1        0.0288
     16 C          -5.4830   -0.1435    1.5377 C.3     1  LIG1        0.0300
     17 C          -6.8611   -0.8674   -0.4008 C.3     1  LIG1        0.0300
     18 C          -2.5040   -2.6191   -0.5345 C.3     1  LIG1       -0.0382
     19 C           0.0775   -3.2978   -2.1467 C.3     1  LIG1       -0.0330
     20 C          -3.5696    2.9702   -4.0320 C.3     1  LIG1       -0.0042
     21 C          -8.7705   -2.0458    1.3786 C.3     1  LIG1        0.1301
     22 N          -3.9998    1.2932   -2.3603 N.ar    1  LIG1       -0.2176
     23 N          -2.0698    1.1030   -3.8154 N.ar    1  LIG1       -0.2257
     24 N          -4.4868   -0.2949   -0.7114 N.pl3   1  LIG1       -0.3120
     25 N          -6.7633   -0.6523    1.0406 N.am    1  LIG1       -0.2967
     26 O          -8.1070   -0.3599    2.9137 O.2     1  LIG1       -0.2747
     27 O          -9.8272   -2.2114    2.3010 O.3     1  LIG1       -0.3365
     28 S          -0.4329   -0.9814   -3.5427 S.2     1  LIG1       -0.0738
     29 H         -13.3949   -5.9097    1.2228 H       1  LIG1        0.0622
     30 H         -11.0517   -6.1847    0.4535 H       1  LIG1        0.0623
     31 H         -14.0518   -3.8885    2.5009 H       1  LIG1        0.0623
     32 H          -9.3672   -4.4434    0.9602 H       1  LIG1        0.0650
     33 H         -12.3712   -2.1423    3.0119 H       1  LIG1        0.0650
     34 H          -5.1874    1.4880    0.1524 H       1  LIG1        0.0485
     35 H          -3.6950    0.8566    0.8695 H       1  LIG1        0.0485
     36 H          -5.2098   -2.2527   -0.5927 H       1  LIG1        0.0485
     37 H          -5.6466   -1.4202   -2.0894 H       1  LIG1        0.0485
     38 H          -4.9273   -1.0091    1.9184 H       1  LIG1        0.0486
     39 H          -5.6520    0.5373    2.3772 H       1  LIG1        0.0486
     40 H          -7.2026    0.0775   -0.8412 H       1  LIG1        0.0486
     41 H          -7.6243   -1.6229   -0.6162 H       1  LIG1        0.0486
     42 H          -3.2105   -3.3661   -0.9224 H       1  LIG1        0.0280
     43 H          -1.7073   -3.1494    0.0075 H       1  LIG1        0.0280
     44 H          -3.0304   -2.0022    0.2086 H       1  LIG1        0.0280
     45 H          -0.2496   -4.1406   -2.7746 H       1  LIG1        0.0285
     46 H           1.1218   -3.0650   -2.4092 H       1  LIG1        0.0285
     47 H           0.0919   -3.6408   -1.0996 H       1  LIG1        0.0285
     48 H          -3.1049    3.8256   -3.5276 H       1  LIG1        0.0312
     49 H          -3.2545    2.9716   -5.0831 H       1  LIG1        0.0312
     50 H          -4.6580    3.1104   -4.0255 H       1  LIG1        0.0312
     51 H          -8.2092   -2.9714    1.2949 H       1  LIG1        0.0674
     52 H          -9.1787   -1.7733    0.4103 H       1  LIG1        0.0674
@<TRIPOS>BOND
     1     1     2   ar
     2     1     3   ar
     3     2     4   ar
     4     3     5   ar
     5     4     8   ar
     6     5     8   ar
     7     6     7   ar
     8     6    10   ar
     9     6    11   ar
    10     7     9   ar
    11     7    18    1
    12     8    27    1
    13     9    19    1
    14     9    28   ar
    15    10    22   ar
    16    10    24    1
    17    11    23   ar
    18    11    28   ar
    19    12    20    1
    20    12    22   ar
    21    12    23   ar
    22    13    21    1
    23    13    25   am
    24    13    26    2
    25    14    16    1
    26    14    24    1
    27    15    17    1
    28    15    24    1
    29    16    25    1
    30    17    25    1
    31    21    27    1
    32     1    29    1
    33     2    30    1
    34     3    31    1
    35     4    32    1
    36     5    33    1
    37    14    34    1
    38    14    35    1
    39    15    36    1
    40    15    37    1
    41    16    38    1
    42    16    39    1
    43    17    40    1
    44    17    41    1
    45    18    42    1
    46    18    43    1
    47    18    44    1
    48    19    45    1
    49    19    46    1
    50    19    47    1
    51    20    48    1
    52    20    49    1
    53    20    50    1
    54    21    51    1
    55    21    52    1
