@<TRIPOS>MOLECULE
ChEBML418026
 53 57 0 0 0
SMALL
USER_CHARGES

@<TRIPOS>ATOM
      1 C          -4.2017    3.1943   -3.6912 C.ar    1  LIG1       -0.0600
      2 C          -5.1734    2.8582   -2.7597 C.ar    1  LIG1       -0.0602
      3 C          -3.1105    2.3937   -3.8800 C.ar    1  LIG1       -0.0344
      4 C          -5.0567    1.7045   -2.0134 C.ar    1  LIG1       -0.0383
      5 C         -10.4214   -5.1333    0.5064 C.ar    1  LIG1       -0.0376
      6 C         -11.7468   -5.4443    0.7062 C.ar    1  LIG1       -0.0299
      7 C         -12.0791   -3.4104    1.9463 C.ar    1  LIG1       -0.0226
      8 C          -9.9320   -1.9830    2.1528 C.ar    1  LIG1       -0.0261
      9 C         -10.7299   -3.0830    1.7552 C.ar    1  LIG1        0.0004
     10 C          -2.9729    1.2182   -3.1377 C.ar    1  LIG1        0.0864
     11 C          -9.8968   -3.9532    1.0262 C.ar    1  LIG1        0.0380
     12 C          -3.9586    0.8756   -2.1964 C.ar    1  LIG1        0.0602
     13 C         -12.5758   -4.5869    1.4274 C.ar    1  LIG1        0.0753
     14 C          -8.6753   -2.1902    1.6796 C.ar    1  LIG1        0.0947
     15 C          -2.3727   -0.6600   -2.2231 C.ar    1  LIG1        0.0985
     16 C          -7.5325   -1.2846    1.8702 C.2     1  LIG1        0.2598
     17 C          -4.3992   -0.1991    0.6590 C.3     1  LIG1       -0.0181
     18 C          -5.6354   -1.4740   -1.1009 C.3     1  LIG1       -0.0181
     19 C          -5.1033   -1.0035    1.7564 C.3     1  LIG1        0.0162
     20 C          -6.3528   -2.2977   -0.0206 C.3     1  LIG1        0.0162
     21 C          -4.2503   -1.0701   -0.5905 C.3     1  LIG1        0.0320
     22 C          -1.5766   -1.8993   -1.9046 C.3     1  LIG1       -0.0081
     23 C         -14.0948   -6.1676    0.9706 C.3     1  LIG1        0.0422
     24 N          -2.0359    0.2361   -3.1043 N.ar    1  LIG1       -0.2360
     25 N          -8.6421   -3.3875    0.9917 N.ar    1  LIG1       -0.3101
     26 N          -3.5477   -0.3150   -1.6309 N.ar    1  LIG1       -0.2842
     27 N          -6.3727   -1.5182    1.2247 N.am    1  LIG1       -0.2966
     28 O          -7.6341   -0.3247    2.6106 O.2     1  LIG1       -0.2702
     29 O         -13.8834   -4.9100    1.6153 O.3     1  LIG1       -0.3493
     30 H          -4.3061    4.1006   -4.2692 H       1  LIG1        0.0623
     31 H          -6.0272    3.5041   -2.6184 H       1  LIG1        0.0623
     32 H          -2.3608    2.6642   -4.6087 H       1  LIG1        0.0646
     33 H          -5.8162    1.4470   -1.2900 H       1  LIG1        0.0643
     34 H          -9.7878   -5.8050   -0.0537 H       1  LIG1        0.0643
     35 H         -12.1481   -6.3613    0.3010 H       1  LIG1        0.0651
     36 H         -12.7254   -2.7463    2.5011 H       1  LIG1        0.0657
     37 H         -10.2631   -1.1318    2.7293 H       1  LIG1        0.0651
     38 H          -4.9914    0.6839    0.4185 H       1  LIG1        0.0302
     39 H          -3.4134    0.1075    1.0085 H       1  LIG1        0.0302
     40 H          -6.2158   -0.5790   -1.3249 H       1  LIG1        0.0302
     41 H          -5.5292   -2.0749   -2.0041 H       1  LIG1        0.0302
     42 H          -5.3006   -0.3585    2.6127 H       1  LIG1        0.0470
     43 H          -4.4705   -1.8366    2.0619 H       1  LIG1        0.0470
     44 H          -5.8196   -3.2342    0.1430 H       1  LIG1        0.0470
     45 H          -7.3746   -2.5068   -0.3370 H       1  LIG1        0.0470
     46 H          -3.6792   -1.9650   -0.3433 H       1  LIG1        0.0511
     47 H          -1.9680   -2.7398   -2.4778 H       1  LIG1        0.0309
     48 H          -0.5310   -1.7367   -2.1660 H       1  LIG1        0.0309
     49 H          -1.6551   -2.1178   -0.8396 H       1  LIG1        0.0309
     50 H         -13.8681   -6.0740   -0.0915 H       1  LIG1        0.0535
     51 H         -13.4427   -6.9187    1.4163 H       1  LIG1        0.0535
     52 H         -15.1348   -6.4694    1.0950 H       1  LIG1        0.0535
     53 H          -7.8630   -3.7672    0.5560 H       1  LIG1        0.1529
@<TRIPOS>BOND
     1     1     2   ar
     2     1     3   ar
     3     2     4   ar
     4     3    10   ar
     5     4    12   ar
     6     5     6   ar
     7     5    11   ar
     8     6    13   ar
     9     7     9   ar
    10     7    13   ar
    11     8     9   ar
    12     8    14   ar
    13     9    11   ar
    14    10    12   ar
    15    10    24   ar
    16    11    25   ar
    17    12    26   ar
    18    13    29    1
    19    14    16    1
    20    14    25   ar
    21    15    22    1
    22    15    24   ar
    23    15    26   ar
    24    16    27   am
    25    16    28    2
    26    17    19    1
    27    17    21    1
    28    18    20    1
    29    18    21    1
    30    19    27    1
    31    20    27    1
    32    21    26    1
    33    23    29    1
    34     1    30    1
    35     2    31    1
    36     3    32    1
    37     4    33    1
    38     5    34    1
    39     6    35    1
    40     7    36    1
    41     8    37    1
    42    17    38    1
    43    17    39    1
    44    18    40    1
    45    18    41    1
    46    19    42    1
    47    19    43    1
    48    20    44    1
    49    20    45    1
    50    21    46    1
    51    22    47    1
    52    22    48    1
    53    22    49    1
    54    23    50    1
    55    23    51    1
    56    23    52    1
    57    25    53    1
