@<TRIPOS>MOLECULE
ChEBML390737
 41 43 0 0 0
SMALL
USER_CHARGES

@<TRIPOS>ATOM
      1 C          -4.2215   -0.6771    0.3398 C.ar    1  LIG1       -0.0542
      2 C          -5.6495   -1.4566   -1.4463 C.ar    1  LIG1       -0.0542
      3 C          -5.3034   -0.7112    1.2196 C.ar    1  LIG1       -0.0504
      4 C          -6.7314   -1.4908   -0.5665 C.ar    1  LIG1       -0.0504
      5 C         -10.2560   -5.2484    0.6039 C.ar    1  LIG1       -0.0376
      6 C         -11.5892   -5.6426    0.7484 C.ar    1  LIG1       -0.0299
      7 C         -12.1687   -3.5149    1.7652 C.ar    1  LIG1       -0.0226
      8 C         -10.1264   -1.9040    1.9618 C.ar    1  LIG1       -0.0275
      9 C         -10.8302   -3.0954    1.6300 C.ar    1  LIG1        0.0003
     10 C          -4.3946   -1.0497   -0.9931 C.ar    1  LIG1       -0.0254
     11 C          -6.5583   -1.1181    0.7665 C.ar    1  LIG1        0.0239
     12 C          -9.9067   -3.9701    1.0536 C.ar    1  LIG1        0.0379
     13 C         -12.5325   -4.7908    1.3198 C.ar    1  LIG1        0.0753
     14 C          -8.8135   -2.0753    1.5877 C.ar    1  LIG1        0.0797
     15 C          -3.2667   -1.0140   -1.9109 C.2     1  LIG1       -0.0497
     16 C          -2.1321   -0.3025   -1.7247 C.2     1  LIG1        0.0033
     17 C          -7.7272   -1.1566    1.7185 C.2     1  LIG1        0.2066
     18 C          -1.0429   -0.3324   -2.7400 C.2     1  LIG1        0.2584
     19 C         -14.1357   -6.5133    0.9757 C.3     1  LIG1        0.0422
     20 N          -8.6908   -3.3244    1.0408 N.ar    1  LIG1       -0.3112
     21 N          -0.5617   -1.6024   -2.9288 N.am    1  LIG1       -0.1945
     22 O          -7.6913   -0.3199    2.6506 O.2     1  LIG1       -0.2871
     23 O          -0.6498    0.6735   -3.3216 O.2     1  LIG1       -0.2703
     24 O           0.4664   -1.7276   -3.8736 O.3     1  LIG1       -0.2965
     25 O         -13.8250   -5.2040    1.4471 O.3     1  LIG1       -0.3493
     26 H          -3.2493   -0.3578    0.7075 H       1  LIG1        0.0629
     27 H          -5.8001   -1.7501   -2.4824 H       1  LIG1        0.0629
     28 H          -5.1569   -0.4191    2.2564 H       1  LIG1        0.0630
     29 H          -7.7049   -1.8097   -0.9299 H       1  LIG1        0.0630
     30 H          -9.5224   -5.9120    0.1586 H       1  LIG1        0.0643
     31 H         -11.8870   -6.6313    0.4069 H       1  LIG1        0.0651
     32 H         -12.9103   -2.8562    2.2090 H       1  LIG1        0.0657
     33 H         -10.5404   -1.0182    2.4251 H       1  LIG1        0.0651
     34 H          -3.3738   -1.6026   -2.8289 H       1  LIG1        0.0631
     35 H          -1.9877    0.3144   -0.8442 H       1  LIG1        0.0679
     36 H         -15.1972   -6.7171    1.1364 H       1  LIG1        0.0535
     37 H         -13.5277   -7.2477    1.5100 H       1  LIG1        0.0535
     38 H         -13.9142   -6.5682   -0.0928 H       1  LIG1        0.0535
     39 H          -7.8334   -3.7189    0.6786 H       1  LIG1        0.1529
     40 H          -0.9259   -2.3995   -2.4182 H       1  LIG1        0.1839
     41 H           0.5588   -0.8016   -4.1544 H       1  LIG1        0.2427
@<TRIPOS>BOND
     1     1     3   ar
     2     1    10   ar
     3     2     4   ar
     4     2    10   ar
     5     3    11   ar
     6     4    11   ar
     7     5     6   ar
     8     5    12   ar
     9     6    13   ar
    10     7     9   ar
    11     7    13   ar
    12     8     9   ar
    13     8    14   ar
    14     9    12   ar
    15    10    15    1
    16    11    17    1
    17    12    20   ar
    18    13    25    1
    19    14    17    1
    20    14    20   ar
    21    15    16    2
    22    16    18    1
    23    17    22    2
    24    18    21   am
    25    18    23    2
    26    19    25    1
    27    21    24    1
    28     1    26    1
    29     2    27    1
    30     3    28    1
    31     4    29    1
    32     5    30    1
    33     6    31    1
    34     7    32    1
    35     8    33    1
    36    15    34    1
    37    16    35    1
    38    19    36    1
    39    19    37    1
    40    19    38    1
    41    20    39    1
    42    21    40    1
    43    24    41    1
