@<TRIPOS>MOLECULE
ChEBML1067099
 29 31 0 0 0
SMALL
USER_CHARGES

@<TRIPOS>ATOM
      1 C         -12.4105   -4.7484    1.2295 C.ar    1  LIG1       -0.0615
      2 C         -11.4734   -5.5735    0.6109 C.ar    1  LIG1       -0.0603
      3 C         -12.0260   -3.5290    1.7991 C.ar    1  LIG1       -0.0530
      4 C         -10.1259   -5.2085    0.5415 C.ar    1  LIG1       -0.0402
      5 C          -9.9474   -2.0049    2.2000 C.ar    1  LIG1       -0.0280
      6 C          -5.0394   -0.2807   -2.1713 C.ar    1  LIG1        0.0452
      7 C          -6.3502   -0.5753   -1.8669 C.ar    1  LIG1        0.0455
      8 C          -4.4121   -0.8881   -0.0578 C.ar    1  LIG1        0.0488
      9 C         -10.6730   -3.1398    1.7413 C.ar    1  LIG1       -0.0023
     10 C          -9.7560   -3.9868    1.1152 C.ar    1  LIG1        0.0377
     11 C          -8.6285   -2.1817    1.8502 C.ar    1  LIG1        0.0751
     12 C          -5.7230   -1.1820    0.2470 C.ar    1  LIG1        0.0664
     13 C          -7.5219   -1.3120    2.0958 C.2     1  LIG1        0.1824
     14 C          -6.0950   -1.6905    1.6182 C.3     1  LIG1        0.0562
     15 N          -4.0468   -0.4319   -1.2722 N.ar    1  LIG1       -0.2612
     16 N          -6.7155   -1.0311   -0.6523 N.ar    1  LIG1       -0.2576
     17 N          -8.5230   -3.3798    1.1961 N.ar    1  LIG1       -0.3115
     18 O          -7.6640   -0.2167    2.7055 O.2     1  LIG1       -0.2922
     19 H         -13.4528   -5.0535    1.2702 H       1  LIG1        0.0623
     20 H         -11.7941   -6.5163    0.1754 H       1  LIG1        0.0623
     21 H         -12.7670   -2.8950    2.2779 H       1  LIG1        0.0629
     22 H          -9.3964   -5.8513    0.0603 H       1  LIG1        0.0642
     23 H         -10.3515   -1.1521    2.7292 H       1  LIG1        0.0651
     24 H          -4.7468    0.0857   -3.1474 H       1  LIG1        0.0856
     25 H          -7.1472   -0.4536   -2.5899 H       1  LIG1        0.0856
     26 H          -3.6089   -1.0073    0.6598 H       1  LIG1        0.0859
     27 H          -6.0157   -2.7841    1.6223 H       1  LIG1        0.0418
     28 H          -5.3781   -1.2959    2.3481 H       1  LIG1        0.0418
     29 H          -7.6656   -3.7663    0.8257 H       1  LIG1        0.1529
@<TRIPOS>BOND
     1     1     2   ar
     2     1     3   ar
     3     2     4   ar
     4     3     9   ar
     5     4    10   ar
     6     5     9   ar
     7     5    11   ar
     8     6     7   ar
     9     6    15   ar
    10     7    16   ar
    11     8    12   ar
    12     8    15   ar
    13     9    10   ar
    14    10    17   ar
    15    11    13    1
    16    11    17   ar
    17    12    14    1
    18    12    16   ar
    19    13    14    1
    20    13    18    2
    21     1    19    1
    22     2    20    1
    23     3    21    1
    24     4    22    1
    25     5    23    1
    26     6    24    1
    27     7    25    1
    28     8    26    1
    29    14    27    1
    30    14    28    1
    31    17    29    1
