@<TRIPOS>MOLECULE
ChEBML369961
 49 53 0 0 0
SMALL
USER_CHARGES

@<TRIPOS>ATOM
      1 C          -0.4154    1.1002   -2.8703 C.ar    1  LIG1       -0.0622
      2 C          -1.0243    1.8317   -1.8507 C.ar    1  LIG1       -0.0620
      3 C          -1.1898    0.3112   -3.7208 C.ar    1  LIG1       -0.0620
      4 C         -11.6797   -5.5945    0.7910 C.ar    1  LIG1       -0.0495
      5 C          -2.4077    1.7741   -1.6814 C.ar    1  LIG1       -0.0590
      6 C          -2.5732    0.2535   -3.5516 C.ar    1  LIG1       -0.0590
      7 C         -10.3058   -5.2557    0.6075 C.ar    1  LIG1       -0.0394
      8 C         -10.1330   -1.9082    1.9737 C.ar    1  LIG1       -0.0243
      9 C         -13.9301   -4.5737    1.7540 C.ar    1  LIG1        0.0542
     10 C         -12.5722   -4.6767    1.3890 C.ar    1  LIG1        0.0179
     11 C         -10.7633   -3.1161    1.6162 C.ar    1  LIG1        0.0213
     12 C          -3.1821    0.9850   -2.5319 C.ar    1  LIG1       -0.0477
     13 C          -9.8704   -3.9930    1.0354 C.ar    1  LIG1        0.0398
     14 C         -12.0684   -3.4597    1.7814 C.ar    1  LIG1        0.0654
     15 C          -8.8158   -2.0791    1.5886 C.ar    1  LIG1        0.0947
     16 C          -7.7341   -1.1478    1.7225 C.2     1  LIG1        0.2598
     17 C          -6.5444   -0.6061   -1.6224 C.3     1  LIG1       -0.0341
     18 C          -4.8528    0.2104    0.0637 C.3     1  LIG1       -0.0341
     19 C          -6.9867   -1.6721   -0.6217 C.3     1  LIG1        0.0147
     20 C          -5.3280   -0.8796    1.0212 C.3     1  LIG1        0.0147
     21 C          -5.0781   -0.2025   -1.3998 C.3     1  LIG1       -0.0344
     22 C          -4.6738    0.9223   -2.3498 C.3     1  LIG1       -0.0249
     23 N         -14.2312   -3.3940    2.3215 N.ar    1  LIG1       -0.1915
     24 N          -8.6671   -3.3339    1.0269 N.ar    1  LIG1       -0.3100
     25 N         -13.0529   -2.7310    2.3209 N.ar    1  LIG1       -0.2373
     26 N          -6.7289   -1.2300    0.7498 N.am    1  LIG1       -0.2967
     27 O          -7.7189   -0.3382    2.6479 O.2     1  LIG1       -0.2702
     28 H           0.6617    1.1462   -3.0028 H       1  LIG1        0.0622
     29 H          -0.4216    2.4470   -1.1890 H       1  LIG1        0.0623
     30 H          -0.7162   -0.2576   -4.5155 H       1  LIG1        0.0623
     31 H         -12.0326   -6.5695    0.4644 H       1  LIG1        0.0631
     32 H          -2.8735    2.3472   -0.8841 H       1  LIG1        0.0625
     33 H          -3.1685   -0.3641   -4.2189 H       1  LIG1        0.0625
     34 H          -9.6223   -5.9624    0.1481 H       1  LIG1        0.0643
     35 H         -10.5579   -1.0314    2.4429 H       1  LIG1        0.0652
     36 H         -14.7171   -5.3045    1.6330 H       1  LIG1        0.0864
     37 H          -6.6810   -0.9830   -2.6427 H       1  LIG1        0.0285
     38 H          -7.1885    0.2765   -1.5152 H       1  LIG1        0.0285
     39 H          -5.3991    1.1391    0.2736 H       1  LIG1        0.0285
     40 H          -3.7898    0.4136    0.2383 H       1  LIG1        0.0285
     41 H          -8.0481   -1.8971   -0.7661 H       1  LIG1        0.0469
     42 H          -6.4289   -2.6028   -0.7785 H       1  LIG1        0.0469
     43 H          -4.7328   -1.7912    0.8905 H       1  LIG1        0.0469
     44 H          -5.1862   -0.5456    2.0519 H       1  LIG1        0.0469
     45 H          -4.4438   -1.0727   -1.6153 H       1  LIG1        0.0307
     46 H          -5.0432    1.8772   -1.9623 H       1  LIG1        0.0319
     47 H          -5.1623    0.7745   -3.3185 H       1  LIG1        0.0319
     48 H          -7.8006   -3.7072    0.6637 H       1  LIG1        0.1529
     49 H         -13.0291   -1.7953    2.7088 H       1  LIG1        0.1755
@<TRIPOS>BOND
     1     1     2   ar
     2     1     3   ar
     3     2     5   ar
     4     3     6   ar
     5     4     7   ar
     6     4    10   ar
     7     5    12   ar
     8     6    12   ar
     9     7    13   ar
    10     8    11   ar
    11     8    15   ar
    12     9    10   ar
    13     9    23   ar
    14    10    14   ar
    15    11    13   ar
    16    11    14   ar
    17    12    22    1
    18    13    24   ar
    19    14    25   ar
    20    15    16    1
    21    15    24   ar
    22    16    26   am
    23    16    27    2
    24    17    19    1
    25    17    21    1
    26    18    20    1
    27    18    21    1
    28    19    26    1
    29    20    26    1
    30    21    22    1
    31    23    25   ar
    32     1    28    1
    33     2    29    1
    34     3    30    1
    35     4    31    1
    36     5    32    1
    37     6    33    1
    38     7    34    1
    39     8    35    1
    40     9    36    1
    41    17    37    1
    42    17    38    1
    43    18    39    1
    44    18    40    1
    45    19    41    1
    46    19    42    1
    47    20    43    1
    48    20    44    1
    49    21    45    1
    50    22    46    1
    51    22    47    1
    52    24    48    1
    53    25    49    1
