@<TRIPOS>MOLECULE
ChEBML920532
 61 65 0 0 0
SMALL
USER_CHARGES

@<TRIPOS>ATOM
      1 C          -3.7798    1.1796   -3.1246 C.ar    1  LIG1       -0.0601
      2 C         -10.1214   -1.2384    1.7274 C.ar    1  LIG1       -0.0474
      3 C          -2.5736    0.6835   -3.5835 C.ar    1  LIG1       -0.0589
      4 C         -11.2205   -1.9782    1.4405 C.ar    1  LIG1       -0.0344
      5 C          -4.3877    0.6110   -2.0223 C.ar    1  LIG1       -0.0406
      6 C          -8.7456   -3.2209    1.7674 C.ar    1  LIG1       -0.0334
      7 C          -8.8637   -1.8331    1.9006 C.ar    1  LIG1        0.0385
      8 C          -1.9713   -0.3829   -2.9409 C.ar    1  LIG1       -0.0463
      9 C          -2.5763   -0.9596   -1.8418 C.ar    1  LIG1       -0.0269
     10 C         -11.1389   -3.3864    1.3042 C.ar    1  LIG1        0.0799
     11 C          -3.7858   -0.4603   -1.3749 C.ar    1  LIG1        0.0319
     12 C          -9.8579   -3.9636    1.4831 C.ar    1  LIG1        0.0416
     13 C         -11.9371   -5.5476    0.9222 C.ar    1  LIG1        0.1606
     14 C          -7.6820   -1.0078    2.2123 C.2     1  LIG1        0.2457
     15 C         -15.3302   -7.9009    1.3438 C.3     1  LIG1       -0.0503
     16 C         -13.9494   -8.5059    1.6156 C.3     1  LIG1       -0.0373
     17 C         -15.2236   -6.9287    0.1648 C.3     1  LIG1       -0.0373
     18 C         -12.9422   -7.3775    1.8459 C.3     1  LIG1        0.0133
     19 C         -14.1498   -5.8826    0.4710 C.3     1  LIG1        0.0133
     20 C          -4.6371    0.0471    0.6987 C.3     1  LIG1        0.0274
     21 C          -5.7076   -1.5276   -0.7043 C.3     1  LIG1        0.0274
     22 C          -5.2882   -0.5205    1.9641 C.3     1  LIG1        0.0302
     23 C          -6.4294   -2.1991    0.4684 C.3     1  LIG1        0.0302
     24 C          -0.6564   -0.9198   -3.4444 C.3     1  LIG1       -0.0394
     25 C          -1.9224   -2.1254   -1.1459 C.3     1  LIG1       -0.0377
     26 N         -12.1338   -4.2508    1.0244 N.ar    1  LIG1       -0.2254
     27 N          -4.3978   -1.0377   -0.2600 N.pl3   1  LIG1       -0.3274
     28 N         -12.8508   -6.5411    0.6444 N.pl3   1  LIG1       -0.3101
     29 N          -6.5159   -1.2328    1.5751 N.am    1  LIG1       -0.2947
     30 O          -7.7596   -0.1244    3.0442 O.2     1  LIG1       -0.2716
     31 S         -10.1837   -5.6928    1.2362 S.2     1  LIG1       -0.0521
     32 H          -4.2471    2.0128   -3.6284 H       1  LIG1        0.0623
     33 H         -10.2167   -0.1670    1.8253 H       1  LIG1        0.0631
     34 H          -2.1004    1.1299   -4.4456 H       1  LIG1        0.0625
     35 H         -12.1737   -1.4865    1.3141 H       1  LIG1        0.0646
     36 H          -5.3297    0.9991   -1.6642 H       1  LIG1        0.0642
     37 H          -7.7863   -3.7011    1.8918 H       1  LIG1        0.0643
     38 H         -16.0350   -8.6956    1.0989 H       1  LIG1        0.0268
     39 H         -15.6746   -7.3654    2.2285 H       1  LIG1        0.0268
     40 H         -13.6380   -9.1025    0.7581 H       1  LIG1        0.0283
     41 H         -13.9969   -9.1382    2.5022 H       1  LIG1        0.0283
     42 H         -14.9508   -7.4776   -0.7364 H       1  LIG1        0.0283
     43 H         -16.1825   -6.4328    0.0139 H       1  LIG1        0.0283
     44 H         -11.9637   -7.8043    2.0657 H       1  LIG1        0.0469
     45 H         -13.2679   -6.7673    2.6883 H       1  LIG1        0.0469
     46 H         -14.4119   -5.3512    1.3859 H       1  LIG1        0.0469
     47 H         -14.0893   -5.1732   -0.3544 H       1  LIG1        0.0469
     48 H          -3.6889    0.5179    0.9583 H       1  LIG1        0.0485
     49 H          -5.2993    0.7880    0.2507 H       1  LIG1        0.0485
     50 H          -6.3044   -0.6906   -1.0666 H       1  LIG1        0.0485
     51 H          -5.5709   -2.2506   -1.5084 H       1  LIG1        0.0485
     52 H          -4.6014   -1.2121    2.4518 H       1  LIG1        0.0486
     53 H          -5.5364    0.2931    2.6458 H       1  LIG1        0.0486
     54 H          -5.8689   -3.0768    0.7904 H       1  LIG1        0.0486
     55 H          -7.4322   -2.4958    0.1609 H       1  LIG1        0.0486
     56 H          -0.8413   -1.6994   -4.1833 H       1  LIG1        0.0280
     57 H          -0.0858   -0.1123   -3.9032 H       1  LIG1        0.0280
     58 H          -0.0907   -1.3361   -2.6108 H       1  LIG1        0.0280
     59 H          -1.2627   -1.7563   -0.3605 H       1  LIG1        0.0280
     60 H          -2.6895   -2.7629   -0.7062 H       1  LIG1        0.0280
     61 H          -1.3420   -2.7003   -1.8675 H       1  LIG1        0.0280
@<TRIPOS>BOND
     1     1     3   ar
     2     1     5   ar
     3     2     4   ar
     4     2     7   ar
     5     3     8   ar
     6     4    10   ar
     7     5    11   ar
     8     6     7   ar
     9     6    12   ar
    10     7    14    1
    11     8     9   ar
    12     8    24    1
    13     9    11   ar
    14     9    25    1
    15    10    12   ar
    16    10    26   ar
    17    11    27    1
    18    12    31   ar
    19    13    26   ar
    20    13    28    1
    21    13    31   ar
    22    14    29   am
    23    14    30    2
    24    15    16    1
    25    15    17    1
    26    16    18    1
    27    17    19    1
    28    18    28    1
    29    19    28    1
    30    20    22    1
    31    20    27    1
    32    21    23    1
    33    21    27    1
    34    22    29    1
    35    23    29    1
    36     1    32    1
    37     2    33    1
    38     3    34    1
    39     4    35    1
    40     5    36    1
    41     6    37    1
    42    15    38    1
    43    15    39    1
    44    16    40    1
    45    16    41    1
    46    17    42    1
    47    17    43    1
    48    18    44    1
    49    18    45    1
    50    19    46    1
    51    19    47    1
    52    20    48    1
    53    20    49    1
    54    21    50    1
    55    21    51    1
    56    22    52    1
    57    22    53    1
    58    23    54    1
    59    23    55    1
    60    24    56    1
    61    24    57    1
    62    24    58    1
    63    25    59    1
    64    25    60    1
    65    25    61    1
