@<TRIPOS>MOLECULE
ChEBML300290
 49 51 0 0 0
SMALL
USER_CHARGES

@<TRIPOS>ATOM
      1 C         -10.3193   -5.1584    0.4423 C.ar    1  LIG1       -0.0387
      2 C         -11.6653   -5.4904    0.6212 C.ar    1  LIG1       -0.0416
      3 C         -12.0596   -3.4545    1.8847 C.ar    1  LIG1       -0.0343
      4 C          -9.9144   -1.9911    2.1303 C.ar    1  LIG1       -0.0262
      5 C         -10.7065   -3.0988    1.7175 C.ar    1  LIG1       -0.0007
      6 C          -9.8693   -3.9571    1.0016 C.ar    1  LIG1        0.0379
      7 C         -12.5238   -4.6532    1.3309 C.ar    1  LIG1        0.0413
      8 C          -8.6354   -2.1947    1.6660 C.ar    1  LIG1        0.0945
      9 C          -7.4432   -1.3247    1.8362 C.2     1  LIG1        0.2576
     10 C          -4.5246   -0.6956   -0.0320 C.2     1  LIG1        0.2316
     11 C          -2.7068    0.0633   -4.2976 C.3     1  LIG1       -0.0532
     12 C          -1.4694   -0.3728   -3.5204 C.3     1  LIG1       -0.0532
     13 C          -3.9872    0.1846   -3.4727 C.3     1  LIG1       -0.0515
     14 C          -1.1208    0.4904   -2.3087 C.3     1  LIG1       -0.0515
     15 C          -3.9814    1.4034   -2.5541 C.3     1  LIG1       -0.0345
     16 C          -2.0913    0.2934   -1.1451 C.3     1  LIG1       -0.0345
     17 C          -3.3396    1.1808   -1.1809 C.3     1  LIG1        0.0250
     18 C          -5.1493    1.6967    0.4109 C.3     1  LIG1        0.0031
     19 C          -5.0235   -1.0631    1.3544 C.3     1  LIG1        0.0887
     20 N          -8.6182   -3.3830    0.9862 N.ar    1  LIG1       -0.3101
     21 N          -6.2630   -1.7792    1.2561 N.am    1  LIG1       -0.3013
     22 N          -4.3411    0.6798   -0.2621 N.am    1  LIG1       -0.3005
     23 O          -7.5470   -0.2841    2.4805 O.2     1  LIG1       -0.2704
     24 O          -4.3034   -1.5686   -0.8753 O.2     1  LIG1       -0.2756
     25 CL        -14.1771   -5.0961    1.5288 Cl      1  LIG1       -0.0843
     26 H          -9.6519   -5.8115   -0.1099 H       1  LIG1        0.0643
     27 H         -12.0327   -6.4210    0.1936 H       1  LIG1        0.0639
     28 H         -12.7279   -2.8007    2.4390 H       1  LIG1        0.0645
     29 H         -10.2486   -1.1378    2.7055 H       1  LIG1        0.0651
     30 H          -2.5017    1.0158   -4.8019 H       1  LIG1        0.0266
     31 H          -2.8790   -0.6705   -5.0952 H       1  LIG1        0.0266
     32 H          -1.5881   -1.4174   -3.2061 H       1  LIG1        0.0266
     33 H          -0.6159   -0.3595   -4.2099 H       1  LIG1        0.0266
     34 H          -4.8186    0.3035   -4.1792 H       1  LIG1        0.0267
     35 H          -4.1855   -0.7361   -2.9127 H       1  LIG1        0.0267
     36 H          -0.1243    0.1819   -1.9671 H       1  LIG1        0.0267
     37 H          -1.0389    1.5464   -2.5893 H       1  LIG1        0.0267
     38 H          -3.5060    2.2500   -3.0677 H       1  LIG1        0.0285
     39 H          -5.0207    1.7182   -2.3869 H       1  LIG1        0.0285
     40 H          -2.3996   -0.7592   -1.1055 H       1  LIG1        0.0285
     41 H          -1.5515    0.4779   -0.2066 H       1  LIG1        0.0285
     42 H          -3.0507    2.1584   -0.7742 H       1  LIG1        0.0506
     43 H          -4.6735    1.9947    1.3488 H       1  LIG1        0.0433
     44 H          -6.1453    1.3031    0.6311 H       1  LIG1        0.0433
     45 H          -5.2542    2.5789   -0.2265 H       1  LIG1        0.0433
     46 H          -4.3040   -1.7151    1.8564 H       1  LIG1        0.0567
     47 H          -5.2097   -0.1616    1.9438 H       1  LIG1        0.0567
     48 H          -7.8062   -3.7841    0.5370 H       1  LIG1        0.1529
     49 H          -6.2484   -2.6862    0.7909 H       1  LIG1        0.1503
@<TRIPOS>BOND
     1     1     2   ar
     2     1     6   ar
     3     2     7   ar
     4     3     5   ar
     5     3     7   ar
     6     4     5   ar
     7     4     8   ar
     8     5     6   ar
     9     6    20   ar
    10     7    25    1
    11     8     9    1
    12     8    20   ar
    13     9    21   am
    14     9    23    2
    15    10    19    1
    16    10    22   am
    17    10    24    2
    18    11    12    1
    19    11    13    1
    20    12    14    1
    21    13    15    1
    22    14    16    1
    23    15    17    1
    24    16    17    1
    25    17    22    1
    26    18    22    1
    27    19    21    1
    28     1    26    1
    29     2    27    1
    30     3    28    1
    31     4    29    1
    32    11    30    1
    33    11    31    1
    34    12    32    1
    35    12    33    1
    36    13    34    1
    37    13    35    1
    38    14    36    1
    39    14    37    1
    40    15    38    1
    41    15    39    1
    42    16    40    1
    43    16    41    1
    44    17    42    1
    45    18    43    1
    46    18    44    1
    47    18    45    1
    48    19    46    1
    49    19    47    1
    50    20    48    1
    51    21    49    1
