@<TRIPOS>MOLECULE
ChEBML281254
 25 26 0 0 0
SMALL
USER_CHARGES

@<TRIPOS>ATOM
      1 C          -8.2302   -2.3957    1.4245 C.ar    1  LIG1       -0.0616
      2 C          -9.1013   -1.5562    2.1166 C.ar    1  LIG1       -0.0616
      3 C          -8.6583   -3.5823    0.9134 C.ar    1  LIG1       -0.0544
      4 C         -10.4052   -1.8991    2.3015 C.ar    1  LIG1       -0.0543
      5 C         -10.4728   -5.1897    0.5680 C.ar    1  LIG1       -0.0525
      6 C         -11.7736   -5.5404    0.7469 C.ar    1  LIG1       -0.0390
      7 C         -12.2248   -3.4999    1.9548 C.ar    1  LIG1       -0.0317
      8 C          -9.9981   -3.9708    1.0837 C.ar    1  LIG1       -0.0182
      9 C         -10.8839   -3.1170    1.7875 C.ar    1  LIG1       -0.0165
     10 C         -12.6556   -4.7032    1.4412 C.ar    1  LIG1        0.0452
     11 N         -14.8883   -4.5093   -0.8348 N.3     1  LIG1       -0.2920
     12 N         -13.9867   -5.0893    1.6096 N.pl3   1  LIG1       -0.2478
     13 O         -16.1806   -5.8299    0.7858 O.2     1  LIG1       -0.4646
     14 O         -14.0462   -6.7337   -0.2159 O.2     1  LIG1       -0.4646
     15 S         -14.8434   -5.6897    0.3258 S.O2    1  LIG1       -0.1238
     16 H          -7.1999   -2.1004    1.2921 H       1  LIG1        0.0623
     17 H          -8.7360   -0.6200    2.5121 H       1  LIG1        0.0623
     18 H          -7.9715   -4.2224    0.3797 H       1  LIG1        0.0629
     19 H         -11.0688   -1.2391    2.8405 H       1  LIG1        0.0629
     20 H          -9.8045   -5.8465    0.0309 H       1  LIG1        0.0630
     21 H         -12.1319   -6.4780    0.3483 H       1  LIG1        0.0643
     22 H         -12.9119   -2.8574    2.4853 H       1  LIG1        0.0649
     23 H         -14.3715   -3.6965   -0.7202 H       1  LIG1        0.1614
     24 H         -15.4282   -4.6325   -1.6311 H       1  LIG1        0.1614
     25 H         -14.4097   -5.0060    2.4786 H       1  LIG1        0.1719
@<TRIPOS>BOND
     1     1     2   ar
     2     1     3   ar
     3     2     4   ar
     4     3     8   ar
     5     4     9   ar
     6     5     6   ar
     7     5     8   ar
     8     6    10   ar
     9     7     9   ar
    10     7    10   ar
    11     8     9   ar
    12    10    12    1
    13    11    15    1
    14    12    15    1
    15    13    15    2
    16    14    15    2
    17     1    16    1
    18     2    17    1
    19     3    18    1
    20     4    19    1
    21     5    20    1
    22     6    21    1
    23     7    22    1
    24    11    23    1
    25    11    24    1
    26    12    25    1
