@<TRIPOS>MOLECULE
ChEBML418044
 49 53 0 0 0
SMALL
USER_CHARGES

@<TRIPOS>ATOM
      1 C          -2.7469   -1.8397    2.6226 C.ar    1  LIG1       -0.0600
      2 C          -4.1324   -1.6642    2.6455 C.ar    1  LIG1       -0.0602
      3 C          -1.9876   -1.4418    1.5149 C.ar    1  LIG1       -0.0344
      4 C          -4.8090   -1.0865    1.5661 C.ar    1  LIG1       -0.0383
      5 C         -10.1533   -5.2926    0.7965 C.ar    1  LIG1       -0.0387
      6 C         -11.4768   -5.7354    0.8740 C.ar    1  LIG1       -0.0416
      7 C         -12.2390   -3.5248    1.5292 C.ar    1  LIG1       -0.0343
      8 C         -10.2935   -1.7939    1.6828 C.ar    1  LIG1       -0.0262
      9 C         -10.9123   -3.0555    1.4578 C.ar    1  LIG1       -0.0007
     10 C          -2.6509   -0.8598    0.4215 C.ar    1  LIG1        0.0864
     11 C          -9.9022   -3.9483    1.0939 C.ar    1  LIG1        0.0379
     12 C          -4.0326   -0.6980    0.4738 C.ar    1  LIG1        0.0603
     13 C         -12.5052   -4.8669    1.2345 C.ar    1  LIG1        0.0413
     14 C          -8.9447   -1.9427    1.4555 C.ar    1  LIG1        0.0947
     15 C          -3.1947    0.0494   -1.4324 C.ar    1  LIG1        0.1014
     16 C          -7.9149   -0.9575    1.5552 C.2     1  LIG1        0.2598
     17 C          -6.4080   -0.9141   -1.8302 C.3     1  LIG1       -0.0166
     18 C          -6.9740   -1.7123   -0.6614 C.3     1  LIG1        0.0164
     19 C          -6.5988    0.5612    0.0333 C.3     1  LIG1        0.0336
     20 C          -5.6805    0.2604   -1.1577 C.3     1  LIG1        0.0463
     21 C          -1.8427    0.4451   -3.5066 C.3     1  LIG1       -0.0585
     22 C          -3.1762    0.6518   -2.7812 C.3     1  LIG1        0.0008
     23 N          -2.1482   -0.3896   -0.7700 N.ar    1  LIG1       -0.2357
     24 N          -8.7184   -3.2455    1.1007 N.ar    1  LIG1       -0.3101
     25 N          -4.3531   -0.1143   -0.7249 N.ar    1  LIG1       -0.2824
     26 N          -7.2065   -0.7170    0.3822 N.am    1  LIG1       -0.2948
     27 O          -7.6794   -0.3719    2.6132 O.2     1  LIG1       -0.2702
     28 CL        -14.1245   -5.4497    1.3176 Cl      1  LIG1       -0.0843
     29 H          -2.2493   -2.2904    3.4774 H       1  LIG1        0.0623
     30 H          -4.6967   -1.9830    3.5187 H       1  LIG1        0.0623
     31 H          -0.9116   -1.5819    1.5075 H       1  LIG1        0.0646
     32 H          -5.8844   -0.9500    1.5851 H       1  LIG1        0.0643
     33 H          -9.3535   -5.9700    0.5164 H       1  LIG1        0.0643
     34 H         -11.6908   -6.7777    0.6467 H       1  LIG1        0.0639
     35 H         -13.0400   -2.8463    1.8110 H       1  LIG1        0.0645
     36 H         -10.7864   -0.8775    1.9790 H       1  LIG1        0.0651
     37 H          -5.7656   -1.5239   -2.4732 H       1  LIG1        0.0302
     38 H          -7.2330   -0.5254   -2.4401 H       1  LIG1        0.0302
     39 H          -7.9000   -2.2344   -0.9195 H       1  LIG1        0.0470
     40 H          -6.2483   -2.4385   -0.2796 H       1  LIG1        0.0470
     41 H          -6.0835    0.9891    0.8993 H       1  LIG1        0.0489
     42 H          -7.4126    1.2340   -0.2595 H       1  LIG1        0.0489
     43 H          -5.5535    1.1215   -1.8190 H       1  LIG1        0.0527
     44 H          -1.0121    0.8418   -2.9130 H       1  LIG1        0.0235
     45 H          -1.8374    0.9505   -4.4774 H       1  LIG1        0.0235
     46 H          -1.6548   -0.6203   -3.6777 H       1  LIG1        0.0235
     47 H          -3.9855    0.2386   -3.4131 H       1  LIG1        0.0343
     48 H          -3.3843    1.7381   -2.7351 H       1  LIG1        0.0343
     49 H          -7.8145   -3.6381    0.8757 H       1  LIG1        0.1529
@<TRIPOS>BOND
     1     1     2   ar
     2     1     3   ar
     3     2     4   ar
     4     3    10   ar
     5     4    12   ar
     6     5     6   ar
     7     5    11   ar
     8     6    13   ar
     9     7     9   ar
    10     7    13   ar
    11     8     9   ar
    12     8    14   ar
    13     9    11   ar
    14    10    12   ar
    15    10    23   ar
    16    11    24   ar
    17    12    25   ar
    18    13    28    1
    19    14    16    1
    20    14    24   ar
    21    15    22    1
    22    15    23   ar
    23    15    25   ar
    24    16    26   am
    25    16    27    2
    26    17    18    1
    27    17    20    1
    28    18    26    1
    29    19    20    1
    30    19    26    1
    31    20    25    1
    32    21    22    1
    33     1    29    1
    34     2    30    1
    35     3    31    1
    36     4    32    1
    37     5    33    1
    38     6    34    1
    39     7    35    1
    40     8    36    1
    41    17    37    1
    42    17    38    1
    43    18    39    1
    44    18    40    1
    45    19    41    1
    46    19    42    1
    47    20    43    1
    48    21    44    1
    49    21    45    1
    50    21    46    1
    51    22    47    1
    52    22    48    1
    53    24    49    1
