@<TRIPOS>MOLECULE
ChEBML347884
 33 36 0 0 0
SMALL
USER_CHARGES

@<TRIPOS>ATOM
      1 C          -4.1278   -2.2066   -1.8768 C.ar    1  LIG1       -0.0501
      2 C         -10.3792   -5.1874    0.4719 C.ar    1  LIG1       -0.0376
      3 C         -11.7193   -5.5287    0.6754 C.ar    1  LIG1       -0.0302
      4 C          -3.1594   -1.3669   -2.4388 C.ar    1  LIG1       -0.0256
      5 C         -12.1002   -3.5034    1.9599 C.ar    1  LIG1       -0.0229
      6 C          -6.0094   -2.2652   -0.0710 C.ar    1  LIG1       -0.0276
      7 C          -9.9591   -2.0286    2.1721 C.ar    1  LIG1       -0.0275
      8 C          -3.8142    0.4575   -0.9734 C.ar    1  LIG1       -0.0043
      9 C          -4.9535   -1.7115   -0.8480 C.ar    1  LIG1       -0.0020
     10 C         -10.7528   -3.1384    1.7679 C.ar    1  LIG1        0.0003
     11 C          -9.9251   -3.9871    1.0298 C.ar    1  LIG1        0.0379
     12 C          -4.7781   -0.3934   -0.4209 C.ar    1  LIG1        0.0407
     13 C         -12.5683   -4.7012    1.4076 C.ar    1  LIG1        0.0720
     14 C          -3.0067   -0.0557   -1.9925 C.ar    1  LIG1        0.1246
     15 C          -6.4460   -1.2908    0.7968 C.ar    1  LIG1        0.0811
     16 C          -8.6885   -2.2215    1.6810 C.ar    1  LIG1        0.0811
     17 C          -7.5442   -1.3786    1.8266 C.2     1  LIG1        0.2206
     18 N          -8.6778   -3.4053    0.9933 N.ar    1  LIG1       -0.3112
     19 N          -5.6975   -0.1655    0.5781 N.ar    1  LIG1       -0.3111
     20 O          -7.3933   -0.6555    2.8387 O.2     1  LIG1       -0.2856
     21 O         -13.8702   -5.0614    1.5888 O.3     1  LIG1       -0.3609
     22 F          -2.0716    0.7272   -2.5487 F       1  LIG1       -0.2069
     23 H          -4.2366   -3.2263   -2.2352 H       1  LIG1        0.0631
     24 H          -9.7190   -5.8321   -0.0986 H       1  LIG1        0.0643
     25 H         -12.0976   -6.4565    0.2522 H       1  LIG1        0.0651
     26 H          -2.5193   -1.7430   -3.2323 H       1  LIG1        0.0653
     27 H         -12.7688   -2.8632    2.5290 H       1  LIG1        0.0657
     28 H          -6.4045   -3.2699   -0.1431 H       1  LIG1        0.0651
     29 H         -10.2869   -1.1814    2.7598 H       1  LIG1        0.0651
     30 H          -3.6948    1.4784   -0.6267 H       1  LIG1        0.0673
     31 H          -7.8729   -3.7985    0.5250 H       1  LIG1        0.1529
     32 H          -5.8020    0.7080    1.0758 H       1  LIG1        0.1529
     33 H         -14.3327   -4.3905    2.1148 H       1  LIG1        0.2182
@<TRIPOS>BOND
     1     1     4   ar
     2     1     9   ar
     3     2     3   ar
     4     2    11   ar
     5     3    13   ar
     6     4    14   ar
     7     5    10   ar
     8     5    13   ar
     9     6     9   ar
    10     6    15   ar
    11     7    10   ar
    12     7    16   ar
    13     8    12   ar
    14     8    14   ar
    15     9    12   ar
    16    10    11   ar
    17    11    18   ar
    18    12    19   ar
    19    13    21    1
    20    14    22    1
    21    15    17    1
    22    15    19   ar
    23    16    17    1
    24    16    18   ar
    25    17    20    2
    26     1    23    1
    27     2    24    1
    28     3    25    1
    29     4    26    1
    30     5    27    1
    31     6    28    1
    32     7    29    1
    33     8    30    1
    34    18    31    1
    35    19    32    1
    36    21    33    1
