@<TRIPOS>MOLECULE
ChEBML826596
 40 43 0 0 0
SMALL
USER_CHARGES

@<TRIPOS>ATOM
      1 C         -11.8839   -5.5994    0.8644 C.ar    1  LIG1       -0.0600
      2 C         -12.6326   -5.0042    1.8736 C.ar    1  LIG1       -0.0610
      3 C          -2.3942    0.3071   -3.7663 C.ar    1  LIG1       -0.0364
      4 C         -10.6432   -5.0718    0.4951 C.ar    1  LIG1       -0.0352
      5 C         -12.1637   -3.8691    2.5397 C.ar    1  LIG1       -0.0459
      6 C          -1.8825   -0.4534   -2.6878 C.ar    1  LIG1       -0.0316
      7 C          -3.3091    1.1769   -3.2202 C.ar    1  LIG1        0.0456
      8 C          -5.8613   -0.3335    1.4009 C.ar    1  LIG1        0.0212
      9 C         -10.1459   -3.9254    1.1519 C.ar    1  LIG1        0.0799
     10 C         -10.9167   -3.3445    2.1635 C.ar    1  LIG1        0.0409
     11 C          -6.6514    0.2365    2.4171 C.ar    1  LIG1        0.0654
     12 C          -2.5212    0.0062   -1.5595 C.ar    1  LIG1        0.0800
     13 C          -6.5930   -1.4089    0.9596 C.ar    1  LIG1       -0.0401
     14 C          -8.8025   -2.2611    1.6928 C.ar    1  LIG1        0.1838
     15 C          -4.5801    0.0912    0.9135 C.2     1  LIG1        0.0416
     16 C          -6.3516    1.4234    3.2377 C.3     1  LIG1       -0.0199
     17 C          -4.2039    1.5856    0.9589 C.3     1  LIG1       -0.0220
     18 C          -2.4388   -0.3698   -0.1065 C.3     1  LIG1        0.0862
     19 N          -8.9381   -3.2936    0.8938 N.ar    1  LIG1       -0.2237
     20 N          -7.7972   -0.4223    2.6101 N.ar    1  LIG1       -0.1804
     21 N          -3.7295   -0.7860    0.4190 N.2     1  LIG1       -0.2824
     22 N          -7.7326   -1.4172    1.7090 N.ar    1  LIG1       -0.1891
     23 O          -6.4327   -2.2705    0.1101 O.3     1  LIG1       -0.8136
     24 O          -3.3924    1.0000   -1.8756 O.2     1  LIG1       -0.3205
     25 S         -10.0822   -1.9721    2.7904 S.2     1  LIG1       -0.0501
     26 H         -12.2651   -6.4810    0.3566 H       1  LIG1        0.0623
     27 H         -13.5951   -5.4271    2.1500 H       1  LIG1        0.0623
     28 H          -2.1295    0.2305   -4.8110 H       1  LIG1        0.0645
     29 H         -10.0661   -5.5454   -0.2944 H       1  LIG1        0.0646
     30 H         -12.7524   -3.4109    3.3284 H       1  LIG1        0.0635
     31 H          -1.1409   -1.2382   -2.7309 H       1  LIG1        0.0648
     32 H          -3.9498    1.9429   -3.6317 H       1  LIG1        0.0901
     33 H          -6.7340    2.3434    2.7641 H       1  LIG1        0.0296
     34 H          -6.7987    1.3566    4.2451 H       1  LIG1        0.0296
     35 H          -5.2668    1.5563    3.3962 H       1  LIG1        0.0296
     36 H          -3.7103    1.8479    1.8986 H       1  LIG1        0.0296
     37 H          -3.5410    1.8251    0.1227 H       1  LIG1        0.0296
     38 H          -5.1039    2.2022    0.8913 H       1  LIG1        0.0296
     39 H          -1.7101   -1.1769    0.0331 H       1  LIG1        0.0587
     40 H          -2.0711    0.4792    0.4808 H       1  LIG1        0.0587
@<TRIPOS>BOND
     1     1     2   ar
     2     1     4   ar
     3     2     5   ar
     4     3     6   ar
     5     3     7   ar
     6     4     9   ar
     7     5    10   ar
     8     6    12   ar
     9     7    24   ar
    10     8    11   ar
    11     8    13   ar
    12     8    15    1
    13     9    10   ar
    14     9    19   ar
    15    10    25   ar
    16    11    16    1
    17    11    20   ar
    18    12    18    1
    19    12    24   ar
    20    13    22   ar
    21    13    23    1
    22    14    19   ar
    23    14    22    1
    24    14    25   ar
    25    15    17    1
    26    15    21    2
    27    18    21    1
    28    20    22   ar
    29     1    26    1
    30     2    27    1
    31     3    28    1
    32     4    29    1
    33     5    30    1
    34     6    31    1
    35     7    32    1
    36    16    33    1
    37    16    34    1
    38    16    35    1
    39    17    36    1
    40    17    37    1
    41    17    38    1
    42    18    39    1
    43    18    40    1
