@<TRIPOS>MOLECULE
ChEBML907741
 36 38 0 0 0
SMALL
USER_CHARGES

@<TRIPOS>ATOM
      1 C         -11.5362   -5.6450    1.0235 C.ar    1  LIG1       -0.0615
      2 C         -10.6803   -5.5749   -0.0739 C.ar    1  LIG1       -0.0603
      3 C          -2.1763   -0.3876   -3.1499 C.ar    1  LIG1       -0.0542
      4 C         -11.5945   -4.6015    1.9544 C.ar    1  LIG1       -0.0530
      5 C          -9.8574   -4.4632   -0.2762 C.ar    1  LIG1       -0.0400
      6 C          -2.8082   -1.1781   -2.1468 C.ar    1  LIG1       -0.0424
      7 C         -10.5777   -2.2609    2.4944 C.ar    1  LIG1       -0.0359
      8 C          -2.6737    0.8964   -3.1863 C.ar    1  LIG1       -0.0240
      9 C         -10.7742   -3.4706    1.7713 C.ar    1  LIG1       -0.0025
     10 C          -9.9263   -3.4277    0.6625 C.ar    1  LIG1        0.0401
     11 C          -3.7644   -0.4679   -1.4546 C.ar    1  LIG1        0.0742
     12 C          -9.6317   -1.5208    1.8232 C.ar    1  LIG1        0.0075
     13 C          -4.6388   -0.9218   -0.3427 C.2     1  LIG1        0.2497
     14 C          -9.0656   -0.1944    2.1450 C.3     1  LIG1       -0.0263
     15 C          -8.2617   -1.7928   -0.2492 C.3     1  LIG1        0.0319
     16 C          -6.8275   -1.9287    0.2503 C.3     1  LIG1        0.0275
     17 N          -9.2449   -2.2327    0.7196 N.ar    1  LIG1       -0.3025
     18 N          -5.8628   -1.4672   -0.7110 N.am    1  LIG1       -0.3093
     19 O          -4.2584   -0.7789    0.8164 O.2     1  LIG1       -0.2712
     20 S          -3.8974    1.1449   -2.0145 S.2     1  LIG1       -0.0925
     21 H         -12.1669   -6.5199    1.1591 H       1  LIG1        0.0623
     22 H         -10.6509   -6.3969   -0.7845 H       1  LIG1        0.0623
     23 H          -1.3975   -0.7433   -3.8118 H       1  LIG1        0.0628
     24 H         -12.2656   -4.6690    2.8058 H       1  LIG1        0.0629
     25 H          -9.1937   -4.4142   -1.1329 H       1  LIG1        0.0643
     26 H          -2.5691   -2.2152   -1.9472 H       1  LIG1        0.0636
     27 H         -11.0761   -1.9663    3.4081 H       1  LIG1        0.0646
     28 H          -2.3774    1.7000   -3.8457 H       1  LIG1        0.0701
     29 H          -8.1712   -0.2897    2.7814 H       1  LIG1        0.0293
     30 H          -8.7753    0.3610    1.2375 H       1  LIG1        0.0293
     31 H          -9.7902    0.4451    2.6764 H       1  LIG1        0.0293
     32 H          -8.4840   -0.7432   -0.4768 H       1  LIG1        0.0489
     33 H          -8.4165   -2.3641   -1.1722 H       1  LIG1        0.0489
     34 H          -6.6873   -1.3272    1.1536 H       1  LIG1        0.0483
     35 H          -6.5821   -2.9687    0.4884 H       1  LIG1        0.0483
     36 H          -6.1302   -1.4930   -1.6931 H       1  LIG1        0.1497
@<TRIPOS>BOND
     1     1     2   ar
     2     1     4   ar
     3     2     5   ar
     4     3     6   ar
     5     3     8   ar
     6     4     9   ar
     7     5    10   ar
     8     6    11   ar
     9     7     9   ar
    10     7    12   ar
    11     8    20   ar
    12     9    10   ar
    13    10    17   ar
    14    11    13    1
    15    11    20   ar
    16    12    14    1
    17    12    17   ar
    18    13    18   am
    19    13    19    2
    20    15    16    1
    21    15    17    1
    22    16    18    1
    23     1    21    1
    24     2    22    1
    25     3    23    1
    26     4    24    1
    27     5    25    1
    28     6    26    1
    29     7    27    1
    30     8    28    1
    31    14    29    1
    32    14    30    1
    33    14    31    1
    34    15    32    1
    35    15    33    1
    36    16    34    1
    37    16    35    1
    38    18    36    1
