@<TRIPOS>MOLECULE
ChEBML205137
 72 75 0 0 0
SMALL
USER_CHARGES

@<TRIPOS>ATOM
      1 C          -1.3097   -0.2487   -4.8459 C.ar    1  LIG1       -0.0418
      2 C         -10.2456   -5.3151    0.9147 C.ar    1  LIG1       -0.0383
      3 C          -1.0335    0.2881   -3.5934 C.ar    1  LIG1       -0.0360
      4 C         -11.5957   -5.6610    1.0215 C.ar    1  LIG1       -0.0377
      5 C         -12.1624   -3.4368    1.8148 C.ar    1  LIG1       -0.0304
      6 C         -10.0854   -1.8673    1.9786 C.ar    1  LIG1       -0.0261
      7 C          -2.6298   -0.5403   -5.1498 C.ar    1  LIG1        0.0292
      8 C         -10.8069   -3.0653    1.7154 C.ar    1  LIG1       -0.0003
      9 C          -9.8816   -4.0111    1.2686 C.ar    1  LIG1        0.0379
     10 C         -12.5410   -4.7379    1.4643 C.ar    1  LIG1        0.0437
     11 C          -2.0710    0.5136   -2.6956 C.ar    1  LIG1        0.0674
     12 C          -8.7608   -2.1046    1.6921 C.ar    1  LIG1        0.0947
     13 C          -3.3570    0.1882   -3.0958 C.ar    1  LIG1        0.1411
     14 C          -7.6517   -1.2025    1.7999 C.2     1  LIG1        0.2598
     15 C          -6.2806   -1.0190   -1.5138 C.3     1  LIG1       -0.0185
     16 C          -4.6299   -0.1179    0.1796 C.3     1  LIG1       -0.0185
     17 C          -6.8022   -1.9764   -0.4432 C.3     1  LIG1        0.0162
     18 C          -5.2082   -1.0846    1.2142 C.3     1  LIG1        0.0162
     19 C          -4.8237   -0.6115   -1.2602 C.3     1  LIG1        0.0268
     20 C          -1.0049    4.6976   -2.2987 C.3     1  LIG1       -0.0634
     21 C          -1.6838    2.9314    0.0786 C.3     1  LIG1       -0.0441
     22 C           0.3447    2.1575   -1.1593 C.3     1  LIG1       -0.0441
     23 C          -5.1203    1.6865   -2.1980 C.3     1  LIG1        0.0018
     24 C         -15.1508   -3.6928   -0.3450 C.3     1  LIG1        0.0225
     25 C          -1.5731    3.2862   -2.4009 C.3     1  LIG1       -0.0353
     26 C          -1.1774    2.3366   -1.2450 C.3     1  LIG1        0.0253
     27 N          -3.6642   -0.3349   -4.3040 N.ar    1  LIG1       -0.2394
     28 N          -8.6478   -3.4003    1.2643 N.ar    1  LIG1       -0.3101
     29 N          -6.5997   -1.4114    0.8979 N.am    1  LIG1       -0.2966
     30 N          -1.7936    1.0570   -1.4273 N.pl3   1  LIG1       -0.3366
     31 N         -13.9135   -5.1223    1.5623 N.pl3   1  LIG1       -0.2633
     32 N          -4.4069    0.4112   -2.1984 N.pl3   1  LIG1       -0.3142
     33 O          -7.6548   -0.3085    2.6445 O.2     1  LIG1       -0.2702
     34 O         -13.8792   -5.8939   -0.8976 O.2     1  LIG1       -0.4814
     35 O         -16.0524   -6.0439    0.3674 O.2     1  LIG1       -0.4814
     36 S         -14.7929   -5.3765    0.1039 S.O2    1  LIG1       -0.1957
     37 H          -0.5169   -0.4330   -5.5618 H       1  LIG1        0.0639
     38 H          -9.5104   -6.0344    0.5698 H       1  LIG1        0.0643
     39 H          -0.0067    0.5262   -3.3287 H       1  LIG1        0.0644
     40 H         -11.9011   -6.6698    0.7518 H       1  LIG1        0.0643
     41 H         -12.9019   -2.7191    2.1599 H       1  LIG1        0.0650
     42 H         -10.4960   -0.9334    2.3393 H       1  LIG1        0.0651
     43 H          -2.8987   -0.9607   -6.1133 H       1  LIG1        0.0840
     44 H          -6.3833   -1.4825   -2.5021 H       1  LIG1        0.0302
     45 H          -6.9032   -0.1151   -1.5132 H       1  LIG1        0.0302
     46 H          -5.1365    0.8503    0.2855 H       1  LIG1        0.0302
     47 H          -3.5671    0.0509    0.3900 H       1  LIG1        0.0302
     48 H          -7.8572   -2.1881   -0.6353 H       1  LIG1        0.0470
     49 H          -6.2743   -2.9361   -0.4776 H       1  LIG1        0.0470
     50 H          -4.6444   -2.0245    1.2276 H       1  LIG1        0.0470
     51 H          -5.1292   -0.6442    2.2131 H       1  LIG1        0.0470
     52 H          -4.1825   -1.4857   -1.4217 H       1  LIG1        0.0506
     53 H           0.0871    4.6874   -2.2376 H       1  LIG1        0.0231
     54 H          -1.3006    5.3136   -3.1532 H       1  LIG1        0.0231
     55 H          -1.3795    5.1838   -1.3916 H       1  LIG1        0.0231
     56 H          -2.7705    3.0751    0.0576 H       1  LIG1        0.0252
     57 H          -1.4629    2.2669    0.9221 H       1  LIG1        0.0252
     58 H          -1.2184    3.9020    0.2833 H       1  LIG1        0.0252
     59 H           0.7435    1.7338   -2.0887 H       1  LIG1        0.0252
     60 H           0.8577    3.1132   -1.0057 H       1  LIG1        0.0252
     61 H           0.6202    1.4852   -0.3395 H       1  LIG1        0.0252
     62 H          -5.9029    1.6791   -1.4350 H       1  LIG1        0.0432
     63 H          -5.5818    1.8617   -3.1737 H       1  LIG1        0.0432
     64 H          -4.4289    2.5063   -1.9852 H       1  LIG1        0.0432
     65 H         -15.7200   -3.6981   -1.2759 H       1  LIG1        0.0442
     66 H         -15.7345   -3.2392    0.4575 H       1  LIG1        0.0442
     67 H         -14.2061   -3.1635   -0.4774 H       1  LIG1        0.0442
     68 H          -2.6667    3.3599   -2.4590 H       1  LIG1        0.0285
     69 H          -1.2392    2.8565   -3.3547 H       1  LIG1        0.0285
     70 H          -7.7851   -3.8472    0.9853 H       1  LIG1        0.1529
     71 H          -2.0464    0.5048   -0.6280 H       1  LIG1        0.1471
     72 H         -14.4396   -4.6290    2.3021 H       1  LIG1        0.1702
@<TRIPOS>BOND
     1     1     3   ar
     2     1     7   ar
     3     2     4   ar
     4     2     9   ar
     5     3    11   ar
     6     4    10   ar
     7     5     8   ar
     8     5    10   ar
     9     6     8   ar
    10     6    12   ar
    11     7    27   ar
    12     8     9   ar
    13     9    28   ar
    14    10    31    1
    15    11    13   ar
    16    11    30    1
    17    12    14    1
    18    12    28   ar
    19    13    27   ar
    20    13    32    1
    21    14    29   am
    22    14    33    2
    23    15    17    1
    24    15    19    1
    25    16    18    1
    26    16    19    1
    27    17    29    1
    28    18    29    1
    29    19    32    1
    30    20    25    1
    31    21    26    1
    32    22    26    1
    33    23    32    1
    34    24    36    1
    35    25    26    1
    36    26    30    1
    37    31    36    1
    38    34    36    2
    39    35    36    2
    40     1    37    1
    41     2    38    1
    42     3    39    1
    43     4    40    1
    44     5    41    1
    45     6    42    1
    46     7    43    1
    47    15    44    1
    48    15    45    1
    49    16    46    1
    50    16    47    1
    51    17    48    1
    52    17    49    1
    53    18    50    1
    54    18    51    1
    55    19    52    1
    56    20    53    1
    57    20    54    1
    58    20    55    1
    59    21    56    1
    60    21    57    1
    61    21    58    1
    62    22    59    1
    63    22    60    1
    64    22    61    1
    65    23    62    1
    66    23    63    1
    67    23    64    1
    68    24    65    1
    69    24    66    1
    70    24    67    1
    71    25    68    1
    72    25    69    1
    73    28    70    1
    74    30    71    1
    75    31    72    1
