@<TRIPOS>MOLECULE
ChEBML1137603
 49 52 0 0 0
SMALL
USER_CHARGES

@<TRIPOS>ATOM
      1 C         -12.9821   -2.5089    1.8870 C.ar    1  LIG1       -0.0513
      2 C         -12.5291   -4.6773    0.9369 C.ar    1  LIG1       -0.0513
      3 C          -1.7134   -0.1610   -2.8958 C.ar    1  LIG1       -0.0284
      4 C         -14.3328   -2.7921    1.8767 C.ar    1  LIG1       -0.0428
      5 C         -13.8812   -4.9539    0.9364 C.ar    1  LIG1       -0.0428
      6 C          -2.3847    0.8221   -3.5995 C.ar    1  LIG1       -0.0408
      7 C          -4.2547    0.6240   -2.1120 C.ar    1  LIG1       -0.0195
      8 C         -10.0163   -1.9653    1.8826 C.ar    1  LIG1       -0.0059
      9 C         -12.0711   -3.4531    1.4188 C.ar    1  LIG1        0.0019
     10 C          -3.5889   -0.3671   -1.4057 C.ar    1  LIG1        0.0609
     11 C          -2.3098   -0.7563   -1.7967 C.ar    1  LIG1        0.0958
     12 C         -14.7828   -4.0123    1.4022 C.ar    1  LIG1        0.0406
     13 C          -3.6527    1.2141   -3.2088 C.ar    1  LIG1        0.0426
     14 C         -10.6172   -3.1532    1.4277 C.ar    1  LIG1        0.0905
     15 C          -8.6595   -2.1480    1.6954 C.ar    1  LIG1        0.1123
     16 C          -7.5890   -1.1895    2.0145 C.2     1  LIG1        0.2614
     17 C          -4.5883    0.1137    0.6098 C.3     1  LIG1        0.0275
     18 C          -5.4312   -1.5985   -0.7876 C.3     1  LIG1        0.0275
     19 C          -5.2440   -0.4778    1.8619 C.3     1  LIG1        0.0303
     20 C          -6.1424   -2.3028    0.3723 C.3     1  LIG1        0.0303
     21 C          -0.3822   -1.8955   -1.7402 C.3     1  LIG1        0.0423
     22 N          -9.6561   -3.9508    1.0119 N.ar    1  LIG1       -0.1834
     23 N          -8.5082   -3.3919    1.1499 N.ar    1  LIG1       -0.2326
     24 N          -4.1984   -0.9700   -0.2994 N.pl3   1  LIG1       -0.3255
     25 N          -6.3764   -1.3178    1.4403 N.am    1  LIG1       -0.2935
     26 O          -7.7987   -0.2817    2.7963 O.2     1  LIG1       -0.2701
     27 O          -1.6499   -1.7231   -1.1035 O.3     1  LIG1       -0.3473
     28 CL        -16.4829   -4.3629    1.3919 Cl      1  LIG1       -0.0843
     29 CL         -4.4896    2.4492   -4.0962 Cl      1  LIG1       -0.0842
     30 H         -12.6320   -1.5568    2.2577 H       1  LIG1        0.0630
     31 H         -11.8270   -5.4105    0.5684 H       1  LIG1        0.0630
     32 H          -0.7236   -0.4645   -3.2032 H       1  LIG1        0.0651
     33 H         -15.0398   -2.0609    2.2399 H       1  LIG1        0.0638
     34 H         -14.2368   -5.9047    0.5679 H       1  LIG1        0.0638
     35 H          -1.9177    1.2853   -4.4562 H       1  LIG1        0.0639
     36 H          -5.2444    0.9318   -1.8084 H       1  LIG1        0.0659
     37 H         -10.5101   -1.0961    2.2913 H       1  LIG1        0.0668
     38 H          -3.7040    0.6823    0.8972 H       1  LIG1        0.0485
     39 H          -5.2957    0.7728    0.1067 H       1  LIG1        0.0485
     40 H          -6.0871   -0.8347   -1.2055 H       1  LIG1        0.0485
     41 H          -5.1858   -2.3278   -1.5596 H       1  LIG1        0.0485
     42 H          -4.5187   -1.0844    2.4042 H       1  LIG1        0.0486
     43 H          -5.6028    0.3272    2.5034 H       1  LIG1        0.0486
     44 H          -5.5167   -3.1117    0.7495 H       1  LIG1        0.0486
     45 H          -7.0954   -2.7049    0.0285 H       1  LIG1        0.0486
     46 H          -0.5341   -2.1977   -2.7764 H       1  LIG1        0.0535
     47 H           0.1689   -0.9555   -1.7130 H       1  LIG1        0.0535
     48 H           0.1855   -2.6648   -1.2169 H       1  LIG1        0.0535
     49 H          -7.6598   -3.7936    0.9056 H       1  LIG1        0.1757
@<TRIPOS>BOND
     1     1     4   ar
     2     1     9   ar
     3     2     5   ar
     4     2     9   ar
     5     3     6   ar
     6     3    11   ar
     7     4    12   ar
     8     5    12   ar
     9     6    13   ar
    10     7    10   ar
    11     7    13   ar
    12     8    14   ar
    13     8    15   ar
    14     9    14    1
    15    10    11   ar
    16    10    24    1
    17    11    27    1
    18    12    28    1
    19    13    29    1
    20    14    22   ar
    21    15    16    1
    22    15    23   ar
    23    16    25   am
    24    16    26    2
    25    17    19    1
    26    17    24    1
    27    18    20    1
    28    18    24    1
    29    19    25    1
    30    20    25    1
    31    21    27    1
    32    22    23   ar
    33     1    30    1
    34     2    31    1
    35     3    32    1
    36     4    33    1
    37     5    34    1
    38     6    35    1
    39     7    36    1
    40     8    37    1
    41    17    38    1
    42    17    39    1
    43    18    40    1
    44    18    41    1
    45    19    42    1
    46    19    43    1
    47    20    44    1
    48    20    45    1
    49    21    46    1
    50    21    47    1
    51    21    48    1
    52    23    49    1
