@<TRIPOS>MOLECULE
ChEBML1282457
 50 52 0 0 0
SMALL
USER_CHARGES

@<TRIPOS>ATOM
      1 C         -10.4040   -4.9971    0.5813 C.ar    1  LIG1       -0.0316
      2 C         -11.7043   -5.4112    0.7657 C.ar    1  LIG1       -0.0373
      3 C          -6.6206   -1.9215    0.0979 C.ar    1  LIG1       -0.0381
      4 C          -5.5860   -0.6022    1.8220 C.ar    1  LIG1       -0.0381
      5 C          -5.3935   -2.0809   -0.5152 C.ar    1  LIG1       -0.0299
      6 C          -4.3589   -0.7670    1.2105 C.ar    1  LIG1       -0.0299
      7 C         -12.2041   -3.3830    1.9675 C.ar    1  LIG1       -0.0063
      8 C          -9.9889   -3.7656    1.0898 C.ar    1  LIG1        0.0984
      9 C          -6.7205   -1.1815    1.2687 C.ar    1  LIG1        0.0333
     10 C         -12.6065   -4.6075    1.4577 C.ar    1  LIG1        0.0457
     11 C         -10.8985   -2.9568    1.7873 C.ar    1  LIG1        0.1130
     12 C          -4.2610   -1.5016    0.0380 C.ar    1  LIG1        0.0751
     13 C          -8.9549   -1.9602    1.7076 C.ar    1  LIG1        0.2413
     14 C          -1.9488   -2.6670   -2.4652 C.3     1  LIG1       -0.0410
     15 C         -13.5839   -3.8205   -1.2723 C.3     1  LIG1       -0.0430
     16 C         -15.8614   -4.6171   -1.9211 C.3     1  LIG1       -0.0430
     17 C         -15.5854   -3.0700    0.0212 C.3     1  LIG1       -0.0430
     18 C          -3.2757   -2.4517   -1.7344 C.3     1  LIG1        0.0505
     19 C         -14.9590   -4.2363   -0.7456 C.3     1  LIG1        0.0475
     20 N          -8.8044   -3.0919    1.0695 N.ar    1  LIG1       -0.2077
     21 N          -7.9645   -1.0190    1.8909 N.pl3   1  LIG1       -0.2790
     22 N         -13.9252   -5.0382    1.6397 N.pl3   1  LIG1       -0.2625
     23 O         -13.8828   -6.6279   -0.1702 O.2     1  LIG1       -0.4806
     24 O         -16.0154   -6.0234    0.9572 O.2     1  LIG1       -0.4806
     25 O         -10.2187   -1.8460    2.1540 O.2     1  LIG1       -0.2770
     26 O          -3.0531   -1.6586   -0.5666 O.3     1  LIG1       -0.3463
     27 S         -14.7766   -5.6605    0.3629 S.O2    1  LIG1       -0.1878
     28 H          -9.7072   -5.6238    0.0446 H       1  LIG1        0.0647
     29 H         -12.0258   -6.3641    0.3720 H       1  LIG1        0.0643
     30 H          -7.5024   -2.3720   -0.3332 H       1  LIG1        0.0643
     31 H          -5.6629   -0.0265    2.7326 H       1  LIG1        0.0643
     32 H          -5.3157   -2.6564   -1.4257 H       1  LIG1        0.0651
     33 H          -3.4759   -0.3203    1.6431 H       1  LIG1        0.0651
     34 H         -12.9067   -2.7628    2.5043 H       1  LIG1        0.0671
     35 H          -1.5330   -1.7021   -2.7551 H       1  LIG1        0.0254
     36 H          -1.2497   -3.1805   -1.8051 H       1  LIG1        0.0254
     37 H          -2.1187   -3.2718   -3.3559 H       1  LIG1        0.0254
     38 H         -13.1377   -4.6514   -1.8186 H       1  LIG1        0.0252
     39 H         -13.6935   -2.9648   -1.9384 H       1  LIG1        0.0252
     40 H         -12.9411   -3.5492   -0.4349 H       1  LIG1        0.0252
     41 H         -16.8410   -4.9133   -1.5458 H       1  LIG1        0.0252
     42 H         -15.9710   -3.7613   -2.5872 H       1  LIG1        0.0252
     43 H         -15.4151   -5.4481   -2.4674 H       1  LIG1        0.0252
     44 H         -14.9019   -2.7408    0.8039 H       1  LIG1        0.0252
     45 H         -15.7764   -2.2448   -0.6648 H       1  LIG1        0.0252
     46 H         -16.5242   -3.3932    0.4710 H       1  LIG1        0.0252
     47 H          -3.9748   -1.9382   -2.3944 H       1  LIG1        0.0569
     48 H          -3.6916   -3.4166   -1.4445 H       1  LIG1        0.0569
     49 H          -8.1292   -0.2441    2.4507 H       1  LIG1        0.1563
     50 H         -14.3407   -4.9722    2.5137 H       1  LIG1        0.1702
@<TRIPOS>BOND
     1     1     2   ar
     2     1     8   ar
     3     2    10   ar
     4     3     5   ar
     5     3     9   ar
     6     4     6   ar
     7     4     9   ar
     8     5    12   ar
     9     6    12   ar
    10     7    10   ar
    11     7    11   ar
    12     8    11   ar
    13     8    20   ar
    14     9    21    1
    15    10    22    1
    16    11    25   ar
    17    12    26    1
    18    13    20   ar
    19    13    21    1
    20    13    25   ar
    21    14    18    1
    22    15    19    1
    23    16    19    1
    24    17    19    1
    25    18    26    1
    26    19    27    1
    27    22    27    1
    28    23    27    2
    29    24    27    2
    30     1    28    1
    31     2    29    1
    32     3    30    1
    33     4    31    1
    34     5    32    1
    35     6    33    1
    36     7    34    1
    37    14    35    1
    38    14    36    1
    39    14    37    1
    40    15    38    1
    41    15    39    1
    42    15    40    1
    43    16    41    1
    44    16    42    1
    45    16    43    1
    46    17    44    1
    47    17    45    1
    48    17    46    1
    49    18    47    1
    50    18    48    1
    51    21    49    1
    52    22    50    1
