@<TRIPOS>MOLECULE
ChEBML53132
 59 62 0 0 0
SMALL
USER_CHARGES

@<TRIPOS>ATOM
      1 C          -2.3467    1.0001   -3.4781 C.ar    1  LIG1       -0.0418
      2 C         -10.3749   -5.1653    0.4852 C.ar    1  LIG1       -0.0375
      3 C          -1.7993   -0.2080   -3.0677 C.ar    1  LIG1       -0.0360
      4 C         -11.6914   -5.5161    0.6771 C.ar    1  LIG1       -0.0275
      5 C         -12.0820   -3.5132    1.9501 C.ar    1  LIG1       -0.0202
      6 C          -9.9777   -2.0269    2.1784 C.ar    1  LIG1       -0.0261
      7 C          -3.5028    1.4579   -2.8793 C.ar    1  LIG1        0.0292
      8 C         -10.7435   -3.1428    1.7628 C.ar    1  LIG1        0.0005
      9 C          -9.8847   -3.9784    1.0230 C.ar    1  LIG1        0.0380
     10 C          -2.4413   -0.9170   -2.0611 C.ar    1  LIG1        0.0672
     11 C         -12.5459   -4.6926    1.4081 C.ar    1  LIG1        0.1024
     12 C          -8.7146   -2.1916    1.7049 C.ar    1  LIG1        0.0947
     13 C          -3.6113   -0.3935   -1.5051 C.ar    1  LIG1        0.1412
     14 C          -7.5983   -1.2568    1.9109 C.2     1  LIG1        0.2599
     15 C          -4.4754   -0.1508    0.6073 C.3     1  LIG1        0.0288
     16 C          -5.5947   -1.4445   -1.0261 C.3     1  LIG1        0.0288
     17 C          -5.1789   -0.8634    1.7668 C.3     1  LIG1        0.0303
     18 C          -6.3720   -2.2425    0.0257 C.3     1  LIG1        0.0303
     19 C           0.5159   -2.1589   -1.7225 C.3     1  LIG1       -0.0470
     20 C          -0.7932   -4.2577   -2.0740 C.3     1  LIG1       -0.0470
     21 C         -14.1872   -5.5487   -0.9622 C.3     1  LIG1        0.0307
     22 C          -0.7778   -2.7435   -2.2931 C.3     1  LIG1        0.0142
     23 N          -4.0941    0.7644   -1.9238 N.ar    1  LIG1       -0.2394
     24 N          -8.6479   -3.3743    0.9946 N.ar    1  LIG1       -0.3101
     25 N          -4.2713   -1.0939   -0.4981 N.pl3   1  LIG1       -0.3112
     26 N          -6.4324   -1.4461    1.2618 N.am    1  LIG1       -0.2936
     27 N          -1.9273   -2.1402   -1.6143 N.pl3   1  LIG1       -0.3393
     28 O          -7.7272   -0.3127    2.6670 O.2     1  LIG1       -0.2701
     29 O         -15.9794   -4.6579    0.8277 O.2     1  LIG1       -0.4736
     30 O         -14.0609   -3.1728    0.2820 O.2     1  LIG1       -0.4736
     31 O         -13.8442   -5.0549    1.5879 O.3     1  LIG1       -0.2441
     32 S         -14.6302   -4.4669    0.4248 S.O2    1  LIG1       -0.1529
     33 H          -1.8720    1.5766   -4.2583 H       1  LIG1        0.0639
     34 H          -9.7215   -5.8107   -0.0829 H       1  LIG1        0.0643
     35 H          -0.8952   -0.5872   -3.5206 H       1  LIG1        0.0644
     36 H         -12.0660   -6.4382    0.2577 H       1  LIG1        0.0652
     37 H         -12.7466   -2.8777    2.5166 H       1  LIG1        0.0658
     38 H         -10.3335   -1.1938    2.7665 H       1  LIG1        0.0651
     39 H          -3.9301    2.3976   -3.1967 H       1  LIG1        0.0840
     40 H          -3.5104    0.2268    0.9452 H       1  LIG1        0.0485
     41 H          -5.0910    0.6813    0.2656 H       1  LIG1        0.0485
     42 H          -6.1420   -0.5334   -1.2681 H       1  LIG1        0.0485
     43 H          -5.4782   -2.0476   -1.9265 H       1  LIG1        0.0485
     44 H          -4.5369   -1.6541    2.1554 H       1  LIG1        0.0486
     45 H          -5.3997   -0.1471    2.5582 H       1  LIG1        0.0486
     46 H          -5.8624   -3.1859    0.2213 H       1  LIG1        0.0486
     47 H          -7.3820   -2.4382   -0.3346 H       1  LIG1        0.0486
     48 H           0.5712   -2.3722   -0.6550 H       1  LIG1        0.0249
     49 H           1.3712   -2.6078   -2.2276 H       1  LIG1        0.0249
     50 H           0.5268   -1.0802   -1.8785 H       1  LIG1        0.0249
     51 H          -0.7378   -4.4710   -1.0066 H       1  LIG1        0.0249
     52 H          -1.7148   -4.6743   -2.4805 H       1  LIG1        0.0249
     53 H           0.0621   -4.7066   -2.5791 H       1  LIG1        0.0249
     54 H         -14.4832   -6.5726   -0.7334 H       1  LIG1        0.0450
     55 H         -14.7022   -5.2143   -1.8628 H       1  LIG1        0.0450
     56 H         -13.1100   -5.5095   -1.1239 H       1  LIG1        0.0450
     57 H          -0.8331   -2.5302   -3.3606 H       1  LIG1        0.0497
     58 H          -7.8590   -3.7230    0.5511 H       1  LIG1        0.1529
     59 H          -2.3324   -2.5884   -0.8552 H       1  LIG1        0.1469
@<TRIPOS>BOND
     1     1     3   ar
     2     1     7   ar
     3     2     4   ar
     4     2     9   ar
     5     3    10   ar
     6     4    11   ar
     7     5     8   ar
     8     5    11   ar
     9     6     8   ar
    10     6    12   ar
    11     7    23   ar
    12     8     9   ar
    13     9    24   ar
    14    10    13   ar
    15    10    27    1
    16    11    31    1
    17    12    14    1
    18    12    24   ar
    19    13    23   ar
    20    13    25    1
    21    14    26   am
    22    14    28    2
    23    15    17    1
    24    15    25    1
    25    16    18    1
    26    16    25    1
    27    17    26    1
    28    18    26    1
    29    19    22    1
    30    20    22    1
    31    21    32    1
    32    22    27    1
    33    29    32    2
    34    30    32    2
    35    31    32    1
    36     1    33    1
    37     2    34    1
    38     3    35    1
    39     4    36    1
    40     5    37    1
    41     6    38    1
    42     7    39    1
    43    15    40    1
    44    15    41    1
    45    16    42    1
    46    16    43    1
    47    17    44    1
    48    17    45    1
    49    18    46    1
    50    18    47    1
    51    19    48    1
    52    19    49    1
    53    19    50    1
    54    20    51    1
    55    20    52    1
    56    20    53    1
    57    21    54    1
    58    21    55    1
    59    21    56    1
    60    22    57    1
    61    24    58    1
    62    27    59    1
