@<TRIPOS>MOLECULE
ChEBML208502
 48 51 0 0 0
SMALL
USER_CHARGES

@<TRIPOS>ATOM
      1 C          -0.0641    0.5917   -2.6490 C.ar    1  LIG1       -0.0622
      2 C          -0.7022    1.3988   -1.7072 C.ar    1  LIG1       -0.0620
      3 C          -0.8163   -0.2370   -3.4814 C.ar    1  LIG1       -0.0620
      4 C          -2.0926    1.3771   -1.5978 C.ar    1  LIG1       -0.0590
      5 C          -2.2067   -0.2588   -3.3721 C.ar    1  LIG1       -0.0590
      6 C         -12.0940   -3.5362    1.7370 C.ar    1  LIG1       -0.0227
      7 C         -10.0435   -1.9347    1.9248 C.ar    1  LIG1       -0.0260
      8 C         -11.4967   -5.7257    0.8731 C.ar    1  LIG1        0.0000
      9 C         -10.7464   -3.1374    1.6343 C.ar    1  LIG1        0.0031
     10 C          -2.8449    0.5483   -2.4303 C.ar    1  LIG1       -0.0477
     11 C          -9.8095   -4.0530    1.1503 C.ar    1  LIG1        0.0685
     12 C         -12.4533   -4.8331    1.3526 C.ar    1  LIG1        0.0746
     13 C         -10.1541   -5.3526    0.7623 C.ar    1  LIG1        0.0958
     14 C          -8.7182   -2.1397    1.6176 C.ar    1  LIG1        0.0947
     15 C          -7.6243   -1.2212    1.7405 C.2     1  LIG1        0.2598
     16 C          -6.2766   -0.9197   -1.5746 C.3     1  LIG1       -0.0341
     17 C          -4.6447   -0.0256    0.1309 C.3     1  LIG1       -0.0341
     18 C          -6.7849   -1.9102   -0.5287 C.3     1  LIG1        0.0147
     19 C          -5.1845   -1.0423    1.1338 C.3     1  LIG1        0.0147
     20 C          -4.8135   -0.5288   -1.3118 C.3     1  LIG1       -0.0344
     21 C          -4.3442    0.5243   -2.3126 C.3     1  LIG1       -0.0249
     22 N          -8.5869   -3.4201    1.1510 N.ar    1  LIG1       -0.3080
     23 N          -6.5790   -1.3844    0.8219 N.am    1  LIG1       -0.2967
     24 O          -7.6333   -0.3534    2.6117 O.2     1  LIG1       -0.2702
     25 O         -13.7552   -5.2250    1.4489 O.3     1  LIG1       -0.3608
     26 O          -9.2281   -6.2397    0.2907 O.3     1  LIG1       -0.3588
     27 H           1.0185    0.6097   -2.7349 H       1  LIG1        0.0622
     28 H          -0.1168    2.0450   -1.0597 H       1  LIG1        0.0623
     29 H          -0.3199   -0.8648   -4.2156 H       1  LIG1        0.0623
     30 H          -2.5813    2.0092   -0.8610 H       1  LIG1        0.0625
     31 H          -2.7847   -0.9077   -4.0248 H       1  LIG1        0.0625
     32 H         -12.8456   -2.8455    2.1098 H       1  LIG1        0.0657
     33 H         -10.4662   -1.0187    2.3155 H       1  LIG1        0.0651
     34 H         -11.7980   -6.7292    0.5801 H       1  LIG1        0.0678
     35 H          -6.3756   -1.3597   -2.5737 H       1  LIG1        0.0285
     36 H          -6.9062   -0.0206   -1.5538 H       1  LIG1        0.0285
     37 H          -5.1803    0.9244    0.2556 H       1  LIG1        0.0285
     38 H          -3.5864    0.1694    0.3403 H       1  LIG1        0.0285
     39 H          -7.8433   -2.1251   -0.7065 H       1  LIG1        0.0469
     40 H          -6.2401   -2.8590   -0.5998 H       1  LIG1        0.0469
     41 H          -4.6031   -1.9710    1.0892 H       1  LIG1        0.0469
     42 H          -5.0815   -0.6445    2.1463 H       1  LIG1        0.0469
     43 H          -4.1886   -1.4224   -1.4418 H       1  LIG1        0.0307
     44 H          -4.7104    1.5089   -2.0045 H       1  LIG1        0.0319
     45 H          -4.7922    0.3225   -3.2912 H       1  LIG1        0.0319
     46 H          -7.7200   -3.8430    0.8492 H       1  LIG1        0.1530
     47 H         -14.2979   -4.5002    1.7961 H       1  LIG1        0.2182
     48 H          -9.6558   -7.0820    0.0763 H       1  LIG1        0.2183
@<TRIPOS>BOND
     1     1     2   ar
     2     1     3   ar
     3     2     4   ar
     4     3     5   ar
     5     4    10   ar
     6     5    10   ar
     7     6     9   ar
     8     6    12   ar
     9     7     9   ar
    10     7    14   ar
    11     8    12   ar
    12     8    13   ar
    13     9    11   ar
    14    10    21    1
    15    11    13   ar
    16    11    22   ar
    17    12    25    1
    18    13    26    1
    19    14    15    1
    20    14    22   ar
    21    15    23   am
    22    15    24    2
    23    16    18    1
    24    16    20    1
    25    17    19    1
    26    17    20    1
    27    18    23    1
    28    19    23    1
    29    20    21    1
    30     1    27    1
    31     2    28    1
    32     3    29    1
    33     4    30    1
    34     5    31    1
    35     6    32    1
    36     7    33    1
    37     8    34    1
    38    16    35    1
    39    16    36    1
    40    17    37    1
    41    17    38    1
    42    18    39    1
    43    18    40    1
    44    19    41    1
    45    19    42    1
    46    20    43    1
    47    21    44    1
    48    21    45    1
    49    22    46    1
    50    25    47    1
    51    26    48    1
