@<TRIPOS>MOLECULE
ChEBML967740
 39 41 0 0 0
SMALL
USER_CHARGES

@<TRIPOS>ATOM
      1 C          -1.6069    0.7762   -3.7335 C.ar    1  LIG1       -0.0618
      2 C         -11.3009   -5.4428    0.7879 C.ar    1  LIG1       -0.0600
      3 C         -12.1936   -4.8606    1.6907 C.ar    1  LIG1       -0.0602
      4 C          -2.4208    1.7498   -3.1545 C.ar    1  LIG1       -0.0596
      5 C          -1.7384   -0.5593   -3.3532 C.ar    1  LIG1       -0.0567
      6 C         -10.0559   -4.8575    0.5251 C.ar    1  LIG1       -0.0344
      7 C         -11.8766   -3.6754    2.3626 C.ar    1  LIG1       -0.0385
      8 C          -3.3664    1.3877   -2.1950 C.ar    1  LIG1       -0.0315
      9 C          -2.6840   -0.9214   -2.3937 C.ar    1  LIG1       -0.0208
     10 C          -9.7211   -3.6664    1.1913 C.ar    1  LIG1        0.0871
     11 C         -10.6315   -3.1102    2.0854 C.ar    1  LIG1        0.0580
     12 C          -3.4980    0.0522   -1.8147 C.ar    1  LIG1        0.0779
     13 C          -8.7856   -1.8992    1.9405 C.ar    1  LIG1        0.1575
     14 C          -2.8106   -2.3555   -1.9986 C.3     1  LIG1       -0.0372
     15 C          -5.2029    0.0540    1.3727 C.3     1  LIG1       -0.0195
     16 C          -4.0072   -0.2694    0.4860 C.3     1  LIG1        0.0541
     17 C          -6.2992   -0.9939    1.2255 C.3     1  LIG1        0.0030
     18 N          -8.5805   -2.9006    1.1145 N.ar    1  LIG1       -0.2249
     19 N         -10.0069   -1.9810    2.5494 N.ar    1  LIG1       -0.2923
     20 O          -4.4317   -0.2865   -0.8699 O.3     1  LIG1       -0.3458
     21 S          -7.7179   -0.5928    2.2876 S.3     1  LIG1       -0.0905
     22 H          -0.8699    1.0577   -4.4803 H       1  LIG1        0.0623
     23 H         -11.5761   -6.3641    0.2806 H       1  LIG1        0.0623
     24 H         -13.1537   -5.3357    1.8765 H       1  LIG1        0.0623
     25 H          -2.3174    2.7896   -3.4503 H       1  LIG1        0.0623
     26 H          -1.0984   -1.3101   -3.8091 H       1  LIG1        0.0626
     27 H          -9.3693   -5.3183   -0.1778 H       1  LIG1        0.0646
     28 H         -12.5677   -3.2217    3.0639 H       1  LIG1        0.0643
     29 H          -3.9976    2.1506   -1.7476 H       1  LIG1        0.0650
     30 H          -2.1451   -2.5782   -1.1563 H       1  LIG1        0.0281
     31 H          -3.8396   -2.5966   -1.7038 H       1  LIG1        0.0281
     32 H          -2.5536   -3.0211   -2.8323 H       1  LIG1        0.0281
     33 H          -4.8652    0.1204    2.4151 H       1  LIG1        0.0299
     34 H          -5.5796    1.0515    1.1114 H       1  LIG1        0.0299
     35 H          -3.2234    0.4866    0.5960 H       1  LIG1        0.0572
     36 H          -3.5923   -1.2519    0.7332 H       1  LIG1        0.0572
     37 H          -5.9262   -1.9834    1.5086 H       1  LIG1        0.0386
     38 H          -6.6464   -1.0463    0.1888 H       1  LIG1        0.0386
     39 H         -10.3820   -1.3252    3.2216 H       1  LIG1        0.1549
@<TRIPOS>BOND
     1     1     4   ar
     2     1     5   ar
     3     2     3   ar
     4     2     6   ar
     5     3     7   ar
     6     4     8   ar
     7     5     9   ar
     8     6    10   ar
     9     7    11   ar
    10     8    12   ar
    11     9    12   ar
    12     9    14    1
    13    10    11   ar
    14    10    18   ar
    15    11    19   ar
    16    12    20    1
    17    13    18   ar
    18    13    19   ar
    19    13    21    1
    20    15    16    1
    21    15    17    1
    22    16    20    1
    23    17    21    1
    24     1    22    1
    25     2    23    1
    26     3    24    1
    27     4    25    1
    28     5    26    1
    29     6    27    1
    30     7    28    1
    31     8    29    1
    32    14    30    1
    33    14    31    1
    34    14    32    1
    35    15    33    1
    36    15    34    1
    37    16    35    1
    38    16    36    1
    39    17    37    1
    40    17    38    1
    41    19    39    1
