@<TRIPOS>MOLECULE
ChEBML1803
 49 52 0 0 0
SMALL
USER_CHARGES

@<TRIPOS>ATOM
      1 C         -12.5410   -4.6840    1.4114 C.ar    1  LIG1       -0.0615
      2 C         -11.6951   -5.5084    0.6798 C.ar    1  LIG1       -0.0603
      3 C          -2.3545    1.0089   -3.4827 C.ar    1  LIG1       -0.0418
      4 C         -12.0807   -3.5173    1.9485 C.ar    1  LIG1       -0.0530
      5 C         -10.3768   -5.1638    0.4828 C.ar    1  LIG1       -0.0402
      6 C          -1.7878   -0.1825   -3.0505 C.ar    1  LIG1       -0.0360
      7 C          -9.9781   -2.0279    2.1782 C.ar    1  LIG1       -0.0262
      8 C          -3.5278    1.4495   -2.9047 C.ar    1  LIG1        0.0292
      9 C         -10.7433   -3.1440    1.7618 C.ar    1  LIG1       -0.0022
     10 C          -9.8839   -3.9777    1.0201 C.ar    1  LIG1        0.0378
     11 C          -2.4284   -0.8927   -2.0437 C.ar    1  LIG1        0.0670
     12 C          -8.7156   -2.1915    1.7035 C.ar    1  LIG1        0.0947
     13 C          -3.6163   -0.3872   -1.5095 C.ar    1  LIG1        0.1412
     14 C          -7.5994   -1.2565    1.9094 C.2     1  LIG1        0.2599
     15 C          -4.4784   -0.1474    0.6040 C.3     1  LIG1        0.0288
     16 C          -5.5987   -1.4395   -1.0298 C.3     1  LIG1        0.0288
     17 C          -5.1803   -0.8619    1.7635 C.3     1  LIG1        0.0303
     18 C          -6.3746   -2.2393    0.0217 C.3     1  LIG1        0.0303
     19 C          -0.3485   -3.9935   -1.5301 C.3     1  LIG1       -0.0497
     20 C          -0.7250   -2.6873   -2.2322 C.3     1  LIG1        0.0056
     21 N          -4.1174    0.7552   -1.9487 N.ar    1  LIG1       -0.2394
     22 N          -8.6491   -3.3735    0.9914 N.ar    1  LIG1       -0.3101
     23 N          -4.2749   -1.0891   -0.5027 N.pl3   1  LIG1       -0.3112
     24 N          -6.4341   -1.4444    1.2589 N.am    1  LIG1       -0.2936
     25 N          -1.8951   -2.0996   -1.5752 N.pl3   1  LIG1       -0.3419
     26 O          -7.7279   -0.3133    2.6668 O.2     1  LIG1       -0.2701
     27 H         -13.5723   -4.9696    1.5566 H       1  LIG1        0.0623
     28 H         -12.0753   -6.4287    0.2618 H       1  LIG1        0.0623
     29 H          -1.8816    1.5857   -4.2637 H       1  LIG1        0.0639
     30 H         -12.7456   -2.8833    2.5163 H       1  LIG1        0.0629
     31 H          -9.7270   -5.8115   -0.0868 H       1  LIG1        0.0642
     32 H          -0.8700   -0.5483   -3.4868 H       1  LIG1        0.0644
     33 H         -10.3340   -1.1957    2.7676 H       1  LIG1        0.0651
     34 H          -3.9702    2.3762   -3.2392 H       1  LIG1        0.0840
     35 H          -3.5131    0.2301    0.9414 H       1  LIG1        0.0485
     36 H          -5.0947    0.6848    0.2640 H       1  LIG1        0.0485
     37 H          -6.1466   -0.5284   -1.2701 H       1  LIG1        0.0485
     38 H          -5.4830   -2.0416   -1.9311 H       1  LIG1        0.0485
     39 H          -4.5377   -1.6526    2.1503 H       1  LIG1        0.0486
     40 H          -5.4007   -0.1465    2.5558 H       1  LIG1        0.0486
     41 H          -5.8644   -3.1827    0.2157 H       1  LIG1        0.0486
     42 H          -7.3849   -2.4349   -0.3377 H       1  LIG1        0.0486
     43 H          -0.1145   -3.7900   -0.4851 H       1  LIG1        0.0246
     44 H          -1.1847   -4.6903   -1.5862 H       1  LIG1        0.0246
     45 H           0.5221   -4.4308   -2.0189 H       1  LIG1        0.0246
     46 H           0.1114   -1.9905   -2.1761 H       1  LIG1        0.0463
     47 H          -0.9590   -2.8908   -3.2771 H       1  LIG1        0.0463
     48 H          -7.8605   -3.7211    0.5465 H       1  LIG1        0.1529
     49 H          -2.3004   -2.5465   -0.8158 H       1  LIG1        0.1466
@<TRIPOS>BOND
     1     1     2   ar
     2     1     4   ar
     3     2     5   ar
     4     3     6   ar
     5     3     8   ar
     6     4     9   ar
     7     5    10   ar
     8     6    11   ar
     9     7     9   ar
    10     7    12   ar
    11     8    21   ar
    12     9    10   ar
    13    10    22   ar
    14    11    13   ar
    15    11    25    1
    16    12    14    1
    17    12    22   ar
    18    13    21   ar
    19    13    23    1
    20    14    24   am
    21    14    26    2
    22    15    17    1
    23    15    23    1
    24    16    18    1
    25    16    23    1
    26    17    24    1
    27    18    24    1
    28    19    20    1
    29    20    25    1
    30     1    27    1
    31     2    28    1
    32     3    29    1
    33     4    30    1
    34     5    31    1
    35     6    32    1
    36     7    33    1
    37     8    34    1
    38    15    35    1
    39    15    36    1
    40    16    37    1
    41    16    38    1
    42    17    39    1
    43    17    40    1
    44    18    41    1
    45    18    42    1
    46    19    43    1
    47    19    44    1
    48    19    45    1
    49    20    46    1
    50    20    47    1
    51    22    48    1
    52    25    49    1
