@<TRIPOS>MOLECULE
ChEBML208894
 42 45 0 0 0
SMALL
USER_CHARGES

@<TRIPOS>ATOM
      1 C          -1.9510   -0.6979   -2.9486 C.ar    1  LIG1       -0.0573
      2 C          -2.1133    0.5642   -3.5091 C.ar    1  LIG1       -0.0437
      3 C         -10.9169   -4.2510   -0.3526 C.ar    1  LIG1       -0.0356
      4 C         -12.1590   -4.8069   -0.0295 C.ar    1  LIG1       -0.0243
      5 C          -2.7800   -1.1023   -1.9080 C.ar    1  LIG1       -0.0217
      6 C         -11.9813   -4.0470    2.2768 C.ar    1  LIG1        0.0014
      7 C          -3.1114    1.3776   -2.9972 C.ar    1  LIG1        0.0290
      8 C         -10.7316   -3.4828    1.9699 C.ar    1  LIG1        0.0893
      9 C         -10.2350   -3.5977    0.6746 C.ar    1  LIG1        0.0577
     10 C         -12.6838   -4.7079    1.2612 C.ar    1  LIG1        0.1250
     11 C          -3.7481   -0.2141   -1.4677 C.ar    1  LIG1        0.1202
     12 C          -8.8415   -2.4895    1.9878 C.ar    1  LIG1        0.1434
     13 C          -5.3546   -1.8359   -0.7173 C.3     1  LIG1        0.0523
     14 C          -5.2695    0.4484    0.2679 C.3     1  LIG1        0.0523
     15 C          -6.0177   -2.3563    0.5509 C.3     1  LIG1       -0.0176
     16 C          -5.9378   -0.0764    1.5324 C.3     1  LIG1       -0.0176
     17 C          -7.6047   -1.7312    2.3703 C.3     1  LIG1        0.0233
     18 N          -3.9359    1.0197   -1.9874 N.ar    1  LIG1       -0.2414
     19 N          -9.8525   -2.7913    2.7714 N.ar    1  LIG1       -0.2302
     20 N          -9.0251   -2.9535    0.7150 N.ar    1  LIG1       -0.2969
     21 N          -4.5650   -0.6307   -0.4317 N.pl3   1  LIG1       -0.3054
     22 N          -6.8198   -1.2475    1.1834 N.4     1  LIG1        0.2537
     23 F         -13.8775   -5.2529    1.5326 F       1  LIG1       -0.2069
     24 H          -1.1791   -1.3647   -3.3213 H       1  LIG1        0.0624
     25 H          -1.4788    0.9009   -4.3207 H       1  LIG1        0.0639
     26 H         -10.5080   -4.3261   -1.3539 H       1  LIG1        0.0644
     27 H         -12.7268   -5.3251   -0.7979 H       1  LIG1        0.0654
     28 H          -2.6606   -2.0857   -1.4652 H       1  LIG1        0.0659
     29 H         -12.3975   -3.9762    3.2766 H       1  LIG1        0.0677
     30 H          -3.2794    2.3712   -3.3998 H       1  LIG1        0.0840
     31 H          -4.7091   -2.6241   -1.1241 H       1  LIG1        0.0524
     32 H          -6.1170   -1.6094   -1.4743 H       1  LIG1        0.0524
     33 H          -6.0225    0.8928   -0.3963 H       1  LIG1        0.0524
     34 H          -4.5661    1.2424    0.5474 H       1  LIG1        0.0524
     35 H          -6.7061   -3.1756    0.3200 H       1  LIG1        0.0831
     36 H          -5.2793   -2.6928    1.2879 H       1  LIG1        0.0831
     37 H          -5.2020   -0.4243    2.2667 H       1  LIG1        0.0831
     38 H          -6.5710    0.6944    1.9839 H       1  LIG1        0.0831
     39 H          -7.8514   -0.8459    2.9662 H       1  LIG1        0.0899
     40 H          -6.9264   -2.3541    2.9633 H       1  LIG1        0.0899
     41 H          -8.3849   -2.8431   -0.0604 H       1  LIG1        0.1542
     42 H          -7.5070   -0.9239    0.4885 H       1  LIG1        0.2009
@<TRIPOS>BOND
     1     1     2   ar
     2     1     5   ar
     3     2     7   ar
     4     3     4   ar
     5     3     9   ar
     6     4    10   ar
     7     5    11   ar
     8     6     8   ar
     9     6    10   ar
    10     7    18   ar
    11     8     9   ar
    12     8    19   ar
    13     9    20   ar
    14    10    23    1
    15    11    18   ar
    16    11    21    1
    17    12    17    1
    18    12    19   ar
    19    12    20   ar
    20    13    15    1
    21    13    21    1
    22    14    16    1
    23    14    21    1
    24    15    22    1
    25    16    22    1
    26    17    22    1
    27     1    24    1
    28     2    25    1
    29     3    26    1
    30     4    27    1
    31     5    28    1
    32     6    29    1
    33     7    30    1
    34    13    31    1
    35    13    32    1
    36    14    33    1
    37    14    34    1
    38    15    35    1
    39    15    36    1
    40    16    37    1
    41    16    38    1
    42    17    39    1
    43    17    40    1
    44    20    41    1
    45    22    42    1
