@<TRIPOS>MOLECULE
ChEBML249110
 55 58 0 0 0
SMALL
USER_CHARGES

@<TRIPOS>ATOM
      1 C         -12.5268   -4.6175    0.2813 C.ar    1  LIG1       -0.0615
      2 C         -11.5568   -5.1636   -0.5570 C.ar    1  LIG1       -0.0603
      3 C          -2.1954    1.4802   -3.7315 C.ar    1  LIG1       -0.0418
      4 C         -12.1689   -3.7569    1.3254 C.ar    1  LIG1       -0.0530
      5 C         -10.2021   -4.8685   -0.3799 C.ar    1  LIG1       -0.0402
      6 C          -1.5935    0.3719   -3.1463 C.ar    1  LIG1       -0.0360
      7 C         -10.1038   -2.6326    2.4550 C.ar    1  LIG1       -0.0262
      8 C          -3.5491    1.6759   -3.5094 C.ar    1  LIG1        0.0292
      9 C         -10.8091   -3.4449    1.5235 C.ar    1  LIG1       -0.0022
     10 C          -9.8590   -4.0068    0.6680 C.ar    1  LIG1        0.0378
     11 C          -2.3527   -0.4947   -2.3680 C.ar    1  LIG1        0.0670
     12 C          -8.7641   -2.7158    2.1527 C.ar    1  LIG1        0.0947
     13 C          -3.6992   -0.2105   -2.2068 C.ar    1  LIG1        0.1411
     14 C          -7.6624   -2.0752    2.8095 C.2     1  LIG1        0.2598
     15 C          -4.6439   -1.3407    1.0084 C.3     1  LIG1       -0.0185
     16 C          -6.6730   -0.7898   -0.4002 C.3     1  LIG1       -0.0185
     17 C          -5.4570   -0.9894    2.2536 C.3     1  LIG1        0.0162
     18 C          -7.4415   -0.4722    0.8835 C.3     1  LIG1        0.0162
     19 C          -5.1577   -0.6103   -0.2387 C.3     1  LIG1        0.0268
     20 C          -0.3262   -3.5662   -1.7512 C.3     1  LIG1       -0.0497
     21 C          -4.5897   -2.4890   -1.7867 C.3     1  LIG1        0.0018
     22 C          -0.5062   -2.1676   -2.2350 C.3     1  LIG1        0.0056
     23 N          -4.3191    0.8561   -2.7595 N.ar    1  LIG1       -0.2394
     24 N          -8.6264   -3.5467    1.0734 N.ar    1  LIG1       -0.3101
     25 N          -6.8891   -1.2167    2.0165 N.am    1  LIG1       -0.2966
     26 N          -1.7453   -1.6172   -1.7747 N.pl3   1  LIG1       -0.3419
     27 N          -4.4707   -1.0779   -1.4259 N.pl3   1  LIG1       -0.3142
     28 O          -7.4368   -2.2875    3.9997 O.2     1  LIG1       -0.2702
     29 H         -13.5741   -4.8612    0.1232 H       1  LIG1        0.0623
     30 H         -11.8573   -5.8299   -1.3614 H       1  LIG1        0.0623
     31 H          -1.6233    2.1693   -4.3422 H       1  LIG1        0.0639
     32 H         -12.9353   -3.3377    1.9714 H       1  LIG1        0.0629
     33 H          -9.4471   -5.2942   -1.0324 H       1  LIG1        0.0642
     34 H          -0.5330    0.1942   -3.3040 H       1  LIG1        0.0644
     35 H         -10.5348   -2.0510    3.2591 H       1  LIG1        0.0651
     36 H          -4.0667    2.5251   -3.9434 H       1  LIG1        0.0840
     37 H          -3.5870   -1.1070    1.1823 H       1  LIG1        0.0302
     38 H          -4.7127   -2.4223    0.8351 H       1  LIG1        0.0302
     39 H          -6.8711   -1.8337   -0.6761 H       1  LIG1        0.0302
     40 H          -7.0508   -0.1642   -1.2175 H       1  LIG1        0.0302
     41 H          -5.0907   -1.5783    3.0984 H       1  LIG1        0.0470
     42 H          -5.3329    0.0654    2.5241 H       1  LIG1        0.0470
     43 H          -7.3724    0.5945    1.1256 H       1  LIG1        0.0470
     44 H          -8.5017   -0.7057    0.7442 H       1  LIG1        0.0470
     45 H          -4.9394    0.4587   -0.1331 H       1  LIG1        0.0506
     46 H          -0.3177   -3.6028   -0.6563 H       1  LIG1        0.0246
     47 H          -1.1241   -4.2153   -2.1280 H       1  LIG1        0.0246
     48 H           0.6311   -3.9630   -2.1099 H       1  LIG1        0.0246
     49 H          -5.2274   -3.0084   -1.0669 H       1  LIG1        0.0432
     50 H          -3.6042   -2.9626   -1.7898 H       1  LIG1        0.0432
     51 H          -5.0295   -2.5885   -2.7827 H       1  LIG1        0.0432
     52 H          -0.5138   -2.1383   -3.3288 H       1  LIG1        0.0463
     53 H           0.3001   -1.5242   -1.8708 H       1  LIG1        0.0463
     54 H          -7.7485   -3.7902    0.6355 H       1  LIG1        0.1529
     55 H          -2.2202   -2.0359   -0.9956 H       1  LIG1        0.1466
@<TRIPOS>BOND
     1     1     2   ar
     2     1     4   ar
     3     2     5   ar
     4     3     6   ar
     5     3     8   ar
     6     4     9   ar
     7     5    10   ar
     8     6    11   ar
     9     7     9   ar
    10     7    12   ar
    11     8    23   ar
    12     9    10   ar
    13    10    24   ar
    14    11    13   ar
    15    11    26    1
    16    12    14    1
    17    12    24   ar
    18    13    23   ar
    19    13    27    1
    20    14    25   am
    21    14    28    2
    22    15    17    1
    23    15    19    1
    24    16    18    1
    25    16    19    1
    26    17    25    1
    27    18    25    1
    28    19    27    1
    29    20    22    1
    30    21    27    1
    31    22    26    1
    32     1    29    1
    33     2    30    1
    34     3    31    1
    35     4    32    1
    36     5    33    1
    37     6    34    1
    38     7    35    1
    39     8    36    1
    40    15    37    1
    41    15    38    1
    42    16    39    1
    43    16    40    1
    44    17    41    1
    45    17    42    1
    46    18    43    1
    47    18    44    1
    48    19    45    1
    49    20    46    1
    50    20    47    1
    51    20    48    1
    52    21    49    1
    53    21    50    1
    54    21    51    1
    55    22    52    1
    56    22    53    1
    57    24    54    1
    58    26    55    1
