@<TRIPOS>MOLECULE
ChEBML139094
 51 54 0 0 0
SMALL
USER_CHARGES

@<TRIPOS>ATOM
      1 C          -3.0808   -0.6964    0.7847 C.3     1  LIG1        0.0053
      2 C          -4.2403   -0.5556   -1.3222 C.3     1  LIG1        0.0053
      3 C          -1.1719   -3.7411   -2.3606 C.ar    1  LIG1       -0.0455
      4 C         -10.5149   -5.1894    0.2666 C.ar    1  LIG1       -0.0207
      5 C          -8.7849   -3.3573    0.8660 C.ar    1  LIG1       -0.0361
      6 C         -12.2347   -3.8464    2.0285 C.ar    1  LIG1       -0.0145
      7 C          -1.9058   -0.9374    0.0869 C.3     1  LIG1        0.1690
      8 C          -3.0360   -0.8001   -1.9666 C.3     1  LIG1        0.1690
      9 C          -0.6256   -4.9892   -2.1578 C.ar    1  LIG1       -0.0242
     10 C           0.8320   -3.1952   -1.3171 C.ar    1  LIG1       -0.0153
     11 C         -10.0533   -4.0262    0.9290 C.ar    1  LIG1       -0.0076
     12 C          -4.2581   -0.5040    0.0684 C.3     1  LIG1       -0.0357
     13 C          -0.3276   -2.7017   -1.8737 C.ar    1  LIG1        0.0239
     14 C         -11.8111   -5.6621    0.4881 C.ar    1  LIG1        0.1054
     15 C         -12.6602   -4.9960    1.3602 C.ar    1  LIG1        0.1059
     16 C         -10.9273   -3.3725    1.8030 C.ar    1  LIG1        0.0224
     17 C          -8.7269   -2.2438    1.6699 C.ar    1  LIG1        0.0559
     18 C          -7.6409   -1.3391    1.8649 C.2     1  LIG1        0.1694
     19 C         -12.0021   -8.0327    0.4878 C.3     1  LIG1        0.0424
     20 C         -14.7366   -4.7175    2.4858 C.3     1  LIG1        0.0424
     21 C          -5.5507   -0.2416    0.7973 C.3     1  LIG1       -0.0201
     22 C          -0.6650   -1.2383   -1.9579 C.3     1  LIG1        0.1739
     23 C          -6.2923   -1.5409    1.1196 C.3     1  LIG1        0.0154
     24 N          -1.9169   -0.9818   -1.2522 N.3     1  LIG1       -0.2007
     25 O          -7.7308   -0.3483    2.6421 O.2     1  LIG1       -0.2935
     26 O         -12.2288   -6.7845   -0.1631 O.3     1  LIG1       -0.3465
     27 O         -13.9256   -5.4568    1.5760 O.3     1  LIG1       -0.3465
     28 S           0.8992   -4.9050   -1.3831 S.2     1  LIG1       -0.1055
     29 S         -10.1873   -1.9846    2.5097 S.2     1  LIG1       -0.0856
     30 H          -3.0720   -0.6622    1.8696 H       1  LIG1        0.0688
     31 H          -5.1467   -0.4086   -1.9009 H       1  LIG1        0.0688
     32 H          -2.1323   -3.5856   -2.8358 H       1  LIG1        0.0634
     33 H          -9.8558   -5.7177   -0.4191 H       1  LIG1        0.0658
     34 H          -7.9565   -3.6897    0.2520 H       1  LIG1        0.0642
     35 H         -12.9016   -3.3274    2.7118 H       1  LIG1        0.0663
     36 H          -0.9536   -1.0962    0.5781 H       1  LIG1        0.1394
     37 H          -2.9473   -0.8535   -3.0447 H       1  LIG1        0.1394
     38 H          -1.0492   -5.9466   -2.4267 H       1  LIG1        0.0700
     39 H           1.6446   -2.6373   -0.8729 H       1  LIG1        0.0706
     40 H         -12.3817   -8.8446   -0.1372 H       1  LIG1        0.0535
     41 H         -12.5086   -8.0368    1.4563 H       1  LIG1        0.0535
     42 H         -10.9282   -8.1643    0.6398 H       1  LIG1        0.0535
     43 H         -15.7183   -5.1906    2.5672 H       1  LIG1        0.0535
     44 H         -14.8438   -3.6904    2.1280 H       1  LIG1        0.0535
     45 H         -14.2554   -4.7112    3.4667 H       1  LIG1        0.0535
     46 H          -6.1854    0.4180    0.1912 H       1  LIG1        0.0320
     47 H          -5.3432    0.3169    1.7194 H       1  LIG1        0.0320
     48 H           0.1326   -0.6270   -1.5198 H       1  LIG1        0.1098
     49 H          -0.7625   -0.9192   -3.0023 H       1  LIG1        0.1098
     50 H          -5.6593   -2.1728    1.7537 H       1  LIG1        0.0354
     51 H          -6.5103   -2.0757    0.1876 H       1  LIG1        0.0354
@<TRIPOS>BOND
     1     1     7    1
     2     1    12    1
     3     2     8    1
     4     2    12    1
     5     3     9   ar
     6     3    13   ar
     7     4    11   ar
     8     4    14   ar
     9     5    11   ar
    10     5    17   ar
    11     6    15   ar
    12     6    16   ar
    13     7    24    1
    14     8    24    1
    15     9    28   ar
    16    10    13   ar
    17    10    28   ar
    18    11    16   ar
    19    12    21    1
    20    13    22    1
    21    14    15   ar
    22    14    26    1
    23    15    27    1
    24    16    29   ar
    25    17    18    1
    26    17    29   ar
    27    18    23    1
    28    18    25    2
    29    19    26    1
    30    20    27    1
    31    21    23    1
    32    22    24    1
    33     1    30    1
    34     2    31    1
    35     3    32    1
    36     4    33    1
    37     5    34    1
    38     6    35    1
    39     7    36    1
    40     8    37    1
    41     9    38    1
    42    10    39    1
    43    19    40    1
    44    19    41    1
    45    19    42    1
    46    20    43    1
    47    20    44    1
    48    20    45    1
    49    21    46    1
    50    21    47    1
    51    22    48    1
    52    22    49    1
    53    23    50    1
    54    23    51    1
