@<TRIPOS>MOLECULE
ChEBML612035
 38 41 0 0 0
SMALL
USER_CHARGES

@<TRIPOS>ATOM
      1 C          -3.3906    0.0045   -2.0925 C.ar    1  LIG1       -0.0622
      2 C          -3.0760   -1.2125   -1.4881 C.ar    1  LIG1       -0.0619
      3 C          -4.2552    0.8959   -1.4572 C.ar    1  LIG1       -0.0619
      4 C         -11.6439   -5.4279    0.7093 C.ar    1  LIG1       -0.0520
      5 C          -3.6261   -1.5383   -0.2484 C.ar    1  LIG1       -0.0574
      6 C          -4.8053    0.5701   -0.2174 C.ar    1  LIG1       -0.0574
      7 C         -10.3163   -4.9933    0.6582 C.ar    1  LIG1       -0.0346
      8 C         -12.2889   -3.4363    1.9326 C.ar    1  LIG1       -0.0380
      9 C         -14.7098   -5.9267    0.4881 C.ar    1  LIG1        0.0542
     10 C         -14.8605   -4.8300    2.3880 C.ar    1  LIG1        0.0206
     11 C         -12.6157   -4.6580    1.3386 C.ar    1  LIG1       -0.0142
     12 C         -13.9749   -5.1225    1.3796 C.ar    1  LIG1        0.0170
     13 C          -4.4907   -0.6470    0.3870 C.ar    1  LIG1       -0.0308
     14 C          -9.9589   -3.7626    1.2504 C.ar    1  LIG1        0.0786
     15 C         -10.9534   -3.0059    1.8774 C.ar    1  LIG1        0.0403
     16 C          -8.7255   -2.0570    1.9112 C.ar    1  LIG1        0.1641
     17 C          -7.5745   -1.2414    2.1046 C.2     1  LIG1        0.2688
     18 C          -5.0835   -0.9972    1.7212 C.3     1  LIG1        0.0367
     19 N         -15.9655   -6.1323    0.8943 N.ar    1  LIG1       -0.1921
     20 N          -8.6884   -3.2059    1.2778 N.ar    1  LIG1       -0.2349
     21 N         -16.0265   -5.4528    2.0523 N.ar    1  LIG1       -0.2452
     22 N          -6.3403   -1.6980    1.5876 N.am    1  LIG1       -0.3054
     23 O          -7.6336   -0.1518    2.7338 O.2     1  LIG1       -0.2694
     24 S         -10.2504   -1.5639    2.5093 S.2     1  LIG1       -0.0624
     25 H          -2.9611    0.2587   -3.0572 H       1  LIG1        0.0622
     26 H          -2.4020   -1.9062   -1.9821 H       1  LIG1        0.0623
     27 H          -4.4995    1.8440   -1.9269 H       1  LIG1        0.0623
     28 H         -11.9004   -6.3790    0.2472 H       1  LIG1        0.0630
     29 H          -3.3756   -2.4890    0.2150 H       1  LIG1        0.0626
     30 H          -5.4781    1.2707    0.2701 H       1  LIG1        0.0626
     31 H          -9.5649   -5.6025    0.1638 H       1  LIG1        0.0646
     32 H         -13.0436   -2.8294    2.4258 H       1  LIG1        0.0642
     33 H         -14.3862   -6.3734   -0.4416 H       1  LIG1        0.0864
     34 H         -14.7739   -4.2488    3.2956 H       1  LIG1        0.0813
     35 H          -4.4002   -1.6359    2.2915 H       1  LIG1        0.0518
     36 H          -5.2636   -0.0978    2.3194 H       1  LIG1        0.0518
     37 H         -16.8993   -5.4561    2.5651 H       1  LIG1        0.1747
     38 H          -6.3156   -2.6092    1.1416 H       1  LIG1        0.1501
@<TRIPOS>BOND
     1     1     2   ar
     2     1     3   ar
     3     2     5   ar
     4     3     6   ar
     5     4     7   ar
     6     4    11   ar
     7     5    13   ar
     8     6    13   ar
     9     7    14   ar
    10     8    11   ar
    11     8    15   ar
    12     9    12   ar
    13     9    19   ar
    14    10    12   ar
    15    10    21   ar
    16    11    12    1
    17    13    18    1
    18    14    15   ar
    19    14    20   ar
    20    15    24   ar
    21    16    17    1
    22    16    20   ar
    23    16    24   ar
    24    17    22   am
    25    17    23    2
    26    18    22    1
    27    19    21   ar
    28     1    25    1
    29     2    26    1
    30     3    27    1
    31     4    28    1
    32     5    29    1
    33     6    30    1
    34     7    31    1
    35     8    32    1
    36     9    33    1
    37    10    34    1
    38    18    35    1
    39    18    36    1
    40    21    37    1
    41    22    38    1
