@<TRIPOS>MOLECULE
ChEBML311659
 50 52 0 0 0
SMALL
USER_CHARGES

@<TRIPOS>ATOM
      1 C          -2.0490    0.0241   -3.3667 C.ar    1  LIG1       -0.0385
      2 C         -12.0119   -3.7747    1.9883 C.ar    1  LIG1       -0.0566
      3 C         -11.4322   -5.6862    0.6291 C.ar    1  LIG1       -0.0566
      4 C         -10.7239   -3.2657    1.8216 C.ar    1  LIG1       -0.0404
      5 C         -10.1443   -5.1772    0.4624 C.ar    1  LIG1       -0.0404
      6 C          -2.9465   -0.6765   -2.5802 C.ar    1  LIG1       -0.0182
      7 C          -2.1559    1.3999   -3.4000 C.ar    1  LIG1        0.0497
      8 C         -12.3659   -4.9850    1.3920 C.ar    1  LIG1       -0.0425
      9 C          -9.7902   -3.9669    1.0588 C.ar    1  LIG1        0.0340
     10 C          -3.8914    0.0453   -1.8788 C.ar    1  LIG1        0.1429
     11 C          -8.2548   -2.0893    0.9723 C.2     1  LIG1        0.3050
     12 C          -5.3175   -0.0107    0.1047 C.3     1  LIG1        0.0289
     13 C          -5.5617   -1.7215   -1.7201 C.3     1  LIG1        0.0289
     14 C          -6.8275   -0.2168    0.1996 C.3     1  LIG1        0.0315
     15 C          -6.3538   -2.4977   -0.6670 C.3     1  LIG1        0.0315
     16 C         -14.8174   -4.5424    1.0167 C.3     1  LIG1       -0.0561
     17 C         -14.0634   -5.7760    3.0773 C.3     1  LIG1       -0.0561
     18 C         -14.0237   -6.8932    0.8565 C.3     1  LIG1       -0.0561
     19 C         -13.7430   -5.5292    1.5703 C.3     1  LIG1       -0.0132
     20 N          -3.0907    2.0802   -2.7031 N.ar    1  LIG1       -0.1572
     21 N          -3.9726    1.3917   -1.9300 N.ar    1  LIG1       -0.1353
     22 N          -4.7808   -0.6492   -1.1002 N.pl3   1  LIG1       -0.3112
     23 N          -7.1800   -1.6351    0.1850 N.am    1  LIG1       -0.2824
     24 N          -8.4979   -3.4562    0.8911 N.am    1  LIG1       -0.2691
     25 O          -8.9250   -1.3360    1.6860 O.2     1  LIG1       -0.2537
     26 H          -1.2853   -0.4912   -3.9377 H       1  LIG1        0.0641
     27 H         -12.7323   -3.2228    2.5862 H       1  LIG1        0.0626
     28 H         -11.6994   -6.6303    0.1617 H       1  LIG1        0.0626
     29 H         -10.4590   -2.3213    2.2905 H       1  LIG1        0.0642
     30 H          -9.4241   -5.7324   -0.1333 H       1  LIG1        0.0642
     31 H          -2.8971   -1.7589   -2.5262 H       1  LIG1        0.0660
     32 H          -1.4833    2.0055   -3.9963 H       1  LIG1        0.0859
     33 H          -5.1030    1.0652    0.1094 H       1  LIG1        0.0485
     34 H          -4.8220   -0.4477    0.9801 H       1  LIG1        0.0485
     35 H          -4.8986   -2.4131   -2.2535 H       1  LIG1        0.0485
     36 H          -6.2519   -1.2886   -2.4558 H       1  LIG1        0.0485
     37 H          -7.2117    0.2585    1.1082 H       1  LIG1        0.0486
     38 H          -7.3357    0.2483   -0.6539 H       1  LIG1        0.0486
     39 H          -6.9909   -3.2342   -1.1675 H       1  LIG1        0.0486
     40 H          -5.6705   -3.0387   -0.0013 H       1  LIG1        0.0486
     41 H         -15.8399   -4.9191    1.1357 H       1  LIG1        0.0239
     42 H         -14.7722   -3.5733    1.5256 H       1  LIG1        0.0239
     43 H         -14.6507   -4.3610   -0.0517 H       1  LIG1        0.0239
     44 H         -15.0743   -6.1759    3.2124 H       1  LIG1        0.0239
     45 H         -13.3727   -6.4866    3.5464 H       1  LIG1        0.0239
     46 H         -14.0044   -4.8348    3.6366 H       1  LIG1        0.0239
     47 H         -15.0477   -7.2513    1.0170 H       1  LIG1        0.0239
     48 H         -13.8804   -6.8032   -0.2266 H       1  LIG1        0.0239
     49 H         -13.3483   -7.6733    1.2269 H       1  LIG1        0.0239
     50 H          -7.7513   -4.1300    0.7657 H       1  LIG1        0.1573
@<TRIPOS>BOND
     1     1     6   ar
     2     1     7   ar
     3     2     4   ar
     4     2     8   ar
     5     3     5   ar
     6     3     8   ar
     7     4     9   ar
     8     5     9   ar
     9     6    10   ar
    10     7    20   ar
    11     8    19    1
    12     9    24    1
    13    10    21   ar
    14    10    22    1
    15    11    23   am
    16    11    24   am
    17    11    25    2
    18    12    14    1
    19    12    22    1
    20    13    15    1
    21    13    22    1
    22    14    23    1
    23    15    23    1
    24    16    19    1
    25    17    19    1
    26    18    19    1
    27    20    21   ar
    28     1    26    1
    29     2    27    1
    30     3    28    1
    31     4    29    1
    32     5    30    1
    33     6    31    1
    34     7    32    1
    35    12    33    1
    36    12    34    1
    37    13    35    1
    38    13    36    1
    39    14    37    1
    40    14    38    1
    41    15    39    1
    42    15    40    1
    43    16    41    1
    44    16    42    1
    45    16    43    1
    46    17    44    1
    47    17    45    1
    48    17    46    1
    49    18    47    1
    50    18    48    1
    51    18    49    1
    52    24    50    1
