@<TRIPOS>MOLECULE
ChEBML233203
 35 37 0 0 0
SMALL
USER_CHARGES

@<TRIPOS>ATOM
      1 C          -4.0333   -2.6018    1.6536 C.ar    1  LIG1       -0.0609
      2 C          -5.3084   -2.3593    2.1644 C.ar    1  LIG1       -0.0510
      3 C          -3.6747   -2.0960    0.4041 C.ar    1  LIG1       -0.0500
      4 C         -10.2779   -5.1571    0.3292 C.ar    1  LIG1       -0.0376
      5 C         -11.6149   -5.5423    0.4626 C.ar    1  LIG1       -0.0299
      6 C         -12.1006   -3.5937    1.8277 C.ar    1  LIG1       -0.0226
      7 C         -10.0108   -2.0766    2.1961 C.ar    1  LIG1       -0.0275
      8 C          -5.8665   -1.1052    0.1762 C.ar    1  LIG1       -0.0388
      9 C         -10.7575   -3.1851    1.7074 C.ar    1  LIG1        0.0003
     10 C          -6.2250   -1.6110    1.4257 C.ar    1  LIG1        0.0244
     11 C          -4.5912   -1.3477   -0.3346 C.ar    1  LIG1        0.0562
     12 C          -9.8789   -3.9746    0.9624 C.ar    1  LIG1        0.0379
     13 C         -12.5139   -4.7743    1.1998 C.ar    1  LIG1        0.0753
     14 C          -8.7173   -2.2124    1.7470 C.ar    1  LIG1        0.0797
     15 C          -7.6032   -1.3485    1.9785 C.2     1  LIG1        0.2066
     16 C         -14.1734   -6.3867    0.6505 C.3     1  LIG1        0.0422
     17 C          -4.2079   -0.8069   -1.6708 C.3     1  LIG1        0.4160
     18 N          -8.6476   -3.3600    1.0036 N.ar    1  LIG1       -0.3112
     19 O          -7.7188   -0.3081    2.6675 O.2     1  LIG1       -0.2871
     20 O         -13.8115   -5.1763    1.3115 O.3     1  LIG1       -0.3493
     21 F          -2.9320   -1.1216   -2.0432 F       1  LIG1       -0.1661
     22 F          -4.9977   -1.2576   -2.6899 F       1  LIG1       -0.1661
     23 F          -4.2801    0.5550   -1.7263 F       1  LIG1       -0.1661
     24 H          -3.3201   -3.1854    2.2283 H       1  LIG1        0.0623
     25 H          -5.5772   -2.7579    3.1394 H       1  LIG1        0.0630
     26 H          -2.6788   -2.2894    0.0142 H       1  LIG1        0.0629
     27 H          -9.5787   -5.7555   -0.2453 H       1  LIG1        0.0643
     28 H         -11.9509   -6.4574   -0.0198 H       1  LIG1        0.0651
     29 H         -12.8080   -2.9998    2.4002 H       1  LIG1        0.0657
     30 H         -10.3841   -1.2682    2.8107 H       1  LIG1        0.0651
     31 H          -6.5802   -0.5224   -0.4017 H       1  LIG1        0.0636
     32 H         -15.2333   -6.5921    0.8193 H       1  LIG1        0.0535
     33 H         -13.5660   -7.2093    1.0362 H       1  LIG1        0.0535
     34 H         -13.9927   -6.2742   -0.4212 H       1  LIG1        0.0535
     35 H          -7.8148   -3.7085    0.5491 H       1  LIG1        0.1529
@<TRIPOS>BOND
     1     1     2   ar
     2     1     3   ar
     3     2    10   ar
     4     3    11   ar
     5     4     5   ar
     6     4    12   ar
     7     5    13   ar
     8     6     9   ar
     9     6    13   ar
    10     7     9   ar
    11     7    14   ar
    12     8    10   ar
    13     8    11   ar
    14     9    12   ar
    15    10    15    1
    16    11    17    1
    17    12    18   ar
    18    13    20    1
    19    14    15    1
    20    14    18   ar
    21    15    19    2
    22    16    20    1
    23    17    21    1
    24    17    22    1
    25    17    23    1
    26     1    24    1
    27     2    25    1
    28     3    26    1
    29     4    27    1
    30     5    28    1
    31     6    29    1
    32     7    30    1
    33     8    31    1
    34    16    32    1
    35    16    33    1
    36    16    34    1
    37    18    35    1
