@<TRIPOS>MOLECULE
ChEBML162498
 46 48 0 0 0
SMALL
USER_CHARGES

@<TRIPOS>ATOM
      1 C          -1.7210    1.1126   -2.9138 C.ar    1  LIG1       -0.0622
      2 C          -2.9831    1.7047   -2.9606 C.ar    1  LIG1       -0.0620
      3 C          -1.5866   -0.2106   -2.4932 C.ar    1  LIG1       -0.0620
      4 C          -4.1108    0.9737   -2.5868 C.ar    1  LIG1       -0.0589
      5 C          -2.7142   -0.9416   -2.1194 C.ar    1  LIG1       -0.0589
      6 C         -10.4685   -5.4124    1.2832 C.ar    1  LIG1       -0.0387
      7 C         -11.7784   -5.6583    1.7046 C.ar    1  LIG1       -0.0416
      8 C         -12.0734   -3.3321    2.3362 C.ar    1  LIG1       -0.0343
      9 C          -9.9468   -1.8899    1.8873 C.ar    1  LIG1       -0.0262
     10 C         -10.7557   -3.0602    1.9179 C.ar    1  LIG1       -0.0007
     11 C          -3.9762   -0.3495   -2.1662 C.ar    1  LIG1       -0.0456
     12 C          -9.9851   -4.1045    1.4021 C.ar    1  LIG1        0.0379
     13 C         -12.5703   -4.6358    2.2233 C.ar    1  LIG1        0.0413
     14 C          -8.7236   -2.2398    1.3636 C.ar    1  LIG1        0.0945
     15 C          -7.5393   -1.3740    1.1292 C.2     1  LIG1        0.2578
     16 C          -4.3894   -1.6070    0.5740 C.2     1  LIG1        0.2346
     17 C          -2.2317   -1.1822    1.7752 C.3     1  LIG1        0.0024
     18 C          -3.4184    0.7004    0.7244 C.3     1  LIG1        0.0024
     19 C          -5.1962   -1.1411   -1.7613 C.3     1  LIG1       -0.0005
     20 C          -5.5208   -1.0135   -0.2678 C.3     1  LIG1        0.1038
     21 N          -8.7565   -3.5775    1.0738 N.ar    1  LIG1       -0.3101
     22 N          -6.7232   -1.7409    0.0712 N.am    1  LIG1       -0.2982
     23 N          -3.3869   -0.7324    1.0072 N.am    1  LIG1       -0.3064
     24 O          -7.3378   -0.4185    1.8740 O.2     1  LIG1       -0.2704
     25 O          -4.3686   -2.8201    0.8099 O.2     1  LIG1       -0.2753
     26 CL        -14.1809   -4.9778    2.7307 Cl      1  LIG1       -0.0843
     27 H          -0.8432    1.6815   -3.2061 H       1  LIG1        0.0622
     28 H          -3.0881    2.7346   -3.2892 H       1  LIG1        0.0623
     29 H          -0.6043   -0.6722   -2.4576 H       1  LIG1        0.0623
     30 H          -5.0901    1.4433   -2.6264 H       1  LIG1        0.0625
     31 H          -2.5999   -1.9719   -1.7929 H       1  LIG1        0.0625
     32 H          -9.8528   -6.2095    0.8801 H       1  LIG1        0.0643
     33 H         -12.1707   -6.6695    1.6200 H       1  LIG1        0.0639
     34 H         -12.6897   -2.5337    2.7411 H       1  LIG1        0.0645
     35 H         -10.2333   -0.8992    2.2145 H       1  LIG1        0.0651
     36 H          -1.4169   -1.4589    1.1010 H       1  LIG1        0.0433
     37 H          -2.4968   -2.0521    2.3823 H       1  LIG1        0.0433
     38 H          -1.8847   -0.3849    2.4379 H       1  LIG1        0.0433
     39 H          -3.9436    1.2297    1.5237 H       1  LIG1        0.0433
     40 H          -3.9354    0.8879   -0.2206 H       1  LIG1        0.0433
     41 H          -2.4009    1.0937    0.6513 H       1  LIG1        0.0433
     42 H          -6.0573   -0.8204   -2.3636 H       1  LIG1        0.0340
     43 H          -5.0339   -2.1912   -2.0359 H       1  LIG1        0.0340
     44 H          -5.7180    0.0193    0.0329 H       1  LIG1        0.0608
     45 H          -7.9912   -4.1052    0.6765 H       1  LIG1        0.1529
     46 H          -6.9197   -2.5812   -0.4623 H       1  LIG1        0.1506
@<TRIPOS>BOND
     1     1     2   ar
     2     1     3   ar
     3     2     4   ar
     4     3     5   ar
     5     4    11   ar
     6     5    11   ar
     7     6     7   ar
     8     6    12   ar
     9     7    13   ar
    10     8    10   ar
    11     8    13   ar
    12     9    10   ar
    13     9    14   ar
    14    10    12   ar
    15    11    19    1
    16    12    21   ar
    17    13    26    1
    18    14    15    1
    19    14    21   ar
    20    15    22   am
    21    15    24    2
    22    16    20    1
    23    16    23   am
    24    16    25    2
    25    17    23    1
    26    18    23    1
    27    19    20    1
    28    20    22    1
    29     1    27    1
    30     2    28    1
    31     3    29    1
    32     4    30    1
    33     5    31    1
    34     6    32    1
    35     7    33    1
    36     8    34    1
    37     9    35    1
    38    17    36    1
    39    17    37    1
    40    17    38    1
    41    18    39    1
    42    18    40    1
    43    18    41    1
    44    19    42    1
    45    19    43    1
    46    20    44    1
    47    21    45    1
    48    22    46    1
