@<TRIPOS>MOLECULE
ChEBML311404
 50 52 0 0 0
SMALL
USER_CHARGES

@<TRIPOS>ATOM
      1 C         -12.3616   -3.6969    1.8387 C.ar    1  LIG1       -0.0566
      2 C         -11.6479   -5.7757    0.8356 C.ar    1  LIG1       -0.0566
      3 C         -11.0634   -3.1986    1.7295 C.ar    1  LIG1       -0.0404
      4 C         -10.3497   -5.2773    0.7263 C.ar    1  LIG1       -0.0404
      5 C          -2.8812   -1.1580   -2.2020 C.ar    1  LIG1       -0.0167
      6 C          -1.9084   -0.5650   -2.9873 C.ar    1  LIG1       -0.0193
      7 C         -12.6538   -4.9856    1.3917 C.ar    1  LIG1       -0.0425
      8 C         -10.0574   -3.9887    1.1734 C.ar    1  LIG1        0.0340
      9 C          -3.8920   -0.3565   -1.7105 C.ar    1  LIG1        0.1430
     10 C          -2.0108    0.7901   -3.2295 C.ar    1  LIG1        0.1514
     11 C          -8.5211   -2.1211    0.9697 C.2     1  LIG1        0.3050
     12 C          -5.5110   -0.1468    0.1078 C.3     1  LIG1        0.0289
     13 C          -5.5700   -2.1060   -1.4652 C.3     1  LIG1        0.0289
     14 C          -7.0229   -0.3590    0.0803 C.3     1  LIG1        0.0315
     15 C          -6.4644   -2.7338   -0.3951 C.3     1  LIG1        0.0315
     16 C         -15.0548   -4.6373    0.7134 C.3     1  LIG1       -0.0561
     17 C         -14.5127   -5.5500    2.9958 C.3     1  LIG1       -0.0561
     18 C         -14.2492   -6.9749    0.9754 C.3     1  LIG1       -0.0561
     19 C         -14.0419   -5.5183    1.5086 C.3     1  LIG1       -0.0132
     20 N          -3.9672    0.9673   -1.9634 N.ar    1  LIG1       -0.1337
     21 N          -3.0113    1.5500   -2.7356 N.ar    1  LIG1       -0.1367
     22 N          -4.8555   -0.9444   -0.9322 N.pl3   1  LIG1       -0.3112
     23 N          -7.3722   -1.7695    0.2361 N.am    1  LIG1       -0.2824
     24 N          -8.7548   -3.4888    1.0634 N.am    1  LIG1       -0.2691
     25 O          -9.2598   -1.2826    1.4961 O.2     1  LIG1       -0.2537
     26 CL         -0.8625    1.6244   -4.1875 Cl      1  LIG1       -0.0602
     27 H         -13.1386   -3.0751    2.2754 H       1  LIG1        0.0626
     28 H         -11.8667   -6.7811    0.4854 H       1  LIG1        0.0626
     29 H         -10.8470   -2.1927    2.0808 H       1  LIG1        0.0642
     30 H          -9.5731   -5.9021    0.2922 H       1  LIG1        0.0642
     31 H          -2.8381   -2.2208   -1.9874 H       1  LIG1        0.0661
     32 H          -1.0960   -1.1579   -3.3939 H       1  LIG1        0.0657
     33 H          -5.2980    0.9215   -0.0220 H       1  LIG1        0.0485
     34 H          -5.1064   -0.4458    1.0823 H       1  LIG1        0.0485
     35 H          -4.8565   -2.8576   -1.8238 H       1  LIG1        0.0485
     36 H          -6.1824   -1.7938   -2.3209 H       1  LIG1        0.0485
     37 H          -7.4968    0.2367    0.8674 H       1  LIG1        0.0486
     38 H          -7.4424   -0.0291   -0.8780 H       1  LIG1        0.0486
     39 H          -7.0478   -3.5439   -0.8447 H       1  LIG1        0.0486
     40 H          -5.8518   -3.1633    0.4068 H       1  LIG1        0.0486
     41 H         -16.0842   -5.0077    0.7829 H       1  LIG1        0.0239
     42 H         -15.0611   -3.6044    1.0785 H       1  LIG1        0.0239
     43 H         -14.7811   -4.6093   -0.3480 H       1  LIG1        0.0239
     44 H         -15.5321   -5.9408    3.0857 H       1  LIG1        0.0239
     45 H         -13.8730   -6.1754    3.6295 H       1  LIG1        0.0239
     46 H         -14.5103   -4.5372    3.4159 H       1  LIG1        0.0239
     47 H         -15.2842   -7.3210    1.0830 H       1  LIG1        0.0239
     48 H         -13.9973   -7.0399   -0.0895 H       1  LIG1        0.0239
     49 H         -13.6147   -7.6835    1.5205 H       1  LIG1        0.0239
     50 H          -7.9994   -4.1628    1.1121 H       1  LIG1        0.1573
@<TRIPOS>BOND
     1     1     3   ar
     2     1     7   ar
     3     2     4   ar
     4     2     7   ar
     5     3     8   ar
     6     4     8   ar
     7     5     6   ar
     8     5     9   ar
     9     6    10   ar
    10     7    19    1
    11     8    24    1
    12     9    20   ar
    13     9    22    1
    14    10    21   ar
    15    10    26    1
    16    11    23   am
    17    11    24   am
    18    11    25    2
    19    12    14    1
    20    12    22    1
    21    13    15    1
    22    13    22    1
    23    14    23    1
    24    15    23    1
    25    16    19    1
    26    17    19    1
    27    18    19    1
    28    20    21   ar
    29     1    27    1
    30     2    28    1
    31     3    29    1
    32     4    30    1
    33     5    31    1
    34     6    32    1
    35    12    33    1
    36    12    34    1
    37    13    35    1
    38    13    36    1
    39    14    37    1
    40    14    38    1
    41    15    39    1
    42    15    40    1
    43    16    41    1
    44    16    42    1
    45    16    43    1
    46    17    44    1
    47    17    45    1
    48    17    46    1
    49    18    47    1
    50    18    48    1
    51    18    49    1
    52    24    50    1
