@<TRIPOS>MOLECULE
ChEBML343686
 46 48 0 0 0
SMALL
USER_CHARGES

@<TRIPOS>ATOM
      1 C          -1.4064    1.2459   -2.5548 C.ar    1  LIG1        0.0000
      2 C          -2.6128    1.5865   -1.9431 C.ar    1  LIG1        0.0000
      3 C          -1.0893   -0.0948   -2.7736 C.ar    1  LIG1        0.0000
      4 C          -4.4147   -1.2020    2.2236 C.ar    1  LIG1        0.0000
      5 C          -5.7808   -1.4293    2.3898 C.ar    1  LIG1        0.0000
      6 C         -11.3675   -5.5429    0.7178 C.ar    1  LIG1        0.0000
      7 C         -12.0866   -3.4004    1.5720 C.ar    1  LIG1        0.0000
      8 C         -10.0496   -5.0872    0.6843 C.ar    1  LIG1        0.0000
      9 C         -10.7687   -2.9447    1.5386 C.ar    1  LIG1        0.0000
     10 C          -3.5022    0.5863   -1.5502 C.ar    1  LIG1        0.0000
     11 C          -1.9787   -1.0948   -2.3806 C.ar    1  LIG1        0.0000
     12 C          -3.8388   -1.3092    0.9577 C.ar    1  LIG1        0.0000
     13 C          -5.9951   -1.8710    0.0242 C.ar    1  LIG1        0.0000
     14 C         -12.3860   -4.6994    1.1615 C.ar    1  LIG1        0.0000
     15 C          -6.5711   -1.7638    1.2901 C.ar    1  LIG1        0.0000
     16 C          -9.7502   -3.7882    1.0949 C.ar    1  LIG1        0.0000
     17 C          -3.1852   -0.7544   -1.7689 C.ar    1  LIG1        0.0000
     18 C          -4.6289   -1.6437   -0.1420 C.ar    1  LIG1        0.0000
     19 C         -16.0134   -5.3558   -0.1334 C.2     1  LIG1        0.0000
     20 C         -13.7955   -5.1855    1.1972 C.3     1  LIG1        0.0000
     21 C          -8.0414   -2.0090    1.4693 C.3     1  LIG1        0.0000
     22 C         -14.5458   -4.9161   -0.1096 C.3     1  LIG1        0.0000
     23 N          -8.4176   -3.3277    1.0630 N.pl3   1  LIG1        0.0000
     24 O         -16.6187   -5.0717   -1.2074 O.co2   1  LIG1       -0.5000
     25 O         -16.4464   -5.9406    0.8969 O.co2   1  LIG1       -0.5000
     26 O          -4.0670   -1.7477   -1.3774 O.3     1  LIG1        0.0000
     27 H          -0.7139    2.0244   -2.8616 H       1  LIG1        0.0000
     28 H          -2.8598    2.6303   -1.7725 H       1  LIG1        0.0000
     29 H          -0.1497   -0.3592   -3.2502 H       1  LIG1        0.0000
     30 H          -3.7998   -0.9411    3.0797 H       1  LIG1        0.0000
     31 H          -6.2206   -1.3438    3.3800 H       1  LIG1        0.0000
     32 H         -11.5919   -6.5560    0.3952 H       1  LIG1        0.0000
     33 H         -12.8737   -2.7357    1.9176 H       1  LIG1        0.0000
     34 H          -9.2637   -5.7521    0.3355 H       1  LIG1        0.0000
     35 H         -10.5469   -1.9304    1.8601 H       1  LIG1        0.0000
     36 H          -4.4396    0.8582   -1.0728 H       1  LIG1        0.0000
     37 H          -1.7256   -2.1376   -2.5519 H       1  LIG1        0.0000
     38 H          -2.7741   -1.1308    0.8349 H       1  LIG1        0.0000
     39 H          -6.6087   -2.1320   -0.8350 H       1  LIG1        0.0000
     40 H         -13.8167   -6.2651    1.4132 H       1  LIG1        0.0000
     41 H         -14.3365   -4.7132    2.0317 H       1  LIG1        0.0000
     42 H          -8.3285   -1.8847    2.5191 H       1  LIG1        0.0000
     43 H          -8.6327   -1.2970    0.8839 H       1  LIG1        0.0000
     44 H         -14.0352   -5.4257   -0.9371 H       1  LIG1        0.0000
     45 H         -14.5187   -3.8418   -0.3336 H       1  LIG1        0.0000
     46 H          -7.7219   -3.9716    0.7362 H       1  LIG1        0.0000
@<TRIPOS>BOND
     1     1     2   ar
     2     1     3   ar
     3     2    10   ar
     4     3    11   ar
     5     4     5   ar
     6     4    12   ar
     7     5    15   ar
     8     6     8   ar
     9     6    14   ar
    10     7     9   ar
    11     7    14   ar
    12     8    16   ar
    13     9    16   ar
    14    10    17   ar
    15    11    17   ar
    16    12    18   ar
    17    13    15   ar
    18    13    18   ar
    19    14    20    1
    20    15    21    1
    21    16    23    1
    22    17    26    1
    23    18    26    1
    24    19    22    1
    25    19    24   ar
    26    19    25   ar
    27    20    22    1
    28    21    23    1
    29     1    27    1
    30     2    28    1
    31     3    29    1
    32     4    30    1
    33     5    31    1
    34     6    32    1
    35     7    33    1
    36     8    34    1
    37     9    35    1
    38    10    36    1
    39    11    37    1
    40    12    38    1
    41    13    39    1
    42    20    40    1
    43    20    41    1
    44    21    42    1
    45    21    43    1
    46    22    44    1
    47    22    45    1
    48    23    46    1
