@<TRIPOS>MOLECULE
ChEBML232898
 32 34 0 0 0
SMALL
USER_CHARGES

@<TRIPOS>ATOM
      1 C          -5.5500   -2.6032    1.3833 C.ar    1  LIG1       -0.0494
      2 C         -10.3305   -5.0590    0.2830 C.ar    1  LIG1       -0.0376
      3 C         -11.6329   -5.5034    0.5281 C.ar    1  LIG1       -0.0299
      4 C          -4.3301   -2.7630    0.7263 C.ar    1  LIG1       -0.0413
      5 C         -12.0306   -3.6694    2.0693 C.ar    1  LIG1       -0.0226
      6 C          -9.9618   -2.1008    2.3223 C.ar    1  LIG1       -0.0275
      7 C          -5.8229   -0.4365    0.3498 C.ar    1  LIG1       -0.0308
      8 C         -10.7215   -3.2024    1.8381 C.ar    1  LIG1        0.0003
      9 C          -6.2964   -1.4399    1.1951 C.ar    1  LIG1        0.0254
     10 C          -9.9032   -3.9065    0.9521 C.ar    1  LIG1        0.0379
     11 C         -12.4716   -4.8209    1.4070 C.ar    1  LIG1        0.0753
     12 C          -3.8564   -1.7596   -0.1190 C.ar    1  LIG1        0.0592
     13 C          -4.6028   -0.5964   -0.3073 C.ar    1  LIG1        0.0599
     14 C          -8.7202   -2.1567    1.7321 C.ar    1  LIG1        0.0797
     15 C          -7.6153   -1.2678    1.9058 C.2     1  LIG1        0.2066
     16 C         -14.1290   -6.4562    0.9228 C.3     1  LIG1        0.0422
     17 N          -8.6945   -3.2491    0.9072 N.ar    1  LIG1       -0.3112
     18 O          -7.6890   -0.2805    2.6741 O.2     1  LIG1       -0.2871
     19 O         -13.7365   -5.2791    1.6253 O.3     1  LIG1       -0.3493
     20 CL         -2.3384   -2.0186   -0.9048 Cl      1  LIG1       -0.0827
     21 CL         -4.0687    0.6813   -1.3422 Cl      1  LIG1       -0.0827
     22 H          -5.9102   -3.3912    2.0399 H       1  LIG1        0.0631
     23 H          -9.6784   -5.5908   -0.4018 H       1  LIG1        0.0643
     24 H         -11.9897   -6.3968    0.0207 H       1  LIG1        0.0651
     25 H          -3.7617   -3.6763    0.8844 H       1  LIG1        0.0639
     26 H         -12.6910   -3.1424    2.7526 H       1  LIG1        0.0657
     27 H         -10.2925   -1.3498    3.0276 H       1  LIG1        0.0651
     28 H          -6.4099    0.4682    0.2070 H       1  LIG1        0.0646
     29 H         -15.1579   -6.7129    1.1867 H       1  LIG1        0.0535
     30 H         -13.4585   -7.2785    1.1846 H       1  LIG1        0.0535
     31 H         -14.0674   -6.2662   -0.1514 H       1  LIG1        0.0535
     32 H          -7.9045   -3.5345    0.3450 H       1  LIG1        0.1529
@<TRIPOS>BOND
     1     1     4   ar
     2     1     9   ar
     3     2     3   ar
     4     2    10   ar
     5     3    11   ar
     6     4    12   ar
     7     5     8   ar
     8     5    11   ar
     9     6     8   ar
    10     6    14   ar
    11     7     9   ar
    12     7    13   ar
    13     8    10   ar
    14     9    15    1
    15    10    17   ar
    16    11    19    1
    17    12    13   ar
    18    12    20    1
    19    13    21    1
    20    14    15    1
    21    14    17   ar
    22    15    18    2
    23    16    19    1
    24     1    22    1
    25     2    23    1
    26     3    24    1
    27     4    25    1
    28     5    26    1
    29     6    27    1
    30     7    28    1
    31    16    29    1
    32    16    30    1
    33    16    31    1
    34    17    32    1
