@<TRIPOS>MOLECULE
ChEBML368829
 60 65 0 0 0
SMALL
USER_CHARGES

@<TRIPOS>ATOM
      1 C          -6.6434   -1.7402   -0.6161 C.ar    1  LIG1       -0.0501
      2 C          -5.6006   -1.3534   -1.4028 C.ar    1  LIG1       -0.0521
      3 C         -11.8411   -5.8188    1.3693 C.ar    1  LIG1       -0.0519
      4 C         -10.5507   -5.4498    1.0573 C.ar    1  LIG1       -0.0397
      5 C         -12.2900   -3.6585    2.2924 C.ar    1  LIG1       -0.0446
      6 C         -10.2343   -2.0215    2.1687 C.ar    1  LIG1       -0.0293
      7 C          -4.9985    0.3698    0.1870 C.ar    1  LIG1       -0.0293
      8 C          -6.8910   -1.0796    0.5910 C.ar    1  LIG1        0.0265
      9 C         -10.9851   -3.2622    1.9846 C.ar    1  LIG1       -0.0018
     10 C          -4.7704   -0.2942   -1.0115 C.ar    1  LIG1        0.0014
     11 C         -12.7051   -4.9231    1.9849 C.ar    1  LIG1       -0.0035
     12 C         -10.1058   -4.1671    1.3599 C.ar    1  LIG1        0.0377
     13 C          -6.0636   -0.0150    0.9943 C.ar    1  LIG1        0.0576
     14 C          -7.9003   -1.2378    1.6447 C.ar    1  LIG1        0.1116
     15 C          -8.9915   -2.2330    1.6661 C.ar    1  LIG1        0.0593
     16 C          -3.6415    0.1146   -1.8764 C.ar    1  LIG1        0.0853
     17 C          -2.7144   -0.7006   -2.4634 C.ar    1  LIG1        0.1313
     18 C         -15.4643   -5.4848   -1.1813 C.3     1  LIG1        0.0180
     19 C         -17.3176   -4.9610    0.4047 C.3     1  LIG1        0.0180
     20 C         -14.5990   -5.8555    0.0252 C.3     1  LIG1       -0.0312
     21 C         -16.3835   -5.3509    1.5523 C.3     1  LIG1       -0.0312
     22 C         -16.9351   -5.7527   -0.8491 C.3     1  LIG1        0.1100
     23 C         -14.1118   -5.3495    2.3169 C.3     1  LIG1       -0.0083
     24 C          -2.6372   -2.2020   -2.3594 C.3     1  LIG1        0.0097
     25 N          -7.6569   -0.3333    2.5648 N.ar    1  LIG1       -0.1816
     26 N          -1.8941    0.0969   -3.1519 N.ar    1  LIG1       -0.1314
     27 N          -2.2689    1.3181   -3.0080 N.ar    1  LIG1       -0.0781
     28 N          -8.9060   -3.5154    1.1740 N.ar    1  LIG1       -0.3126
     29 N          -6.5436    0.4302    2.2006 N.ar    1  LIG1       -0.2372
     30 N          -3.3082    1.3858   -2.2518 N.ar    1  LIG1       -0.2172
     31 N         -14.9958   -5.0462    1.1836 N.4     1  LIG1        0.2494
     32 N          -1.9079   -2.5714   -1.1389 N.4     1  LIG1        0.2354
     33 F         -17.7380   -5.3481   -1.9210 F       1  LIG1       -0.2469
     34 H          -7.2789   -2.5570   -0.9251 H       1  LIG1        0.0631
     35 H          -5.4125   -1.8661   -2.3345 H       1  LIG1        0.0630
     36 H         -12.1839   -6.8152    1.1328 H       1  LIG1        0.0628
     37 H          -9.8868   -6.1543    0.5785 H       1  LIG1        0.0643
     38 H         -12.9674   -2.9674    2.7719 H       1  LIG1        0.0635
     39 H         -10.5990   -1.1104    2.6193 H       1  LIG1        0.0650
     40 H          -4.3547    1.1830    0.4883 H       1  LIG1        0.0650
     41 H         -15.3305   -4.4285   -1.4144 H       1  LIG1        0.0350
     42 H         -15.1694   -6.0880   -2.0399 H       1  LIG1        0.0350
     43 H         -17.2221   -3.8938    0.2044 H       1  LIG1        0.0350
     44 H         -18.3472   -5.1896    0.6797 H       1  LIG1        0.0350
     45 H         -13.5512   -5.6661   -0.2080 H       1  LIG1        0.0816
     46 H         -14.7335   -6.9119    0.2573 H       1  LIG1        0.0816
     47 H         -16.4800   -6.4182    1.7519 H       1  LIG1        0.0816
     48 H         -16.6532   -4.7892    2.4465 H       1  LIG1        0.0816
     49 H         -17.0793   -6.8175   -0.6659 H       1  LIG1        0.0665
     50 H         -14.1294   -6.4213    2.5147 H       1  LIG1        0.0869
     51 H         -14.4557   -4.8114    3.2003 H       1  LIG1        0.0869
     52 H          -2.1148   -2.6001   -3.2293 H       1  LIG1        0.0885
     53 H          -3.6448   -2.6157   -2.3200 H       1  LIG1        0.0885
     54 H          -8.1190   -3.9028    0.7602 H       1  LIG1        0.1528
     55 H          -6.1696    1.1600    2.7188 H       1  LIG1        0.1755
     56 H          -3.7750    2.1967   -1.9958 H       1  LIG1        0.1774
     57 H         -14.9180   -4.0676    0.9503 H       1  LIG1        0.2007
     58 H          -0.9519   -2.2567   -1.2101 H       1  LIG1        0.1967
     59 H          -2.3464   -2.1372   -0.3406 H       1  LIG1        0.1967
     60 H          -1.9245   -3.5741   -1.0278 H       1  LIG1        0.1967
@<TRIPOS>BOND
     1     1     2   ar
     2     1     8   ar
     3     2    10   ar
     4     3     4   ar
     5     3    11   ar
     6     4    12   ar
     7     5     9   ar
     8     5    11   ar
     9     6     9   ar
    10     6    15   ar
    11     7    10   ar
    12     7    13   ar
    13     8    13   ar
    14     8    14   ar
    15     9    12   ar
    16    10    16    1
    17    11    23    1
    18    12    28   ar
    19    13    29   ar
    20    14    15    1
    21    14    25   ar
    22    15    28   ar
    23    16    17   ar
    24    16    30   ar
    25    17    24    1
    26    17    26   ar
    27    18    20    1
    28    18    22    1
    29    19    21    1
    30    19    22    1
    31    20    31    1
    32    21    31    1
    33    22    33    1
    34    23    31    1
    35    24    32    1
    36    25    29   ar
    37    26    27   ar
    38    27    30   ar
    39     1    34    1
    40     2    35    1
    41     3    36    1
    42     4    37    1
    43     5    38    1
    44     6    39    1
    45     7    40    1
    46    18    41    1
    47    18    42    1
    48    19    43    1
    49    19    44    1
    50    20    45    1
    51    20    46    1
    52    21    47    1
    53    21    48    1
    54    22    49    1
    55    23    50    1
    56    23    51    1
    57    24    52    1
    58    24    53    1
    59    28    54    1
    60    29    55    1
    61    30    56    1
    62    31    57    1
    63    32    58    1
    64    32    59    1
    65    32    60    1
