@<TRIPOS>MOLECULE
ChEBML347784
 37 40 0 0 0
SMALL
USER_CHARGES

@<TRIPOS>ATOM
      1 C          -2.3998   -2.4419   -1.3275 C.ar    1  LIG1       -0.0589
      2 C          -3.2551   -3.0394   -0.3945 C.ar    1  LIG1       -0.0528
      3 C         -10.4693   -5.0469    0.2723 C.ar    1  LIG1       -0.0376
      4 C          -2.6652   -1.1675   -1.8247 C.ar    1  LIG1       -0.0298
      5 C         -11.7625   -5.4659    0.5977 C.ar    1  LIG1       -0.0302
      6 C         -12.0105   -3.6528    2.1941 C.ar    1  LIG1       -0.0229
      7 C          -5.4512   -2.6248    0.9509 C.ar    1  LIG1       -0.0275
      8 C          -9.8919   -2.1372    2.3328 C.ar    1  LIG1       -0.0275
      9 C          -4.3958   -2.3359    0.0412 C.ar    1  LIG1        0.0004
     10 C         -10.7090   -3.2116    1.8824 C.ar    1  LIG1        0.0003
     11 C          -9.9700   -3.9174    0.9307 C.ar    1  LIG1        0.0379
     12 C          -4.6366   -1.0605   -0.4742 C.ar    1  LIG1        0.0685
     13 C         -12.5230   -4.7810    1.5435 C.ar    1  LIG1        0.0720
     14 C          -3.7905   -0.4509   -1.4073 C.ar    1  LIG1        0.0965
     15 C          -6.2964   -1.5394    0.9700 C.ar    1  LIG1        0.0811
     16 C          -8.6949   -2.2104    1.6585 C.ar    1  LIG1        0.0811
     17 C          -7.5595   -1.3505    1.7720 C.2     1  LIG1        0.2206
     18 C          -3.4760    1.8966   -1.1919 C.3     1  LIG1        0.0423
     19 N          -8.7515   -3.2871    0.8149 N.ar    1  LIG1       -0.3112
     20 N          -5.7968   -0.6012    0.1071 N.ar    1  LIG1       -0.3090
     21 O          -7.5571   -0.3766    2.5604 O.2     1  LIG1       -0.2856
     22 O         -13.7810   -5.2140    1.8396 O.3     1  LIG1       -0.3609
     23 O          -4.0364    0.7977   -1.9043 O.3     1  LIG1       -0.3473
     24 H          -1.5191   -2.9806   -1.6674 H       1  LIG1        0.0624
     25 H          -3.0365   -4.0334   -0.0158 H       1  LIG1        0.0629
     26 H          -9.8782   -5.5804   -0.4644 H       1  LIG1        0.0643
     27 H          -1.9831   -0.7270   -2.5483 H       1  LIG1        0.0651
     28 H         -12.1744   -6.3410    0.1005 H       1  LIG1        0.0651
     29 H         -12.6101   -3.1238    2.9299 H       1  LIG1        0.0657
     30 H          -5.5749   -3.5316    1.5281 H       1  LIG1        0.0651
     31 H         -10.1557   -1.3923    3.0719 H       1  LIG1        0.0651
     32 H          -3.7458    2.8308   -1.6906 H       1  LIG1        0.0535
     33 H          -2.3888    1.7917   -1.1549 H       1  LIG1        0.0535
     34 H          -3.8745    1.9011   -0.1746 H       1  LIG1        0.0535
     35 H          -8.0085   -3.5800    0.1953 H       1  LIG1        0.1529
     36 H          -6.2164    0.2995   -0.0791 H       1  LIG1        0.1530
     37 H         -14.1828   -4.6406    2.5107 H       1  LIG1        0.2182
@<TRIPOS>BOND
     1     1     2   ar
     2     1     4   ar
     3     2     9   ar
     4     3     5   ar
     5     3    11   ar
     6     4    14   ar
     7     5    13   ar
     8     6    10   ar
     9     6    13   ar
    10     7     9   ar
    11     7    15   ar
    12     8    10   ar
    13     8    16   ar
    14     9    12   ar
    15    10    11   ar
    16    11    19   ar
    17    12    14   ar
    18    12    20   ar
    19    13    22    1
    20    14    23    1
    21    15    17    1
    22    15    20   ar
    23    16    17    1
    24    16    19   ar
    25    17    21    2
    26    18    23    1
    27     1    24    1
    28     2    25    1
    29     3    26    1
    30     4    27    1
    31     5    28    1
    32     6    29    1
    33     7    30    1
    34     8    31    1
    35    18    32    1
    36    18    33    1
    37    18    34    1
    38    19    35    1
    39    20    36    1
    40    22    37    1
