@<TRIPOS>MOLECULE
ChEBML119678
 38 41 0 0 0
SMALL
USER_CHARGES

@<TRIPOS>ATOM
      1 C          -1.4042    0.4601   -3.8945 C.ar    1  LIG1       -0.0622
      2 C          -1.3827   -0.5494   -2.9323 C.ar    1  LIG1       -0.0617
      3 C          -2.5286    1.2754   -4.0248 C.ar    1  LIG1       -0.0617
      4 C          -2.4853   -0.7438   -2.1004 C.ar    1  LIG1       -0.0550
      5 C          -3.6312    1.0811   -3.1929 C.ar    1  LIG1       -0.0550
      6 C         -11.7459   -3.8237    2.3329 C.ar    1  LIG1       -0.0261
      7 C          -8.9884   -3.7253    0.0328 C.ar    1  LIG1        0.0013
      8 C         -12.0323   -4.8398    1.4511 C.ar    1  LIG1        0.0467
      9 C         -10.5200   -3.2516    1.9007 C.ar    1  LIG1        0.0385
     10 C          -8.5169   -1.9357    1.6172 C.ar    1  LIG1        0.0838
     11 C          -3.6096    0.0716   -2.2307 C.ar    1  LIG1       -0.0255
     12 C         -10.1454   -3.9709    0.7707 C.ar    1  LIG1        0.0938
     13 C          -8.1748   -2.6812    0.4858 C.ar    1  LIG1        0.0985
     14 C          -9.6894   -2.2053    2.3420 C.ar    1  LIG1        0.0983
     15 C          -6.4124   -0.6337    1.2280 C.ar    1  LIG1        0.0171
     16 C          -7.6209   -0.8485    2.0474 C.ar    1  LIG1        0.1933
     17 C          -6.1957   -1.4174    0.1631 C.ar    1  LIG1        0.0860
     18 C          -4.7746   -0.1333   -1.3524 C.2     1  LIG1       -0.0524
     19 C          -5.0388   -1.2604   -0.6764 C.2     1  LIG1       -0.0305
     20 C          -9.5692   -1.9680    4.7052 C.3     1  LIG1        0.0423
     21 O          -7.8343   -0.1425    3.0237 O.2     1  LIG1       -0.2889
     22 O         -11.0676   -4.9372    0.4998 O.2     1  LIG1       -0.3172
     23 O          -7.0337   -2.4393   -0.2439 O.2     1  LIG1       -0.3093
     24 O         -10.0426   -1.4888    3.4501 O.3     1  LIG1       -0.3477
     25 H          -0.5453    0.6122   -4.5413 H       1  LIG1        0.0622
     26 H          -0.5069   -1.1837   -2.8298 H       1  LIG1        0.0623
     27 H          -2.5450    2.0624   -4.7732 H       1  LIG1        0.0623
     28 H          -2.4536   -1.5350   -1.3551 H       1  LIG1        0.0629
     29 H          -4.5002    1.7249   -3.3068 H       1  LIG1        0.0629
     30 H         -12.3464   -3.5319    3.1828 H       1  LIG1        0.0652
     31 H          -8.7375   -4.3131   -0.8426 H       1  LIG1        0.0679
     32 H         -12.8424   -5.5494    1.3679 H       1  LIG1        0.0901
     33 H          -5.7351    0.1607    1.5218 H       1  LIG1        0.0692
     34 H          -5.4622    0.7076   -1.2835 H       1  LIG1        0.0630
     35 H          -4.3905   -2.1283   -0.7379 H       1  LIG1        0.0650
     36 H          -9.9202   -1.3093    5.5035 H       1  LIG1        0.0535
     37 H          -8.4768   -1.9974    4.6965 H       1  LIG1        0.0535
     38 H          -9.9576   -2.9758    4.8704 H       1  LIG1        0.0535
@<TRIPOS>BOND
     1     1     2   ar
     2     1     3   ar
     3     2     4   ar
     4     3     5   ar
     5     4    11   ar
     6     5    11   ar
     7     6     8   ar
     8     6     9   ar
     9     7    12   ar
    10     7    13   ar
    11     8    22   ar
    12     9    12   ar
    13     9    14   ar
    14    10    13   ar
    15    10    14   ar
    16    10    16   ar
    17    11    18    1
    18    12    22   ar
    19    13    23   ar
    20    14    24    1
    21    15    16   ar
    22    15    17   ar
    23    16    21    2
    24    17    19    1
    25    17    23   ar
    26    18    19    2
    27    20    24    1
    28     1    25    1
    29     2    26    1
    30     3    27    1
    31     4    28    1
    32     5    29    1
    33     6    30    1
    34     7    31    1
    35     8    32    1
    36    15    33    1
    37    18    34    1
    38    19    35    1
    39    20    36    1
    40    20    37    1
    41    20    38    1
