@<TRIPOS>MOLECULE
ChEBML1051486
 36 38 0 0 0
SMALL
USER_CHARGES

@<TRIPOS>ATOM
      1 C         -10.0746   -5.3589    0.9735 C.ar    1  LIG1       -0.0387
      2 C         -11.4319   -5.6856    0.9013 C.ar    1  LIG1       -0.0416
      3 C         -12.0689   -3.4023    1.4286 C.ar    1  LIG1       -0.0343
      4 C         -10.0106   -1.8397    1.7838 C.ar    1  LIG1       -0.0262
      5 C         -10.7069   -3.0494    1.5068 C.ar    1  LIG1       -0.0007
      6 C          -9.7432   -4.0339    1.2779 C.ar    1  LIG1        0.0379
      7 C         -12.4153   -4.7240    1.1249 C.ar    1  LIG1        0.0413
      8 C          -8.6628   -2.1083    1.7194 C.ar    1  LIG1        0.0947
      9 C          -7.5655   -1.2088    1.9254 C.2     1  LIG1        0.2602
     10 C          -6.4020   -2.1597   -0.0986 C.3     1  LIG1        0.0539
     11 C          -5.0602   -1.1575    1.7043 C.3     1  LIG1        0.0539
     12 C          -5.6908   -1.3047   -1.1371 C.3     1  LIG1       -0.0183
     13 C          -4.3172   -0.2900    0.6974 C.3     1  LIG1       -0.0183
     14 C          -3.5000   -0.2253   -1.6618 C.3     1  LIG1       -0.0453
     15 N          -8.5115   -3.4342    1.4134 N.ar    1  LIG1       -0.3101
     16 N          -6.3951   -1.4949    1.2109 N.am    1  LIG1       -0.2863
     17 N          -4.2942   -0.9928   -0.6426 N.4     1  LIG1        0.2462
     18 O          -7.6776   -0.2522    2.6901 O.2     1  LIG1       -0.2701
     19 CL        -14.0779   -5.1648    1.0256 Cl      1  LIG1       -0.0843
     20 H          -9.3100   -6.1087    0.7998 H       1  LIG1        0.0643
     21 H         -11.7081   -6.7113    0.6662 H       1  LIG1        0.0639
     22 H         -12.8347   -2.6514    1.6037 H       1  LIG1        0.0645
     23 H         -10.4525   -0.8775    2.0061 H       1  LIG1        0.0651
     24 H          -7.4184   -2.3720   -0.4389 H       1  LIG1        0.0525
     25 H          -5.8935   -3.1238    0.0237 H       1  LIG1        0.0525
     26 H          -4.5251   -2.0993    1.8748 H       1  LIG1        0.0525
     27 H          -5.1205   -0.6369    2.6650 H       1  LIG1        0.0525
     28 H          -5.5927   -1.8418   -2.0859 H       1  LIG1        0.0831
     29 H          -6.2025   -0.3494   -1.2997 H       1  LIG1        0.0831
     30 H          -4.8114    0.6770    0.5509 H       1  LIG1        0.0831
     31 H          -3.2789   -0.1340    1.0070 H       1  LIG1        0.0831
     32 H          -3.9975    0.7334   -1.8200 H       1  LIG1        0.0777
     33 H          -2.4933   -0.0842   -1.2638 H       1  LIG1        0.0777
     34 H          -3.4796   -0.8132   -2.5814 H       1  LIG1        0.0777
     35 H          -7.6253   -3.9078    1.3024 H       1  LIG1        0.1529
     36 H          -3.8088   -1.8906   -0.5090 H       1  LIG1        0.2001
@<TRIPOS>BOND
     1     1     2   ar
     2     1     6   ar
     3     2     7   ar
     4     3     5   ar
     5     3     7   ar
     6     4     5   ar
     7     4     8   ar
     8     5     6   ar
     9     6    15   ar
    10     7    19    1
    11     8     9    1
    12     8    15   ar
    13     9    16   am
    14     9    18    2
    15    10    12    1
    16    10    16    1
    17    11    13    1
    18    11    16    1
    19    12    17    1
    20    13    17    1
    21    14    17    1
    22     1    20    1
    23     2    21    1
    24     3    22    1
    25     4    23    1
    26    10    24    1
    27    10    25    1
    28    11    26    1
    29    11    27    1
    30    12    28    1
    31    12    29    1
    32    13    30    1
    33    13    31    1
    34    14    32    1
    35    14    33    1
    36    14    34    1
    37    15    35    1
    38    17    36    1
