@<TRIPOS>MOLECULE
ChEBML622525
 41 44 0 0 0
SMALL
USER_CHARGES

@<TRIPOS>ATOM
      1 C          -2.0475    0.8329   -3.2705 C.ar    1  LIG1       -0.0432
      2 C          -1.8265   -0.4820   -2.8759 C.ar    1  LIG1       -0.0462
      3 C         -11.6043   -5.3768    0.6478 C.ar    1  LIG1       -0.0482
      4 C         -12.0565   -3.0701    1.2066 C.ar    1  LIG1       -0.0482
      5 C         -10.2384   -5.1498    0.8162 C.ar    1  LIG1       -0.0402
      6 C         -10.6905   -2.8432    1.3751 C.ar    1  LIG1       -0.0402
      7 C          -3.1941    1.4628   -2.8142 C.ar    1  LIG1        0.0277
      8 C          -6.4214   -2.5626   -0.4175 C.ar    1  LIG1        0.0440
      9 C          -7.1909   -0.8582    3.1766 C.ar    1  LIG1        0.1197
     10 C          -6.7112   -2.0022    0.8247 C.ar    1  LIG1        0.0781
     11 C         -12.5134   -4.3368    0.8430 C.ar    1  LIG1        0.0556
     12 C          -2.7459   -1.1177   -2.0489 C.ar    1  LIG1        0.0850
     13 C          -9.7815   -3.8831    1.1798 C.ar    1  LIG1        0.0314
     14 C          -3.8611   -0.4003   -1.6472 C.ar    1  LIG1        0.1198
     15 C          -5.9987   -0.8674    1.2091 C.ar    1  LIG1        0.1680
     16 C          -7.6662   -2.5011    1.7081 C.ar    1  LIG1        0.1361
     17 C          -4.8671   -0.9732   -0.7910 C.ar    1  LIG1        0.1805
     18 C         -13.9740   -4.5784    0.6629 C.3     1  LIG1        0.4160
     19 C          -2.5069   -2.5279   -1.6288 C.3     1  LIG1        0.4182
     20 N          -4.1099    0.8781   -2.0098 N.ar    1  LIG1       -0.2522
     21 N          -5.4959   -2.0644   -1.2533 N.ar    1  LIG1       -0.2343
     22 N          -6.2444   -0.2958    2.3943 N.ar    1  LIG1       -0.2163
     23 N          -7.9292   -1.9441    2.9013 N.ar    1  LIG1       -0.2205
     24 N          -5.0715   -0.3537    0.3917 N.ar    1  LIG1       -0.2064
     25 N          -8.4065   -3.6547    1.3513 N.pl3   1  LIG1       -0.2989
     26 F         -14.2769   -5.8620    0.3069 F       1  LIG1       -0.1661
     27 F         -14.7108   -4.3376    1.7875 F       1  LIG1       -0.1661
     28 F         -14.5207   -3.7908   -0.3087 F       1  LIG1       -0.1661
     29 F          -1.3532   -3.0611   -2.1301 F       1  LIG1       -0.1660
     30 F          -2.4132   -2.6875   -0.2753 F       1  LIG1       -0.1660
     31 F          -3.5030   -3.3716   -2.0283 F       1  LIG1       -0.1660
     32 H          -1.3437    1.3474   -3.9146 H       1  LIG1        0.0639
     33 H          -0.9351   -1.0015   -3.2169 H       1  LIG1        0.0630
     34 H         -11.9515   -6.3664    0.3635 H       1  LIG1        0.0629
     35 H         -12.7570   -2.2536    1.3591 H       1  LIG1        0.0629
     36 H          -9.5385   -5.9667    0.6602 H       1  LIG1        0.0642
     37 H         -10.3455   -1.8520    1.6579 H       1  LIG1        0.0642
     38 H          -3.4135    2.4876   -3.0949 H       1  LIG1        0.0840
     39 H          -6.9302   -3.4449   -0.7920 H       1  LIG1        0.0850
     40 H          -7.3735   -0.3774    4.1301 H       1  LIG1        0.1064
     41 H          -7.8259   -4.4693    1.1891 H       1  LIG1        0.1543
@<TRIPOS>BOND
     1     1     2   ar
     2     1     7   ar
     3     2    12   ar
     4     3     5   ar
     5     3    11   ar
     6     4     6   ar
     7     4    11   ar
     8     5    13   ar
     9     6    13   ar
    10     7    20   ar
    11     8    10   ar
    12     8    21   ar
    13     9    22   ar
    14     9    23   ar
    15    10    15   ar
    16    10    16   ar
    17    11    18    1
    18    12    14   ar
    19    12    19    1
    20    13    25    1
    21    14    17    1
    22    14    20   ar
    23    15    22   ar
    24    15    24   ar
    25    16    23   ar
    26    16    25    1
    27    17    21   ar
    28    17    24   ar
    29    18    26    1
    30    18    27    1
    31    18    28    1
    32    19    29    1
    33    19    30    1
    34    19    31    1
    35     1    32    1
    36     2    33    1
    37     3    34    1
    38     4    35    1
    39     5    36    1
    40     6    37    1
    41     7    38    1
    42     8    39    1
    43     9    40    1
    44    25    41    1
