@<TRIPOS>MOLECULE
ChEBML240884
 35 37 0 0 0
SMALL
USER_CHARGES

@<TRIPOS>ATOM
      1 C          -4.2769   -0.4575   -2.3714 C.ar    1  LIG1       -0.0593
      2 C          -5.0114   -0.4092   -1.1867 C.ar    1  LIG1       -0.0573
      3 C         -10.3672   -5.0866    0.3216 C.ar    1  LIG1       -0.0376
      4 C          -2.9723   -0.9511   -2.3636 C.ar    1  LIG1       -0.0321
      5 C         -11.6764   -5.5140    0.5608 C.ar    1  LIG1       -0.0302
      6 C         -12.0733   -3.6469    2.0621 C.ar    1  LIG1       -0.0229
      7 C          -9.9924   -2.0933    2.3079 C.ar    1  LIG1       -0.0261
      8 C          -3.1367   -1.3481    0.0138 C.ar    1  LIG1       -0.0273
      9 C         -10.7573   -3.1967    1.8365 C.ar    1  LIG1        0.0004
     10 C          -4.4414   -0.8544    0.0060 C.ar    1  LIG1       -0.0282
     11 C          -9.9363   -3.9255    0.9732 C.ar    1  LIG1        0.0380
     12 C         -12.5180   -4.8068    1.4172 C.ar    1  LIG1        0.0720
     13 C          -2.4022   -1.3964   -1.1711 C.ar    1  LIG1        0.0716
     14 C          -8.7451   -2.1721    1.7327 C.ar    1  LIG1        0.0945
     15 C          -7.6336   -1.2905    1.9015 C.2     1  LIG1        0.2575
     16 C          -5.2318   -0.8019    1.2813 C.3     1  LIG1        0.0367
     17 N          -8.7209   -3.2803    0.9292 N.ar    1  LIG1       -0.3101
     18 N          -6.4452   -1.5827    1.1981 N.am    1  LIG1       -0.3061
     19 O          -7.6951   -0.2947    2.6662 O.2     1  LIG1       -0.2704
     20 O         -13.7896   -5.2487    1.6303 O.3     1  LIG1       -0.3609
     21 O          -1.1293   -1.8787   -1.1636 O.3     1  LIG1       -0.3609
     22 H          -4.7210   -0.1112   -3.3000 H       1  LIG1        0.0624
     23 H          -6.0270   -0.0225   -1.2024 H       1  LIG1        0.0626
     24 H          -9.7129   -5.6376   -0.3455 H       1  LIG1        0.0643
     25 H          -2.4054   -0.9861   -3.2898 H       1  LIG1        0.0650
     26 H         -12.0363   -6.4136    0.0668 H       1  LIG1        0.0651
     27 H         -12.7360   -3.1007    2.7280 H       1  LIG1        0.0657
     28 H         -10.3235   -1.3258    2.9950 H       1  LIG1        0.0651
     29 H          -2.6895   -1.6957    0.9422 H       1  LIG1        0.0653
     30 H          -4.6399   -1.1870    2.1187 H       1  LIG1        0.0518
     31 H          -5.5125    0.2276    1.5276 H       1  LIG1        0.0518
     32 H          -7.9276   -3.5840    0.3812 H       1  LIG1        0.1529
     33 H          -6.4118   -2.4295    0.6398 H       1  LIG1        0.1501
     34 H         -14.2506   -4.6573    2.2455 H       1  LIG1        0.2182
     35 H          -0.8767   -2.1472   -0.2659 H       1  LIG1        0.2182
@<TRIPOS>BOND
     1     1     2   ar
     2     1     4   ar
     3     2    10   ar
     4     3     5   ar
     5     3    11   ar
     6     4    13   ar
     7     5    12   ar
     8     6     9   ar
     9     6    12   ar
    10     7     9   ar
    11     7    14   ar
    12     8    10   ar
    13     8    13   ar
    14     9    11   ar
    15    10    16    1
    16    11    17   ar
    17    12    20    1
    18    13    21    1
    19    14    15    1
    20    14    17   ar
    21    15    18   am
    22    15    19    2
    23    16    18    1
    24     1    22    1
    25     2    23    1
    26     3    24    1
    27     4    25    1
    28     5    26    1
    29     6    27    1
    30     7    28    1
    31     8    29    1
    32    16    30    1
    33    16    31    1
    34    17    32    1
    35    18    33    1
    36    20    34    1
    37    21    35    1
