@<TRIPOS>MOLECULE
ChEBML1137619
 48 51 0 0 0
SMALL
USER_CHARGES

@<TRIPOS>ATOM
      1 C          -2.3869    0.8204   -3.5956 C.ar    1  LIG1       -0.0618
      2 C          -3.6545    1.2135   -3.2067 C.ar    1  LIG1       -0.0604
      3 C         -12.9809   -2.5083    1.8865 C.ar    1  LIG1       -0.0513
      4 C         -12.5281   -4.6768    0.9363 C.ar    1  LIG1       -0.0513
      5 C          -1.7180   -0.1631   -2.8907 C.ar    1  LIG1       -0.0574
      6 C          -4.2566    0.6244   -2.1125 C.ar    1  LIG1       -0.0407
      7 C         -14.3315   -2.7916    1.8765 C.ar    1  LIG1       -0.0428
      8 C         -13.8801   -4.9533    0.9361 C.ar    1  LIG1       -0.0428
      9 C         -10.0151   -1.9648    1.8818 C.ar    1  LIG1       -0.0059
     10 C         -12.0700   -3.4526    1.4182 C.ar    1  LIG1        0.0019
     11 C          -2.3141   -0.7562   -1.7949 C.ar    1  LIG1       -0.0299
     12 C          -3.5894   -0.3680   -1.4052 C.ar    1  LIG1        0.0316
     13 C         -14.7816   -4.0117    1.4020 C.ar    1  LIG1        0.0406
     14 C         -10.6160   -3.1528    1.4270 C.ar    1  LIG1        0.0905
     15 C          -8.6584   -2.1476    1.6944 C.ar    1  LIG1        0.1123
     16 C          -7.5878   -1.1891    2.0133 C.2     1  LIG1        0.2614
     17 C          -4.5873    0.1139    0.6083 C.3     1  LIG1        0.0274
     18 C          -5.4303   -1.5981   -0.7891 C.3     1  LIG1        0.0274
     19 C          -5.2427   -0.4774    1.8604 C.3     1  LIG1        0.0303
     20 C          -6.1414   -2.3025    0.3709 C.3     1  LIG1        0.0303
     21 C          -1.5840   -1.8278   -1.0270 C.3     1  LIG1       -0.0379
     22 N          -9.6550   -3.9504    1.0110 N.ar    1  LIG1       -0.1834
     23 N          -8.5070   -3.3915    1.1488 N.ar    1  LIG1       -0.2326
     24 N          -4.1975   -0.9697   -0.3011 N.pl3   1  LIG1       -0.3274
     25 N          -6.3752   -1.3175    1.4390 N.am    1  LIG1       -0.2935
     26 O          -7.7973   -0.2813    2.7951 O.2     1  LIG1       -0.2701
     27 CL        -16.4818   -4.3623    1.3919 Cl      1  LIG1       -0.0843
     28 H          -1.9182    1.2831   -4.4515 H       1  LIG1        0.0623
     29 H          -4.1742    1.9822   -3.7593 H       1  LIG1        0.0623
     30 H         -12.6307   -1.5563    2.2572 H       1  LIG1        0.0630
     31 H         -11.8259   -5.4100    0.5678 H       1  LIG1        0.0630
     32 H          -0.7281   -0.4677   -3.1970 H       1  LIG1        0.0626
     33 H          -5.2464    0.9320   -1.8092 H       1  LIG1        0.0642
     34 H         -15.0385   -2.0603    2.2396 H       1  LIG1        0.0638
     35 H         -14.2359   -5.9041    0.5675 H       1  LIG1        0.0638
     36 H         -10.5088   -1.0956    2.2906 H       1  LIG1        0.0668
     37 H          -3.7028    0.6826    0.8956 H       1  LIG1        0.0485
     38 H          -5.2947    0.7731    0.1051 H       1  LIG1        0.0485
     39 H          -6.0862   -0.8344   -1.2069 H       1  LIG1        0.0485
     40 H          -5.1850   -2.3275   -1.5611 H       1  LIG1        0.0485
     41 H          -4.5174   -1.0841    2.4027 H       1  LIG1        0.0486
     42 H          -5.6014    0.3275    2.5019 H       1  LIG1        0.0486
     43 H          -5.5156   -3.1114    0.7481 H       1  LIG1        0.0486
     44 H          -7.0944   -2.7046    0.0273 H       1  LIG1        0.0486
     45 H          -1.8140   -2.8031   -1.4560 H       1  LIG1        0.0280
     46 H          -0.5103   -1.6492   -1.0854 H       1  LIG1        0.0280
     47 H          -1.8997   -1.8062    0.0162 H       1  LIG1        0.0280
     48 H          -7.6587   -3.7933    0.9043 H       1  LIG1        0.1757
@<TRIPOS>BOND
     1     1     2   ar
     2     1     5   ar
     3     2     6   ar
     4     3     7   ar
     5     3    10   ar
     6     4     8   ar
     7     4    10   ar
     8     5    11   ar
     9     6    12   ar
    10     7    13   ar
    11     8    13   ar
    12     9    14   ar
    13     9    15   ar
    14    10    14    1
    15    11    12   ar
    16    11    21    1
    17    12    24    1
    18    13    27    1
    19    14    22   ar
    20    15    16    1
    21    15    23   ar
    22    16    25   am
    23    16    26    2
    24    17    19    1
    25    17    24    1
    26    18    20    1
    27    18    24    1
    28    19    25    1
    29    20    25    1
    30    22    23   ar
    31     1    28    1
    32     2    29    1
    33     3    30    1
    34     4    31    1
    35     5    32    1
    36     6    33    1
    37     7    34    1
    38     8    35    1
    39     9    36    1
    40    17    37    1
    41    17    38    1
    42    18    39    1
    43    18    40    1
    44    19    41    1
    45    19    42    1
    46    20    43    1
    47    20    44    1
    48    21    45    1
    49    21    46    1
    50    21    47    1
    51    23    48    1
