@<TRIPOS>MOLECULE
ChEBML212789
 36 38 0 0 0
SMALL
USER_CHARGES

@<TRIPOS>ATOM
      1 C         -12.4152   -4.7237    1.1252 C.ar    1  LIG1       -0.0615
      2 C         -11.4318   -5.6854    0.9015 C.ar    1  LIG1       -0.0603
      3 C         -12.0688   -3.4021    1.4287 C.ar    1  LIG1       -0.0530
      4 C         -10.0747   -5.3588    0.9735 C.ar    1  LIG1       -0.0402
      5 C         -10.0103   -1.8396    1.7839 C.ar    1  LIG1       -0.0262
      6 C         -10.7068   -3.0493    1.5069 C.ar    1  LIG1       -0.0022
      7 C          -9.7431   -4.0337    1.2779 C.ar    1  LIG1        0.0378
      8 C          -8.6625   -2.1083    1.7193 C.ar    1  LIG1        0.0947
      9 C          -7.5650   -1.2089    1.9252 C.2     1  LIG1        0.2602
     10 C          -5.0884   -1.1291    1.7620 C.3     1  LIG1        0.0538
     11 C          -6.3364   -2.1885   -0.0841 C.3     1  LIG1        0.0564
     12 C          -4.3051   -0.2823    0.7710 C.3     1  LIG1       -0.0196
     13 C          -5.5781   -1.3468   -1.1102 C.3     1  LIG1       -0.0118
     14 C          -5.3690   -2.0883   -2.4215 C.3     1  LIG1       -0.0211
     15 N          -8.5113   -3.4342    1.4132 N.ar    1  LIG1       -0.3101
     16 N          -6.3937   -1.4945    1.2106 N.am    1  LIG1       -0.2860
     17 N          -4.2283   -1.0081   -0.5364 N.4     1  LIG1        0.2428
     18 O          -7.6778   -0.2525    2.6900 O.2     1  LIG1       -0.2701
     19 H         -13.4641   -5.0017    1.0628 H       1  LIG1        0.0623
     20 H         -11.7236   -6.7058    0.6675 H       1  LIG1        0.0623
     21 H         -12.8455   -2.6622    1.6004 H       1  LIG1        0.0629
     22 H          -9.3093   -6.1078    0.7997 H       1  LIG1        0.0642
     23 H         -10.4526   -0.8776    2.0063 H       1  LIG1        0.0651
     24 H          -4.5542   -2.0610    1.9831 H       1  LIG1        0.0525
     25 H          -5.2009   -0.5847    2.7046 H       1  LIG1        0.0525
     26 H          -7.3368   -2.4152   -0.4622 H       1  LIG1        0.0528
     27 H          -5.8328   -3.1480    0.0889 H       1  LIG1        0.0528
     28 H          -4.7916    0.6788    0.5747 H       1  LIG1        0.0830
     29 H          -3.2779   -0.1118    1.1052 H       1  LIG1        0.0830
     30 H          -6.0863   -0.3920   -1.2896 H       1  LIG1        0.0865
     31 H          -4.8632   -3.0376   -2.2397 H       1  LIG1        0.0288
     32 H          -4.7586   -1.4889   -3.0985 H       1  LIG1        0.0288
     33 H          -6.3302   -2.2875   -2.8978 H       1  LIG1        0.0288
     34 H          -7.6251   -3.9079    1.3030 H       1  LIG1        0.1529
     35 H          -3.7047   -0.4302   -1.2083 H       1  LIG1        0.1987
     36 H          -3.6752   -1.8685   -0.4158 H       1  LIG1        0.1987
@<TRIPOS>BOND
     1     1     2   ar
     2     1     3   ar
     3     2     4   ar
     4     3     6   ar
     5     4     7   ar
     6     5     6   ar
     7     5     8   ar
     8     6     7   ar
     9     7    15   ar
    10     8     9    1
    11     8    15   ar
    12     9    16   am
    13     9    18    2
    14    10    12    1
    15    10    16    1
    16    11    13    1
    17    11    16    1
    18    12    17    1
    19    13    14    1
    20    13    17    1
    21     1    19    1
    22     2    20    1
    23     3    21    1
    24     4    22    1
    25     5    23    1
    26    10    24    1
    27    10    25    1
    28    11    26    1
    29    11    27    1
    30    12    28    1
    31    12    29    1
    32    13    30    1
    33    14    31    1
    34    14    32    1
    35    14    33    1
    36    15    34    1
    37    17    35    1
    38    17    36    1
