@<TRIPOS>MOLECULE
ChEBML715271
 33 36 0 0 0
SMALL
USER_CHARGES

@<TRIPOS>ATOM
      1 C          -4.1209   -1.2808   -0.6236 C.ar    1  LIG1       -0.0622
      2 C         -12.5258   -4.6890    1.5938 C.ar    1  LIG1       -0.0615
      3 C          -5.2602   -1.9295   -1.0658 C.ar    1  LIG1       -0.0616
      4 C          -4.1220   -0.6203    0.5919 C.ar    1  LIG1       -0.0616
      5 C         -11.7218   -5.5515    0.8660 C.ar    1  LIG1       -0.0603
      6 C         -12.0649   -3.4899    2.0736 C.ar    1  LIG1       -0.0527
      7 C          -6.4049   -1.9214   -0.2955 C.ar    1  LIG1       -0.0527
      8 C          -5.2626   -0.6001    1.3683 C.ar    1  LIG1       -0.0527
      9 C         -10.4005   -5.2587    0.5762 C.ar    1  LIG1       -0.0402
     10 C         -10.7289   -3.1622    1.7968 C.ar    1  LIG1        0.0010
     11 C          -6.4121   -1.2574    0.9308 C.ar    1  LIG1        0.0016
     12 C          -9.9456   -2.0562    2.1182 C.ar    1  LIG1       -0.0135
     13 C          -9.9023   -4.0474    1.0498 C.ar    1  LIG1        0.0380
     14 C          -8.6949   -2.2616    1.5870 C.ar    1  LIG1        0.0605
     15 C          -7.6383   -1.2450    1.7629 C.2     1  LIG1        0.0863
     16 C         -10.2604   -0.8010    2.8909 C.3     1  LIG1       -0.0055
     17 C          -8.9800   -0.3129    3.5702 C.3     1  LIG1        0.0439
     18 N          -7.8266   -0.3331    2.6823 N.2     1  LIG1       -0.2823
     19 N          -8.6676   -3.4689    0.9404 N.ar    1  LIG1       -0.3124
     20 H          -3.2271   -1.2904   -1.2297 H       1  LIG1        0.0622
     21 H         -13.5498   -4.9707    1.7900 H       1  LIG1        0.0623
     22 H          -5.2533   -2.4435   -2.0156 H       1  LIG1        0.0623
     23 H          -3.2295   -0.1160    0.9320 H       1  LIG1        0.0623
     24 H         -12.1399   -6.4828    0.5134 H       1  LIG1        0.0623
     25 H         -12.7023   -2.8270    2.6398 H       1  LIG1        0.0630
     26 H          -7.2934   -2.4287   -0.6413 H       1  LIG1        0.0630
     27 H          -5.2636   -0.0803    2.3150 H       1  LIG1        0.0630
     28 H          -9.7834   -5.9389    0.0079 H       1  LIG1        0.0642
     29 H         -11.0162   -1.0161    3.6462 H       1  LIG1        0.0336
     30 H         -10.6283   -0.0342    2.2092 H       1  LIG1        0.0336
     31 H          -9.1353    0.7073    3.9213 H       1  LIG1        0.0518
     32 H          -8.7731   -0.9504    4.4297 H       1  LIG1        0.0518
     33 H          -7.9018   -3.8494    0.4824 H       1  LIG1        0.1529
@<TRIPOS>BOND
     1     1     3   ar
     2     1     4   ar
     3     2     5   ar
     4     2     6   ar
     5     3     7   ar
     6     4     8   ar
     7     5     9   ar
     8     6    10   ar
     9     7    11   ar
    10     8    11   ar
    11     9    13   ar
    12    10    12   ar
    13    10    13   ar
    14    11    15    1
    15    12    14   ar
    16    12    16    1
    17    13    19   ar
    18    14    15    1
    19    14    19   ar
    20    15    18    2
    21    16    17    1
    22    17    18    1
    23     1    20    1
    24     2    21    1
    25     3    22    1
    26     4    23    1
    27     5    24    1
    28     6    25    1
    29     7    26    1
    30     8    27    1
    31     9    28    1
    32    16    29    1
    33    16    30    1
    34    17    31    1
    35    17    32    1
    36    19    33    1
