@<TRIPOS>MOLECULE
ChEBML345926
 34 36 0 0 0
SMALL
USER_CHARGES

@<TRIPOS>ATOM
      1 C          -2.7424    1.0172   -3.4036 C.ar    1  LIG1       -0.0621
      2 C          -2.3210    1.4035   -2.1314 C.ar    1  LIG1       -0.0604
      3 C          -3.5378   -0.1181   -3.5601 C.ar    1  LIG1       -0.0604
      4 C         -10.3198   -4.9960    0.2362 C.ar    1  LIG1       -0.0291
      5 C          -2.6949    0.6547   -1.0155 C.ar    1  LIG1       -0.0395
      6 C          -3.9116   -0.8668   -2.4443 C.ar    1  LIG1       -0.0395
      7 C         -11.5559   -5.5475    0.5862 C.ar    1  LIG1       -0.0409
      8 C         -11.9081   -3.8539    2.3024 C.ar    1  LIG1       -0.0335
      9 C          -9.9038   -2.1752    2.4197 C.ar    1  LIG1       -0.0158
     10 C         -10.6681   -3.2828    1.9668 C.ar    1  LIG1        0.0096
     11 C          -9.9194   -3.8688    0.9513 C.ar    1  LIG1        0.0897
     12 C          -3.4902   -0.4804   -1.1720 C.ar    1  LIG1        0.0558
     13 C         -12.3377   -4.9885    1.6004 C.ar    1  LIG1        0.0414
     14 C          -8.7564   -2.1596    1.6609 C.ar    1  LIG1        0.1467
     15 C          -7.6339   -1.2851    1.6696 C.2     1  LIG1        0.2839
     16 N          -6.5963   -1.5363    0.7515 N.am    1  LIG1       -0.2190
     17 N          -5.4257   -0.6839    0.6971 N.3     1  LIG1       -0.2074
     18 O          -7.5571   -0.3087    2.4613 O.2     1  LIG1       -0.2678
     19 O          -2.9726   -1.2047    1.2800 O.2     1  LIG1       -0.4750
     20 O          -4.2377   -2.7773   -0.2220 O.2     1  LIG1       -0.4750
     21 O          -8.7562   -3.1830    0.7674 O.2     1  LIG1       -0.3042
     22 S          -3.9614   -1.4318    0.2433 S.O2    1  LIG1       -0.1526
     23 CL        -13.8542   -5.7044    1.9978 Cl      1  LIG1       -0.0843
     24 H          -2.4511    1.5994   -4.2730 H       1  LIG1        0.0622
     25 H          -1.7010    2.2868   -2.0093 H       1  LIG1        0.0623
     26 H          -3.8650   -0.4190   -4.5508 H       1  LIG1        0.0623
     27 H          -9.7080   -5.4236   -0.5490 H       1  LIG1        0.0651
     28 H          -2.3604    0.9641   -0.0289 H       1  LIG1        0.0642
     29 H          -4.5303   -1.7501   -2.5779 H       1  LIG1        0.0642
     30 H         -11.9020   -6.4285    0.0496 H       1  LIG1        0.0639
     31 H         -12.5159   -3.4200    3.0911 H       1  LIG1        0.0645
     32 H         -10.1622   -1.4768    3.2036 H       1  LIG1        0.0660
     33 H          -6.6137   -2.3164    0.1038 H       1  LIG1        0.1756
     34 H          -5.4046    0.1002    1.3605 H       1  LIG1        0.1892
@<TRIPOS>BOND
     1     1     2   ar
     2     1     3   ar
     3     2     5   ar
     4     3     6   ar
     5     4     7   ar
     6     4    11   ar
     7     5    12   ar
     8     6    12   ar
     9     7    13   ar
    10     8    10   ar
    11     8    13   ar
    12     9    10   ar
    13     9    14   ar
    14    10    11   ar
    15    11    21   ar
    16    12    22    1
    17    13    23    1
    18    14    15    1
    19    14    21   ar
    20    15    16   am
    21    15    18    2
    22    16    17    1
    23    17    22    1
    24    19    22    2
    25    20    22    2
    26     1    24    1
    27     2    25    1
    28     3    26    1
    29     4    27    1
    30     5    28    1
    31     6    29    1
    32     7    30    1
    33     8    31    1
    34     9    32    1
    35    16    33    1
    36    17    34    1
