@<TRIPOS>MOLECULE
ChEBML208634
 43 46 0 0 0
SMALL
USER_CHARGES

@<TRIPOS>ATOM
      1 C         -11.3879   -5.3743    0.6514 C.ar    1  LIG1       -0.0600
      2 C         -12.3732   -4.4422    0.9851 C.ar    1  LIG1       -0.0602
      3 C          -1.4245   -0.0723   -2.4736 C.ar    1  LIG1       -0.0589
      4 C          -2.0210    0.8767   -3.2963 C.ar    1  LIG1       -0.0438
      5 C         -10.0298   -5.0864    0.8371 C.ar    1  LIG1       -0.0344
      6 C         -12.0394   -3.1915    1.5153 C.ar    1  LIG1       -0.0385
      7 C          -2.1320   -0.5930   -1.3958 C.ar    1  LIG1       -0.0403
      8 C          -3.3168    1.2685   -3.0010 C.ar    1  LIG1        0.0271
      9 C          -9.6764   -3.8345    1.3685 C.ar    1  LIG1        0.0864
     10 C         -10.6809   -2.9266    1.6915 C.ar    1  LIG1        0.0575
     11 C          -3.4228   -0.1353   -1.1854 C.ar    1  LIG1        0.0439
     12 C          -8.6713   -2.1099    2.1267 C.ar    1  LIG1        0.1434
     13 C          -4.5829    0.4613    0.9330 C.3     1  LIG1       -0.0050
     14 C          -5.4774   -1.3826   -0.5457 C.3     1  LIG1       -0.0050
     15 C          -5.4589   -0.0413    2.0733 C.3     1  LIG1       -0.0332
     16 C          -6.3464   -1.8714    0.6060 C.3     1  LIG1       -0.0332
     17 C          -4.2126   -0.6732   -0.0361 C.3     1  LIG1        0.0111
     18 C          -7.6516   -1.1109    2.5885 C.3     1  LIG1        0.0232
     19 N          -4.0356    0.7853   -1.9630 N.ar    1  LIG1       -0.2609
     20 N          -8.4349   -3.3099    1.6459 N.ar    1  LIG1       -0.2303
     21 N         -10.0093   -1.8326    2.1740 N.ar    1  LIG1       -0.2969
     22 N          -6.6889   -0.7081    1.5057 N.4     1  LIG1        0.2514
     23 H         -11.6787   -6.3384    0.2417 H       1  LIG1        0.0623
     24 H         -13.4197   -4.6923    0.8289 H       1  LIG1        0.0623
     25 H          -0.4102   -0.4053   -2.6719 H       1  LIG1        0.0624
     26 H          -1.4884    1.2963   -4.1421 H       1  LIG1        0.0639
     27 H          -9.2722   -5.8181    0.5755 H       1  LIG1        0.0646
     28 H         -12.8027   -2.4672    1.7758 H       1  LIG1        0.0643
     29 H          -1.6781   -1.3338   -0.7464 H       1  LIG1        0.0642
     30 H          -3.8268    2.0058   -3.6122 H       1  LIG1        0.0839
     31 H          -5.1097    1.2609    0.3945 H       1  LIG1        0.0327
     32 H          -3.6728    0.9138    1.3465 H       1  LIG1        0.0327
     33 H          -5.2004   -2.2353   -1.1783 H       1  LIG1        0.0327
     34 H          -6.0621   -0.7027   -1.1801 H       1  LIG1        0.0327
     35 H          -4.9374   -0.7774    2.6948 H       1  LIG1        0.0815
     36 H          -5.7953    0.7934    2.6970 H       1  LIG1        0.0815
     37 H          -7.2877   -2.2844    0.2291 H       1  LIG1        0.0815
     38 H          -5.8327   -2.6242    1.2145 H       1  LIG1        0.0815
     39 H          -3.5796   -1.4000    0.4874 H       1  LIG1        0.0373
     40 H          -8.1301   -0.1913    2.9420 H       1  LIG1        0.0899
     41 H          -7.0499   -1.5115    3.4114 H       1  LIG1        0.0899
     42 H         -10.4313   -0.9755    2.5060 H       1  LIG1        0.1542
     43 H          -7.1769   -0.0092    0.9286 H       1  LIG1        0.2008
@<TRIPOS>BOND
     1     1     2   ar
     2     1     5   ar
     3     2     6   ar
     4     3     4   ar
     5     3     7   ar
     6     4     8   ar
     7     5     9   ar
     8     6    10   ar
     9     7    11   ar
    10     8    19   ar
    11     9    10   ar
    12     9    20   ar
    13    10    21   ar
    14    11    17    1
    15    11    19   ar
    16    12    18    1
    17    12    20   ar
    18    12    21   ar
    19    13    15    1
    20    13    17    1
    21    14    16    1
    22    14    17    1
    23    15    22    1
    24    16    22    1
    25    18    22    1
    26     1    23    1
    27     2    24    1
    28     3    25    1
    29     4    26    1
    30     5    27    1
    31     6    28    1
    32     7    29    1
    33     8    30    1
    34    13    31    1
    35    13    32    1
    36    14    33    1
    37    14    34    1
    38    15    35    1
    39    15    36    1
    40    16    37    1
    41    16    38    1
    42    17    39    1
    43    18    40    1
    44    18    41    1
    45    21    42    1
    46    22    43    1
