@<TRIPOS>MOLECULE
ChEBML1141630
 47 51 0 0 0
SMALL
USER_CHARGES

@<TRIPOS>ATOM
      1 C         -12.8066   -4.0749    1.6109 C.ar    1  LIG1       -0.0615
      2 C         -12.1513   -5.2135    1.1473 C.ar    1  LIG1       -0.0603
      3 C         -12.0976   -2.8974    1.8740 C.ar    1  LIG1       -0.0527
      4 C          -2.1409    0.0293   -3.3185 C.ar    1  LIG1       -0.0566
      5 C         -10.7704   -5.2127    0.9313 C.ar    1  LIG1       -0.0402
      6 C          -2.0978   -0.5805   -2.0646 C.ar    1  LIG1       -0.0302
      7 C          -4.1670    1.1946   -2.6927 C.ar    1  LIG1       -0.0454
      8 C         -10.7039   -2.8708    1.6655 C.ar    1  LIG1        0.0009
      9 C          -4.1216    0.5829   -1.4373 C.ar    1  LIG1        0.0535
     10 C          -9.6926   -1.8830    1.8219 C.ar    1  LIG1       -0.0111
     11 C          -3.1731    0.9148   -3.6316 C.ar    1  LIG1       -0.0502
     12 C         -10.0721   -4.0292    1.1974 C.ar    1  LIG1        0.0379
     13 C          -3.0898   -0.3022   -1.1238 C.ar    1  LIG1        0.0924
     14 C          -8.4971   -2.4552    1.4462 C.ar    1  LIG1        0.0558
     15 C          -3.9691   -0.6616    1.0232 C.ar    1  LIG1        0.0583
     16 C          -5.1591    0.8616   -0.4268 C.ar    1  LIG1        0.1985
     17 C          -5.0166    0.1590    0.8733 C.ar    1  LIG1        0.0670
     18 C          -9.7748   -0.4645    2.2707 C.3     1  LIG1        0.0140
     19 C          -7.1776   -1.7856    1.4693 C.3     1  LIG1        0.0057
     20 C          -8.3994    0.0679    2.7085 C.3     1  LIG1       -0.0294
     21 C          -3.2134    1.5638   -4.9741 C.3     1  LIG1       -0.0397
     22 C          -6.0346    0.4033    1.9265 C.3     1  LIG1       -0.0019
     23 N          -8.7275   -3.7469    1.0745 N.ar    1  LIG1       -0.3132
     24 N          -7.3471   -0.2742    1.6555 N.4     1  LIG1        0.2539
     25 O          -6.0843    1.6302   -0.6533 O.2     1  LIG1       -0.2885
     26 O          -2.9956   -0.9300    0.0926 O.2     1  LIG1       -0.3167
     27 H         -13.8814   -4.0997    1.7705 H       1  LIG1        0.0623
     28 H         -12.7215   -6.1175    0.9494 H       1  LIG1        0.0623
     29 H         -12.6222   -2.0175    2.2351 H       1  LIG1        0.0630
     30 H          -1.3645   -0.1912   -4.0466 H       1  LIG1        0.0626
     31 H         -10.2621   -6.1002    0.5695 H       1  LIG1        0.0642
     32 H          -1.2907   -1.2689   -1.8290 H       1  LIG1        0.0651
     33 H          -4.9668    1.8852   -2.9475 H       1  LIG1        0.0634
     34 H          -3.7735   -1.2198    1.9296 H       1  LIG1        0.0908
     35 H         -10.1558    0.1455    1.4424 H       1  LIG1        0.0371
     36 H         -10.4821   -0.3660    3.1016 H       1  LIG1        0.0371
     37 H          -6.5759   -2.1482    2.3098 H       1  LIG1        0.0882
     38 H          -6.6318   -1.9250    0.5308 H       1  LIG1        0.0882
     39 H          -8.4236    1.1577    2.8106 H       1  LIG1        0.0818
     40 H          -8.0672   -0.3834    3.6506 H       1  LIG1        0.0818
     41 H          -3.7851    0.9477   -5.6788 H       1  LIG1        0.0280
     42 H          -3.6789    2.5565   -4.9225 H       1  LIG1        0.0280
     43 H          -2.2027    1.7073   -5.3774 H       1  LIG1        0.0280
     44 H          -6.2514    1.4719    2.0103 H       1  LIG1        0.0871
     45 H          -5.6842    0.0302    2.8926 H       1  LIG1        0.0871
     46 H          -8.0244   -4.4010    0.7589 H       1  LIG1        0.1527
     47 H          -7.6921    0.1009    0.7609 H       1  LIG1        0.2011
@<TRIPOS>BOND
     1     1     2   ar
     2     1     3   ar
     3     2     5   ar
     4     3     8   ar
     5     4     6   ar
     6     4    11   ar
     7     5    12   ar
     8     6    13   ar
     9     7     9   ar
    10     7    11   ar
    11     8    10   ar
    12     8    12   ar
    13     9    13   ar
    14     9    16   ar
    15    10    14   ar
    16    10    18    1
    17    11    21    1
    18    12    23   ar
    19    13    26   ar
    20    14    19    1
    21    14    23   ar
    22    15    17   ar
    23    15    26   ar
    24    16    17   ar
    25    16    25    2
    26    17    22    1
    27    18    20    1
    28    19    24    1
    29    20    24    1
    30    22    24    1
    31     1    27    1
    32     2    28    1
    33     3    29    1
    34     4    30    1
    35     5    31    1
    36     6    32    1
    37     7    33    1
    38    15    34    1
    39    18    35    1
    40    18    36    1
    41    19    37    1
    42    19    38    1
    43    20    39    1
    44    20    40    1
    45    21    41    1
    46    21    42    1
    47    21    43    1
    48    22    44    1
    49    22    45    1
    50    23    46    1
    51    24    47    1
