@<TRIPOS>MOLECULE
ChEBML351592
 53 56 0 0 0
SMALL
USER_CHARGES

@<TRIPOS>ATOM
      1 C         -11.6414   -5.6940    1.0185 C.ar    1  LIG1       -0.0601
      2 C         -12.5473   -4.8027    1.5899 C.ar    1  LIG1       -0.0581
      3 C          -3.0260    1.5592   -2.2769 C.ar    1  LIG1       -0.0575
      4 C          -3.1018   -0.8081   -2.7531 C.ar    1  LIG1       -0.0575
      5 C         -10.3133   -5.3236    0.7886 C.ar    1  LIG1       -0.0402
      6 C          -1.8568    1.6731   -3.0289 C.ar    1  LIG1       -0.0432
      7 C          -1.9326   -0.6941   -3.5052 C.ar    1  LIG1       -0.0432
      8 C         -10.0857   -1.9152    1.9619 C.ar    1  LIG1       -0.0270
      9 C          -6.3638    0.2968    2.1037 C.ar    1  LIG1        0.0566
     10 C         -10.8162   -3.1138    1.7276 C.ar    1  LIG1        0.0012
     11 C          -3.6484    0.3186   -2.1388 C.ar    1  LIG1       -0.0475
     12 C         -12.1501   -3.5098    1.9498 C.ar    1  LIG1       -0.0336
     13 C          -9.9304   -4.0280    1.1534 C.ar    1  LIG1        0.0381
     14 C          -1.3101    0.5465   -3.6432 C.ar    1  LIG1        0.0406
     15 C          -8.7945   -2.1213    1.5336 C.ar    1  LIG1        0.0819
     16 C          -5.8437   -0.3102    0.9877 C.ar    1  LIG1        0.0800
     17 C          -7.6862   -1.2413    1.5484 C.ar    1  LIG1        0.1936
     18 C         -15.4390   -1.8587    4.2319 C.3     1  LIG1       -0.0457
     19 C         -13.8787   -1.1796    6.0498 C.3     1  LIG1       -0.0457
     20 C          -4.9145    0.1952   -1.3265 C.3     1  LIG1       -0.0218
     21 C         -13.1672   -2.5965    2.5576 C.3     1  LIG1        0.0123
     22 C          -4.6427   -0.1158    0.1697 C.3     1  LIG1        0.0001
     23 C         -13.0172   -2.4153    4.0669 C.3     1  LIG1       -0.0307
     24 N          -7.5446   -0.3040    2.4581 N.ar    1  LIG1       -0.2284
     25 N          -8.7106   -3.3984    1.0473 N.ar    1  LIG1       -0.3109
     26 N         -14.0263   -1.4523    4.5729 N.4     1  LIG1        0.2420
     27 O          -6.6935   -1.3090    0.6194 O.2     1  LIG1       -0.2929
     28 CL          0.1321    0.6873   -4.5710 Cl      1  LIG1       -0.0843
     29 H         -11.9711   -6.6933    0.7460 H       1  LIG1        0.0623
     30 H         -13.5733   -5.1242    1.7541 H       1  LIG1        0.0626
     31 H          -3.4456    2.4417   -1.8011 H       1  LIG1        0.0626
     32 H          -3.5807   -1.7783   -2.6506 H       1  LIG1        0.0626
     33 H          -9.6088   -6.0182    0.3437 H       1  LIG1        0.0642
     34 H          -1.3830    2.6465   -3.1279 H       1  LIG1        0.0638
     35 H          -1.5180   -1.5808   -3.9780 H       1  LIG1        0.0638
     36 H         -10.4685   -1.0013    2.3975 H       1  LIG1        0.0651
     37 H          -5.9579    1.1246    2.6660 H       1  LIG1        0.0865
     38 H         -15.6389   -2.8139    4.7209 H       1  LIG1        0.0777
     39 H         -16.1093   -1.0805    4.6018 H       1  LIG1        0.0777
     40 H         -15.5070   -1.9520    3.1463 H       1  LIG1        0.0777
     41 H         -14.0425   -2.1191    6.5808 H       1  LIG1        0.0777
     42 H         -12.8684   -0.8030    6.2207 H       1  LIG1        0.0777
     43 H         -14.6274   -0.4356    6.3286 H       1  LIG1        0.0777
     44 H          -5.4796    1.1309   -1.4273 H       1  LIG1        0.0320
     45 H          -5.5568   -0.5854   -1.7541 H       1  LIG1        0.0320
     46 H         -13.0830   -1.6072    2.0845 H       1  LIG1        0.0370
     47 H         -14.1850   -2.9435    2.3275 H       1  LIG1        0.0370
     48 H          -4.0336    0.7237    0.5710 H       1  LIG1        0.0341
     49 H          -3.9552   -0.9890    0.2265 H       1  LIG1        0.0341
     50 H         -12.0387   -1.9939    4.3153 H       1  LIG1        0.0818
     51 H         -13.1613   -3.3478    4.6209 H       1  LIG1        0.0818
     52 H          -7.8767   -3.8237    0.6655 H       1  LIG1        0.1529
     53 H         -13.8664   -0.5476    4.0976 H       1  LIG1        0.1997
@<TRIPOS>BOND
     1     1     2   ar
     2     1     5   ar
     3     2    12   ar
     4     3     6   ar
     5     3    11   ar
     6     4     7   ar
     7     4    11   ar
     8     5    13   ar
     9     6    14   ar
    10     7    14   ar
    11     8    10   ar
    12     8    15   ar
    13     9    16   ar
    14     9    24   ar
    15    10    12   ar
    16    10    13   ar
    17    11    20    1
    18    12    21    1
    19    13    25   ar
    20    14    28    1
    21    15    17    1
    22    15    25   ar
    23    16    22    1
    24    16    27   ar
    25    17    24   ar
    26    17    27   ar
    27    18    26    1
    28    19    26    1
    29    20    22    1
    30    21    23    1
    31    23    26    1
    32     1    29    1
    33     2    30    1
    34     3    31    1
    35     4    32    1
    36     5    33    1
    37     6    34    1
    38     7    35    1
    39     8    36    1
    40     9    37    1
    41    18    38    1
    42    18    39    1
    43    18    40    1
    44    19    41    1
    45    19    42    1
    46    19    43    1
    47    20    44    1
    48    20    45    1
    49    21    46    1
    50    21    47    1
    51    22    48    1
    52    22    49    1
    53    23    50    1
    54    23    51    1
    55    25    52    1
    56    26    53    1
