@<TRIPOS>MOLECULE
ChEBML204315
 67 71 0 0 0
SMALL
USER_CHARGES

@<TRIPOS>ATOM
      1 C          -2.1366   -2.6611   -5.3615 C.ar    1  LIG1       -0.0418
      2 C         -10.0564   -5.4816    1.3416 C.ar    1  LIG1       -0.0383
      3 C          -1.5862   -2.3537   -4.1222 C.ar    1  LIG1       -0.0360
      4 C         -11.3779   -5.9336    1.3989 C.ar    1  LIG1       -0.0377
      5 C         -12.1984   -3.6712    1.7232 C.ar    1  LIG1       -0.0304
      6 C         -10.2820   -1.9021    1.7668 C.ar    1  LIG1       -0.0261
      7 C          -3.4548   -3.0861   -5.3981 C.ar    1  LIG1        0.0292
      8 C         -10.8744   -3.1922    1.6689 C.ar    1  LIG1       -0.0003
      9 C          -9.8360   -4.1066    1.4797 C.ar    1  LIG1        0.0379
     10 C         -12.4339   -5.0440    1.5867 C.ar    1  LIG1        0.0437
     11 C          -2.3598   -2.4788   -2.9737 C.ar    1  LIG1        0.0670
     12 C          -8.9209   -2.0554    1.6379 C.ar    1  LIG1        0.0947
     13 C          -3.6682   -2.9119   -3.1173 C.ar    1  LIG1        0.1411
     14 C          -7.9047   -1.0445    1.6694 C.2     1  LIG1        0.2598
     15 C           1.0120   -0.5610    0.2278 C.3     1  LIG1       -0.0486
     16 C          -0.3889   -0.0597    0.4228 C.3     1  LIG1       -0.0486
     17 C          -4.7978   -1.5285   -0.0648 C.3     1  LIG1       -0.0185
     18 C          -6.7385   -2.3105   -1.4883 C.3     1  LIG1       -0.0185
     19 C          -5.7191   -0.4761    0.5506 C.3     1  LIG1        0.0162
     20 C          -7.6167   -1.2509   -0.8211 C.3     1  LIG1        0.0162
     21 C          -0.1542   -1.4393   -0.1190 C.3     1  LIG1       -0.0258
     22 C          -5.2505   -1.9369   -1.4724 C.3     1  LIG1        0.0268
     23 C          -4.4758   -4.3006   -1.2253 C.3     1  LIG1        0.0018
     24 C         -14.2697   -6.4075   -0.8511 C.3     1  LIG1        0.0225
     25 C          -0.4553   -1.7192   -1.5521 C.3     1  LIG1        0.0113
     26 N          -4.2376   -3.2199   -4.3041 N.ar    1  LIG1       -0.2394
     27 N          -8.6615   -3.3886    1.4649 N.ar    1  LIG1       -0.3101
     28 N          -7.1162   -0.9294    0.5165 N.am    1  LIG1       -0.2966
     29 N          -1.8048   -2.1681   -1.7183 N.pl3   1  LIG1       -0.3413
     30 N         -13.7736   -5.5374    1.6405 N.pl3   1  LIG1       -0.2633
     31 N          -4.4536   -3.0415   -1.9667 N.pl3   1  LIG1       -0.3142
     32 O          -7.7599   -0.3365    2.6645 O.2     1  LIG1       -0.2702
     33 O         -16.1743   -5.5520    0.7007 O.2     1  LIG1       -0.4814
     34 O         -14.5397   -3.8789   -0.2340 O.2     1  LIG1       -0.4814
     35 S         -14.8221   -5.1881    0.3202 S.O2    1  LIG1       -0.1957
     36 H          -1.5523   -2.5709   -6.2700 H       1  LIG1        0.0639
     37 H          -9.2348   -6.1749    1.1953 H       1  LIG1        0.0643
     38 H          -0.5543   -2.0178   -4.0642 H       1  LIG1        0.0644
     39 H         -11.5723   -6.9989    1.2941 H       1  LIG1        0.0643
     40 H         -13.0242   -2.9797    1.8696 H       1  LIG1        0.0650
     41 H         -10.8005   -0.9642    1.9158 H       1  LIG1        0.0651
     42 H          -3.9316   -3.3388   -6.3396 H       1  LIG1        0.0840
     43 H           1.5884   -0.1426   -0.5883 H       1  LIG1        0.0270
     44 H           1.5913   -0.7939    1.1129 H       1  LIG1        0.0270
     45 H          -0.7491    0.0444    1.4389 H       1  LIG1        0.0270
     46 H          -0.7535    0.6961   -0.2620 H       1  LIG1        0.0270
     47 H          -3.7697   -1.1484   -0.0870 H       1  LIG1        0.0302
     48 H          -4.8004   -2.4191    0.5769 H       1  LIG1        0.0302
     49 H          -6.8641   -3.2580   -0.9481 H       1  LIG1        0.0302
     50 H          -7.0834   -2.4781   -2.5155 H       1  LIG1        0.0302
     51 H          -5.3896   -0.2644    1.5709 H       1  LIG1        0.0470
     52 H          -5.6675    0.4686   -0.0025 H       1  LIG1        0.0470
     53 H          -7.6184   -0.3224   -1.4037 H       1  LIG1        0.0470
     54 H          -8.6508   -1.6068   -0.7746 H       1  LIG1        0.0470
     55 H          -0.3681   -2.2844    0.5212 H       1  LIG1        0.0319
     56 H          -5.0931   -1.0898   -2.1500 H       1  LIG1        0.0506
     57 H          -5.1402   -4.2162   -0.3615 H       1  LIG1        0.0432
     58 H          -3.4710   -4.5499   -0.8735 H       1  LIG1        0.0432
     59 H          -4.8335   -5.1106   -1.8667 H       1  LIG1        0.0432
     60 H         -14.8611   -6.3027   -1.7621 H       1  LIG1        0.0442
     61 H         -13.2132   -6.2317   -1.0589 H       1  LIG1        0.0442
     62 H         -14.4142   -7.3962   -0.4129 H       1  LIG1        0.0442
     63 H           0.2064   -2.5010   -1.9373 H       1  LIG1        0.0468
     64 H          -0.3267   -0.8181   -2.1588 H       1  LIG1        0.0468
     65 H          -7.7423   -3.7911    1.3438 H       1  LIG1        0.1529
     66 H          -2.3992   -2.2742   -0.9164 H       1  LIG1        0.1466
     67 H         -13.8566   -6.4971    2.0141 H       1  LIG1        0.1702
@<TRIPOS>BOND
     1     1     3   ar
     2     1     7   ar
     3     2     4   ar
     4     2     9   ar
     5     3    11   ar
     6     4    10   ar
     7     5     8   ar
     8     5    10   ar
     9     6     8   ar
    10     6    12   ar
    11     7    26   ar
    12     8     9   ar
    13     9    27   ar
    14    10    30    1
    15    11    13   ar
    16    11    29    1
    17    12    14    1
    18    12    27   ar
    19    13    26   ar
    20    13    31    1
    21    14    28   am
    22    14    32    2
    23    15    16    1
    24    15    21    1
    25    16    21    1
    26    17    19    1
    27    17    22    1
    28    18    20    1
    29    18    22    1
    30    19    28    1
    31    20    28    1
    32    21    25    1
    33    22    31    1
    34    23    31    1
    35    24    35    1
    36    25    29    1
    37    30    35    1
    38    33    35    2
    39    34    35    2
    40     1    36    1
    41     2    37    1
    42     3    38    1
    43     4    39    1
    44     5    40    1
    45     6    41    1
    46     7    42    1
    47    15    43    1
    48    15    44    1
    49    16    45    1
    50    16    46    1
    51    17    47    1
    52    17    48    1
    53    18    49    1
    54    18    50    1
    55    19    51    1
    56    19    52    1
    57    20    53    1
    58    20    54    1
    59    21    55    1
    60    22    56    1
    61    23    57    1
    62    23    58    1
    63    23    59    1
    64    24    60    1
    65    24    61    1
    66    24    62    1
    67    25    63    1
    68    25    64    1
    69    27    65    1
    70    29    66    1
    71    30    67    1
