@<TRIPOS>MOLECULE
ChEBML406370
 38 40 0 0 0
SMALL
USER_CHARGES

@<TRIPOS>ATOM
      1 C          -2.8353    1.6300   -2.6008 C.ar    1  LIG1       -0.0589
      2 C          -9.9152   -1.6762    1.6285 C.ar    1  LIG1       -0.0468
      3 C          -8.2740   -3.4464    1.5313 C.ar    1  LIG1       -0.0468
      4 C          -3.4270    1.0536   -1.4943 C.ar    1  LIG1       -0.0408
      5 C         -10.9076   -2.5881    1.3394 C.ar    1  LIG1       -0.0255
      6 C          -9.2748   -4.3509    1.2479 C.ar    1  LIG1       -0.0255
      7 C          -2.3562    0.8334   -3.6247 C.ar    1  LIG1       -0.0434
      8 C          -3.0538   -1.1268   -2.4361 C.ar    1  LIG1       -0.0222
      9 C          -8.5882   -2.0999    1.7268 C.ar    1  LIG1        0.0374
     10 C          -3.5407   -0.3285   -1.4094 C.ar    1  LIG1        0.0301
     11 C         -10.5901   -3.9239    1.1457 C.ar    1  LIG1        0.1228
     12 C          -2.4675   -0.5436   -3.5438 C.ar    1  LIG1        0.0424
     13 C          -7.5205   -1.1269    2.0359 C.2     1  LIG1        0.2456
     14 C          -4.5401    0.1838    0.5957 C.3     1  LIG1        0.0274
     15 C          -5.3642   -1.5687   -0.7622 C.3     1  LIG1        0.0274
     16 C          -5.1849   -0.3889    1.8620 C.3     1  LIG1        0.0302
     17 C          -6.0618   -2.2611    0.4188 C.3     1  LIG1        0.0302
     18 N          -4.1384   -0.9141   -0.2910 N.pl3   1  LIG1       -0.3276
     19 N          -6.3075   -1.2523    1.4618 N.am    1  LIG1       -0.2947
     20 O          -7.7358   -0.2131    2.8083 O.2     1  LIG1       -0.2716
     21 F         -11.5664   -4.8135    0.8621 F       1  LIG1       -0.2069
     22 CL         -1.8651   -1.5396   -4.8318 Cl      1  LIG1       -0.0842
     23 H          -2.7468    2.7043   -2.6669 H       1  LIG1        0.0624
     24 H         -10.1636   -0.6359    1.7783 H       1  LIG1        0.0632
     25 H          -7.2493   -3.7792    1.6060 H       1  LIG1        0.0632
     26 H          -3.8015    1.6768   -0.6956 H       1  LIG1        0.0642
     27 H         -11.9341   -2.2616    1.2631 H       1  LIG1        0.0653
     28 H          -9.0335   -5.3932    1.1005 H       1  LIG1        0.0653
     29 H          -1.8944    1.2869   -4.4893 H       1  LIG1        0.0638
     30 H          -3.1366   -2.2016   -2.3709 H       1  LIG1        0.0658
     31 H          -5.2572    0.8228    0.0804 H       1  LIG1        0.0485
     32 H          -3.6625    0.7698    0.8685 H       1  LIG1        0.0485
     33 H          -6.0309   -0.8226   -1.1947 H       1  LIG1        0.0485
     34 H          -5.1113   -2.3112   -1.5190 H       1  LIG1        0.0485
     35 H          -5.5526    0.4250    2.4871 H       1  LIG1        0.0486
     36 H          -4.4507   -0.9744    2.4153 H       1  LIG1        0.0486
     37 H          -5.4230   -3.0505    0.8148 H       1  LIG1        0.0486
     38 H          -7.0096   -2.6862    0.0886 H       1  LIG1        0.0486
@<TRIPOS>BOND
     1     1     4   ar
     2     1     7   ar
     3     2     5   ar
     4     2     9   ar
     5     3     6   ar
     6     3     9   ar
     7     4    10   ar
     8     5    11   ar
     9     6    11   ar
    10     7    12   ar
    11     8    10   ar
    12     8    12   ar
    13     9    13    1
    14    10    18    1
    15    11    21    1
    16    12    22    1
    17    13    19   am
    18    13    20    2
    19    14    16    1
    20    14    18    1
    21    15    17    1
    22    15    18    1
    23    16    19    1
    24    17    19    1
    25     1    23    1
    26     2    24    1
    27     3    25    1
    28     4    26    1
    29     5    27    1
    30     6    28    1
    31     7    29    1
    32     8    30    1
    33    14    31    1
    34    14    32    1
    35    15    33    1
    36    15    34    1
    37    16    35    1
    38    16    36    1
    39    17    37    1
    40    17    38    1
