@<TRIPOS>MOLECULE
ChEBML1266653
 46 49 0 0 0
SMALL
USER_CHARGES

@<TRIPOS>ATOM
      1 C          -4.9110    0.5864   -2.1127 C.ar    1  LIG1       -0.0593
      2 C         -12.0824   -3.5080    1.9590 C.ar    1  LIG1       -0.0524
      3 C         -12.5404   -4.7068    1.4003 C.ar    1  LIG1       -0.0536
      4 C          -5.3769    0.2070   -0.8539 C.ar    1  LIG1       -0.0573
      5 C          -3.6589    0.1560   -2.5518 C.ar    1  LIG1       -0.0318
      6 C         -13.5199   -6.8641   -0.2755 C.ar    1  LIG1       -0.0359
      7 C         -11.3327   -7.8438   -0.0731 C.ar    1  LIG1       -0.0359
      8 C          -9.9534   -2.0171    2.1806 C.ar    1  LIG1       -0.0262
      9 C         -10.3464   -5.1708    0.4644 C.ar    1  LIG1       -0.0323
     10 C          -3.3386   -1.0329   -0.4731 C.ar    1  LIG1       -0.0270
     11 C         -13.9496   -8.0666   -0.8134 C.ar    1  LIG1        0.0274
     12 C         -11.8603   -9.0024   -0.6199 C.ar    1  LIG1        0.0274
     13 C         -10.7378   -3.1312    1.7702 C.ar    1  LIG1       -0.0022
     14 C         -11.6840   -5.5238    0.6649 C.ar    1  LIG1       -0.0164
     15 C         -12.1851   -6.7588    0.0991 C.ar    1  LIG1       -0.0153
     16 C          -4.5907   -0.6025   -0.0341 C.ar    1  LIG1       -0.0282
     17 C          -9.9026   -3.9696    1.0288 C.ar    1  LIG1        0.0384
     18 C          -2.8726   -0.6536   -1.7320 C.ar    1  LIG1        0.0749
     19 C          -8.6808   -2.1975    1.6898 C.ar    1  LIG1        0.0945
     20 C          -7.5433   -1.3464    1.8412 C.2     1  LIG1        0.2575
     21 C          -1.2372   -0.6496   -3.4585 C.3     1  LIG1        0.0422
     22 C          -5.0921   -1.0104    1.3210 C.3     1  LIG1        0.0367
     23 N         -13.1513   -9.1424   -0.9959 N.ar    1  LIG1       -0.2646
     24 N          -8.6600   -3.3778    0.9962 N.ar    1  LIG1       -0.3101
     25 N          -6.3317   -1.7491    1.2393 N.am    1  LIG1       -0.3061
     26 O          -7.6039   -0.2807    2.5050 O.2     1  LIG1       -0.2704
     27 O          -1.6512   -1.0741   -2.1608 O.3     1  LIG1       -0.3493
     28 H          -5.5233    1.2163   -2.7510 H       1  LIG1        0.0624
     29 H         -12.7606   -2.8805    2.5301 H       1  LIG1        0.0630
     30 H         -13.5804   -4.9886    1.5520 H       1  LIG1        0.0629
     31 H          -6.3535    0.5476   -0.5203 H       1  LIG1        0.0626
     32 H          -3.3017    0.4549   -3.5333 H       1  LIG1        0.0650
     33 H         -14.2151   -6.0391   -0.1577 H       1  LIG1        0.0645
     34 H         -10.2854   -7.7985    0.2079 H       1  LIG1        0.0645
     35 H         -10.2886   -1.1757    2.7724 H       1  LIG1        0.0651
     36 H          -9.6689   -5.7989   -0.1065 H       1  LIG1        0.0649
     37 H          -2.7233   -1.6640    0.1640 H       1  LIG1        0.0654
     38 H         -14.9811   -8.1993   -1.1232 H       1  LIG1        0.0840
     39 H         -11.2374   -9.8772   -0.7738 H       1  LIG1        0.0840
     40 H          -0.2460   -1.0548   -3.6763 H       1  LIG1        0.0535
     41 H          -1.2122    0.4424   -3.4949 H       1  LIG1        0.0535
     42 H          -1.9505   -1.0207   -4.1982 H       1  LIG1        0.0535
     43 H          -4.3564   -1.6416    1.8311 H       1  LIG1        0.0518
     44 H          -5.2654   -0.1350    1.9558 H       1  LIG1        0.0518
     45 H          -7.8512   -3.7627    0.5279 H       1  LIG1        0.1529
     46 H          -6.3041   -2.6459    0.7651 H       1  LIG1        0.1501
@<TRIPOS>BOND
     1     1     4   ar
     2     1     5   ar
     3     2     3   ar
     4     2    13   ar
     5     3    14   ar
     6     4    16   ar
     7     5    18   ar
     8     6    11   ar
     9     6    15   ar
    10     7    12   ar
    11     7    15   ar
    12     8    13   ar
    13     8    19   ar
    14     9    14   ar
    15     9    17   ar
    16    10    16   ar
    17    10    18   ar
    18    11    23   ar
    19    12    23   ar
    20    13    17   ar
    21    14    15    1
    22    16    22    1
    23    17    24   ar
    24    18    27    1
    25    19    20    1
    26    19    24   ar
    27    20    25   am
    28    20    26    2
    29    21    27    1
    30    22    25    1
    31     1    28    1
    32     2    29    1
    33     3    30    1
    34     4    31    1
    35     5    32    1
    36     6    33    1
    37     7    34    1
    38     8    35    1
    39     9    36    1
    40    10    37    1
    41    11    38    1
    42    12    39    1
    43    21    40    1
    44    21    41    1
    45    21    42    1
    46    22    43    1
    47    22    44    1
    48    24    45    1
    49    25    46    1
