@<TRIPOS>MOLECULE
ChEBML311621
 41 43 0 0 0
SMALL
USER_CHARGES

@<TRIPOS>ATOM
      1 C          -2.0489    0.0241   -3.3667 C.ar    1  LIG1       -0.0385
      2 C         -12.0119   -3.7747    1.9882 C.ar    1  LIG1       -0.0482
      3 C         -11.4323   -5.6862    0.6291 C.ar    1  LIG1       -0.0482
      4 C         -10.7239   -3.2656    1.8216 C.ar    1  LIG1       -0.0401
      5 C         -10.1444   -5.1771    0.4625 C.ar    1  LIG1       -0.0401
      6 C          -2.9466   -0.6764   -2.5802 C.ar    1  LIG1       -0.0182
      7 C          -2.1559    1.4000   -3.3999 C.ar    1  LIG1        0.0497
      8 C         -12.3660   -4.9850    1.3921 C.ar    1  LIG1        0.0556
      9 C          -9.7902   -3.9669    1.0587 C.ar    1  LIG1        0.0340
     10 C          -3.8914    0.0453   -1.8789 C.ar    1  LIG1        0.1429
     11 C          -8.2549   -2.0892    0.9723 C.2     1  LIG1        0.3050
     12 C          -5.3174   -0.0107    0.1048 C.3     1  LIG1        0.0289
     13 C          -5.5618   -1.7214   -1.7202 C.3     1  LIG1        0.0289
     14 C          -6.8276   -0.2169    0.1995 C.3     1  LIG1        0.0315
     15 C          -6.3538   -2.4976   -0.6670 C.3     1  LIG1        0.0315
     16 C         -13.7431   -5.5292    1.5703 C.3     1  LIG1        0.4160
     17 N          -3.0907    2.0802   -2.7031 N.ar    1  LIG1       -0.1572
     18 N          -3.9726    1.3917   -1.9300 N.ar    1  LIG1       -0.1353
     19 N          -4.7808   -0.6491   -1.1002 N.pl3   1  LIG1       -0.3112
     20 N          -7.1800   -1.6351    0.1849 N.am    1  LIG1       -0.2824
     21 N          -8.4979   -3.4562    0.8910 N.am    1  LIG1       -0.2691
     22 O          -8.9251   -1.3359    1.6860 O.2     1  LIG1       -0.2537
     23 F         -14.5488   -4.7387    2.3397 F       1  LIG1       -0.1661
     24 F         -14.4221   -5.6939    0.3966 F       1  LIG1       -0.1661
     25 F         -13.7498   -6.7542    2.1722 F       1  LIG1       -0.1661
     26 H          -1.2853   -0.4912   -3.9377 H       1  LIG1        0.0641
     27 H         -12.7324   -3.2227    2.5861 H       1  LIG1        0.0629
     28 H         -11.6994   -6.6303    0.1616 H       1  LIG1        0.0629
     29 H         -10.4590   -2.3213    2.2905 H       1  LIG1        0.0642
     30 H          -9.4242   -5.7324   -0.1332 H       1  LIG1        0.0642
     31 H          -2.8971   -1.7589   -2.5261 H       1  LIG1        0.0660
     32 H          -1.4833    2.0055   -3.9962 H       1  LIG1        0.0859
     33 H          -5.1030    1.0652    0.1094 H       1  LIG1        0.0485
     34 H          -4.8221   -0.4477    0.9801 H       1  LIG1        0.0485
     35 H          -4.8986   -2.4131   -2.2534 H       1  LIG1        0.0485
     36 H          -6.2519   -1.2886   -2.4557 H       1  LIG1        0.0485
     37 H          -7.2117    0.2585    1.1081 H       1  LIG1        0.0486
     38 H          -7.3358    0.2484   -0.6540 H       1  LIG1        0.0486
     39 H          -6.9910   -3.2341   -1.1676 H       1  LIG1        0.0486
     40 H          -5.6705   -3.0387   -0.0013 H       1  LIG1        0.0486
     41 H          -7.7514   -4.1300    0.7656 H       1  LIG1        0.1573
@<TRIPOS>BOND
     1     1     6   ar
     2     1     7   ar
     3     2     4   ar
     4     2     8   ar
     5     3     5   ar
     6     3     8   ar
     7     4     9   ar
     8     5     9   ar
     9     6    10   ar
    10     7    17   ar
    11     8    16    1
    12     9    21    1
    13    10    18   ar
    14    10    19    1
    15    11    20   am
    16    11    21   am
    17    11    22    2
    18    12    14    1
    19    12    19    1
    20    13    15    1
    21    13    19    1
    22    14    20    1
    23    15    20    1
    24    16    23    1
    25    16    24    1
    26    16    25    1
    27    17    18   ar
    28     1    26    1
    29     2    27    1
    30     3    28    1
    31     4    29    1
    32     5    30    1
    33     6    31    1
    34     7    32    1
    35    12    33    1
    36    12    34    1
    37    13    35    1
    38    13    36    1
    39    14    37    1
    40    14    38    1
    41    15    39    1
    42    15    40    1
    43    21    41    1
