@<TRIPOS>MOLECULE
ChEBML248975
 48 51 0 0 0
SMALL
USER_CHARGES

@<TRIPOS>ATOM
      1 C         -12.4431   -4.6325    1.0564 C.ar    1  LIG1       -0.0615
      2 C         -11.5121   -5.5635    0.6127 C.ar    1  LIG1       -0.0603
      3 C          -2.4996    0.5148   -3.8421 C.ar    1  LIG1       -0.0411
      4 C         -12.0428   -3.4039    1.4943 C.ar    1  LIG1       -0.0530
      5 C         -10.1684   -5.2641    0.6064 C.ar    1  LIG1       -0.0402
      6 C          -1.8292    0.6467   -2.6334 C.ar    1  LIG1       -0.0267
      7 C          -9.9613   -1.9169    1.8793 C.ar    1  LIG1       -0.0262
      8 C          -3.7084   -0.1504   -3.8766 C.ar    1  LIG1        0.0293
      9 C         -10.6809   -3.0748    1.4973 C.ar    1  LIG1       -0.0022
     10 C          -9.7352   -4.0166    1.0475 C.ar    1  LIG1        0.0378
     11 C          -2.4042    0.1003   -1.4956 C.ar    1  LIG1        0.1152
     12 C          -8.6418   -2.1606    1.6652 C.ar    1  LIG1        0.0947
     13 C          -3.6267   -0.5635   -1.6072 C.ar    1  LIG1        0.1506
     14 C          -7.5464   -1.2160    1.9307 C.2     1  LIG1        0.2599
     15 C          -4.5601   -0.0085    0.4144 C.3     1  LIG1        0.0289
     16 C          -5.4717   -1.7394   -0.9149 C.3     1  LIG1        0.0289
     17 C          -5.1933   -0.5543    1.6984 C.3     1  LIG1        0.0303
     18 C          -6.1650   -2.3995    0.2813 C.3     1  LIG1        0.0303
     19 C           0.1795    1.0833    0.8130 C.3     1  LIG1       -0.0410
     20 C          -0.5717    0.9297   -0.5111 C.3     1  LIG1        0.0507
     21 N          -4.2339   -0.6613   -2.7786 N.ar    1  LIG1       -0.2386
     22 N          -8.4939   -3.4350    1.1529 N.ar    1  LIG1       -0.3101
     23 N          -4.2148   -1.1227   -0.4757 N.pl3   1  LIG1       -0.3105
     24 N          -6.3521   -1.3828    1.3288 N.am    1  LIG1       -0.2936
     25 O          -7.7182   -0.2841    2.6934 O.2     1  LIG1       -0.2701
     26 O          -1.7831    0.2048   -0.2900 O.3     1  LIG1       -0.3427
     27 H         -13.4935   -4.8840    1.0551 H       1  LIG1        0.0623
     28 H         -11.8458   -6.5317    0.2697 H       1  LIG1        0.0623
     29 H          -2.0794    0.9291   -4.7467 H       1  LIG1        0.0640
     30 H         -12.7738   -2.6870    1.8381 H       1  LIG1        0.0629
     31 H          -9.4524   -5.9948    0.2601 H       1  LIG1        0.0642
     32 H          -0.8821    1.1630   -2.5803 H       1  LIG1        0.0652
     33 H         -10.3850   -1.0038    2.2705 H       1  LIG1        0.0651
     34 H          -4.2320   -0.2541   -4.8154 H       1  LIG1        0.0840
     35 H          -3.6579    0.5501    0.6637 H       1  LIG1        0.0485
     36 H          -5.2680    0.6511   -0.0874 H       1  LIG1        0.0485
     37 H          -6.1240   -0.9741   -1.3355 H       1  LIG1        0.0485
     38 H          -5.2606   -2.4932   -1.6734 H       1  LIG1        0.0485
     39 H          -4.4655   -1.1608    2.2374 H       1  LIG1        0.0486
     40 H          -5.5198    0.2738    2.3274 H       1  LIG1        0.0486
     41 H          -5.5449   -3.2104    0.6634 H       1  LIG1        0.0486
     42 H          -7.1342   -2.7918   -0.0267 H       1  LIG1        0.0486
     43 H           0.4141    0.0974    1.2142 H       1  LIG1        0.0254
     44 H           1.1036    1.6362    0.6444 H       1  LIG1        0.0254
     45 H          -0.4439    1.6259    1.5237 H       1  LIG1        0.0254
     46 H          -0.8063    1.9157   -0.9122 H       1  LIG1        0.0569
     47 H           0.0519    0.3872   -1.2217 H       1  LIG1        0.0569
     48 H          -7.6525   -3.8518    0.9098 H       1  LIG1        0.1529
@<TRIPOS>BOND
     1     1     2   ar
     2     1     4   ar
     3     2     5   ar
     4     3     6   ar
     5     3     8   ar
     6     4     9   ar
     7     5    10   ar
     8     6    11   ar
     9     7     9   ar
    10     7    12   ar
    11     8    21   ar
    12     9    10   ar
    13    10    22   ar
    14    11    13   ar
    15    11    26    1
    16    12    14    1
    17    12    22   ar
    18    13    21   ar
    19    13    23    1
    20    14    24   am
    21    14    25    2
    22    15    17    1
    23    15    23    1
    24    16    18    1
    25    16    23    1
    26    17    24    1
    27    18    24    1
    28    19    20    1
    29    20    26    1
    30     1    27    1
    31     2    28    1
    32     3    29    1
    33     4    30    1
    34     5    31    1
    35     6    32    1
    36     7    33    1
    37     8    34    1
    38    15    35    1
    39    15    36    1
    40    16    37    1
    41    16    38    1
    42    17    39    1
    43    17    40    1
    44    18    41    1
    45    18    42    1
    46    19    43    1
    47    19    44    1
    48    19    45    1
    49    20    46    1
    50    20    47    1
    51    22    48    1
