@<TRIPOS>MOLECULE
ChEBML296855
 45 47 0 0 0
SMALL
USER_CHARGES

@<TRIPOS>ATOM
      1 C          -2.2250    0.9423   -3.4710 C.ar    1  LIG1       -0.0431
      2 C          -1.9720   -0.4017   -3.2200 C.ar    1  LIG1       -0.0449
      3 C         -11.6361   -5.3543    0.8038 C.ar    1  LIG1       -0.0482
      4 C         -11.9818   -2.9667    0.9345 C.ar    1  LIG1       -0.0482
      5 C         -10.2698   -5.1680    1.0143 C.ar    1  LIG1       -0.0401
      6 C         -10.6155   -2.7804    1.1450 C.ar    1  LIG1       -0.0401
      7 C          -3.3164    1.5244   -2.8468 C.ar    1  LIG1        0.0291
      8 C         -12.4921   -4.2536    0.7639 C.ar    1  LIG1        0.0556
      9 C          -2.8064   -1.1123   -2.3644 C.ar    1  LIG1        0.0957
     10 C          -9.7596   -3.8811    1.1850 C.ar    1  LIG1        0.0340
     11 C          -3.8717   -0.4382   -1.7895 C.ar    1  LIG1        0.1323
     12 C          -7.8714   -2.4264    1.6420 C.2     1  LIG1        0.3050
     13 C          -4.8326   -0.6853    0.4437 C.3     1  LIG1        0.0288
     14 C          -5.7843   -1.9243   -1.5251 C.3     1  LIG1        0.0288
     15 C          -6.2998   -0.6743    0.8673 C.3     1  LIG1        0.0315
     16 C          -6.4740   -2.7717   -0.4548 C.3     1  LIG1        0.0315
     17 C         -13.9529   -4.4529    0.5389 C.3     1  LIG1        0.4160
     18 C          -2.5316   -2.5533   -2.0977 C.3     1  LIG1        0.4193
     19 N          -4.1493    0.8665   -2.0094 N.ar    1  LIG1       -0.2408
     20 N          -4.6963   -1.1349   -0.9444 N.pl3   1  LIG1       -0.3122
     21 N          -6.9180   -1.9883    0.7035 N.am    1  LIG1       -0.2824
     22 N          -8.3887   -3.6938    1.3963 N.am    1  LIG1       -0.2691
     23 O          -8.2163   -1.7438    2.6121 O.2     1  LIG1       -0.2537
     24 F         -14.3100   -5.7629    0.3886 F       1  LIG1       -0.1661
     25 F         -14.7320   -3.9864    1.5593 F       1  LIG1       -0.1661
     26 F         -14.4024   -3.8200   -0.5838 F       1  LIG1       -0.1661
     27 F          -1.4362   -3.0336   -2.7580 F       1  LIG1       -0.1660
     28 F          -2.3028   -2.8320   -0.7801 F       1  LIG1       -0.1660
     29 F          -3.5661   -3.3631   -2.4685 F       1  LIG1       -0.1660
     30 H          -1.5877    1.5160   -4.1341 H       1  LIG1        0.0639
     31 H          -1.1232   -0.8855   -3.6954 H       1  LIG1        0.0631
     32 H         -12.0248   -6.3604    0.6696 H       1  LIG1        0.0629
     33 H         -12.6415   -2.1034    0.9042 H       1  LIG1        0.0629
     34 H          -9.6121   -6.0330    1.0440 H       1  LIG1        0.0642
     35 H         -10.2283   -1.7730    1.2757 H       1  LIG1        0.0642
     36 H          -3.5579    2.5697   -3.0099 H       1  LIG1        0.0840
     37 H          -4.4157    0.3210    0.5746 H       1  LIG1        0.0485
     38 H          -4.2600   -1.3639    1.0871 H       1  LIG1        0.0485
     39 H          -5.3963   -2.5835   -2.3108 H       1  LIG1        0.0485
     40 H          -6.5151   -1.2489   -1.9882 H       1  LIG1        0.0485
     41 H          -6.3842   -0.3442    1.9080 H       1  LIG1        0.0486
     42 H          -6.8746    0.0291    0.2525 H       1  LIG1        0.0486
     43 H          -7.3336   -3.2831   -0.9006 H       1  LIG1        0.0486
     44 H          -5.7857   -3.5362   -0.0747 H       1  LIG1        0.0486
     45 H          -7.8102   -4.5256    1.4169 H       1  LIG1        0.1573
@<TRIPOS>BOND
     1     1     2   ar
     2     1     7   ar
     3     2     9   ar
     4     3     5   ar
     5     3     8   ar
     6     4     6   ar
     7     4     8   ar
     8     5    10   ar
     9     6    10   ar
    10     7    19   ar
    11     8    17    1
    12     9    11   ar
    13     9    18    1
    14    10    22    1
    15    11    19   ar
    16    11    20    1
    17    12    21   am
    18    12    22   am
    19    12    23    2
    20    13    15    1
    21    13    20    1
    22    14    16    1
    23    14    20    1
    24    15    21    1
    25    16    21    1
    26    17    24    1
    27    17    25    1
    28    17    26    1
    29    18    27    1
    30    18    28    1
    31    18    29    1
    32     1    30    1
    33     2    31    1
    34     3    32    1
    35     4    33    1
    36     5    34    1
    37     6    35    1
    38     7    36    1
    39    13    37    1
    40    13    38    1
    41    14    39    1
    42    14    40    1
    43    15    41    1
    44    15    42    1
    45    16    43    1
    46    16    44    1
    47    22    45    1
