@<TRIPOS>MOLECULE
ChEBML300243
 44 46 0 0 0
SMALL
USER_CHARGES

@<TRIPOS>ATOM
      1 C         -10.2869   -5.1759    0.6685 C.ar    1  LIG1       -0.0387
      2 C         -11.6226   -5.4807    0.9456 C.ar    1  LIG1       -0.0416
      3 C         -11.9552   -3.3221    2.0073 C.ar    1  LIG1       -0.0343
      4 C          -9.8004   -1.8520    1.9952 C.ar    1  LIG1       -0.0262
      5 C         -10.6117   -2.9927    1.7389 C.ar    1  LIG1       -0.0007
      6 C          -9.8101   -3.9253    1.0771 C.ar    1  LIG1        0.0379
      7 C         -12.4457   -4.5696    1.6045 C.ar    1  LIG1        0.0413
      8 C          -8.5454   -2.1095    1.4937 C.ar    1  LIG1        0.0945
      9 C          -7.3464   -1.2325    1.5146 C.2     1  LIG1        0.2576
     10 C          -4.8754   -0.1932   -0.3691 C.2     1  LIG1        0.2316
     11 C          -2.7063    1.5336   -2.5840 C.3     1  LIG1       -0.0107
     12 C          -2.4626   -0.9558   -2.8569 C.3     1  LIG1       -0.0107
     13 C          -2.2589    1.6609   -4.0366 C.3     1  LIG1        0.0484
     14 C          -2.0187   -0.6813   -4.2907 C.3     1  LIG1        0.0484
     15 C          -3.3425    0.1699   -2.3076 C.3     1  LIG1        0.0294
     16 C          -2.3927    0.0137   -0.0386 C.3     1  LIG1        0.0031
     17 C          -4.9527   -1.0350    0.8923 C.3     1  LIG1        0.0887
     18 N          -8.5611   -3.3623    0.9416 N.ar    1  LIG1       -0.3101
     19 N          -6.1957   -1.7511    0.9291 N.am    1  LIG1       -0.3013
     20 N          -3.5817   -0.0090   -0.8923 N.am    1  LIG1       -0.3004
     21 O          -7.4187   -0.1300    2.0509 O.2     1  LIG1       -0.2704
     22 O          -5.8961    0.2803   -0.8758 O.2     1  LIG1       -0.2756
     23 O          -1.3824    0.5919   -4.3906 O.3     1  LIG1       -0.3812
     24 CL        -14.0875   -4.9810    1.9268 Cl      1  LIG1       -0.0843
     25 H          -9.6469   -5.8865    0.1560 H       1  LIG1        0.0643
     26 H         -12.0103   -6.4488    0.6356 H       1  LIG1        0.0639
     27 H         -12.5958   -2.6107    2.5217 H       1  LIG1        0.0645
     28 H         -10.1063   -0.9417    2.4937 H       1  LIG1        0.0651
     29 H          -1.8225    1.6329   -1.9408 H       1  LIG1        0.0309
     30 H          -3.3914    2.3501   -2.3291 H       1  LIG1        0.0309
     31 H          -2.9742   -1.9233   -2.8008 H       1  LIG1        0.0309
     32 H          -1.5661   -1.0219   -2.2272 H       1  LIG1        0.0309
     33 H          -3.1135    1.6768   -4.7229 H       1  LIG1        0.0567
     34 H          -1.7109    2.5985   -4.1737 H       1  LIG1        0.0567
     35 H          -1.2958   -1.4405   -4.6063 H       1  LIG1        0.0567
     36 H          -2.8638   -0.7227   -4.9878 H       1  LIG1        0.0567
     37 H          -4.3300    0.1250   -2.7802 H       1  LIG1        0.0507
     38 H          -1.9882   -0.9960    0.0690 H       1  LIG1        0.0433
     39 H          -2.6466    0.3987    0.9528 H       1  LIG1        0.0433
     40 H          -1.6244    0.6559   -0.4777 H       1  LIG1        0.0433
     41 H          -4.1459   -1.7723    0.9069 H       1  LIG1        0.0567
     42 H          -4.9138   -0.3972    1.7791 H       1  LIG1        0.0567
     43 H          -7.7720   -3.8121    0.4982 H       1  LIG1        0.1529
     44 H          -6.2036   -2.7018    0.5609 H       1  LIG1        0.1503
@<TRIPOS>BOND
     1     1     2   ar
     2     1     6   ar
     3     2     7   ar
     4     3     5   ar
     5     3     7   ar
     6     4     5   ar
     7     4     8   ar
     8     5     6   ar
     9     6    18   ar
    10     7    24    1
    11     8     9    1
    12     8    18   ar
    13     9    19   am
    14     9    21    2
    15    10    17    1
    16    10    20   am
    17    10    22    2
    18    11    13    1
    19    11    15    1
    20    12    14    1
    21    12    15    1
    22    13    23    1
    23    14    23    1
    24    15    20    1
    25    16    20    1
    26    17    19    1
    27     1    25    1
    28     2    26    1
    29     3    27    1
    30     4    28    1
    31    11    29    1
    32    11    30    1
    33    12    31    1
    34    12    32    1
    35    13    33    1
    36    13    34    1
    37    14    35    1
    38    14    36    1
    39    15    37    1
    40    16    38    1
    41    16    39    1
    42    16    40    1
    43    17    41    1
    44    17    42    1
    45    18    43    1
    46    19    44    1
