@<TRIPOS>MOLECULE
ChEBML348291
 36 39 0 0 0
SMALL
USER_CHARGES

@<TRIPOS>ATOM
      1 C         -11.4605   -5.6367    0.7275 C.ar    1  LIG1       -0.0589
      2 C         -10.1294   -5.2338    0.5877 C.ar    1  LIG1       -0.0401
      3 C          -4.3258    0.6162   -1.6120 C.ar    1  LIG1       -0.0376
      4 C          -3.2089    0.0690   -2.2502 C.ar    1  LIG1       -0.0299
      5 C         -12.4127   -4.7887    1.2897 C.ar    1  LIG1       -0.0428
      6 C          -3.5019   -2.0394   -1.0817 C.ar    1  LIG1       -0.0226
      7 C          -5.5535   -2.0207    0.5293 C.ar    1  LIG1       -0.0275
      8 C         -10.0303   -1.8817    1.9291 C.ar    1  LIG1       -0.0261
      9 C          -4.6310   -1.5095   -0.4261 C.ar    1  LIG1        0.0003
     10 C         -10.7241   -3.0797    1.5999 C.ar    1  LIG1        0.0164
     11 C          -5.0161   -0.1966   -0.7058 C.ar    1  LIG1        0.0379
     12 C          -9.7914   -3.9507    1.0326 C.ar    1  LIG1        0.0393
     13 C          -2.8016   -1.2380   -1.9907 C.ar    1  LIG1        0.0753
     14 C         -12.0602   -3.5079    1.7304 C.ar    1  LIG1        0.0498
     15 C          -6.4635   -1.0266    0.8062 C.ar    1  LIG1        0.0811
     16 C          -8.7144   -2.0456    1.5625 C.ar    1  LIG1        0.0811
     17 C          -7.5755   -1.0672    1.7023 C.2     1  LIG1        0.2206
     18 C          -1.3422   -3.0866   -2.3208 C.3     1  LIG1        0.0422
     19 N          -6.1313    0.0696    0.0563 N.ar    1  LIG1       -0.3112
     20 N          -8.5801   -3.2965    1.0226 N.ar    1  LIG1       -0.3111
     21 O          -7.6608   -0.2750    2.6696 O.2     1  LIG1       -0.2856
     22 O          -1.7084   -1.7433   -2.6289 O.3     1  LIG1       -0.3493
     23 CL        -13.1781   -2.4277    2.4287 Cl      1  LIG1       -0.0836
     24 H         -11.7561   -6.6280    0.3935 H       1  LIG1        0.0624
     25 H          -9.3885   -5.8943    0.1499 H       1  LIG1        0.0642
     26 H          -4.6424    1.6337   -1.8149 H       1  LIG1        0.0643
     27 H          -2.6546    0.6797   -2.9592 H       1  LIG1        0.0651
     28 H         -13.4386   -5.1359    1.3853 H       1  LIG1        0.0638
     29 H          -3.1784   -3.0580   -0.8854 H       1  LIG1        0.0657
     30 H          -5.5480   -3.0110    0.9652 H       1  LIG1        0.0651
     31 H         -10.4458   -0.9926    2.3846 H       1  LIG1        0.0651
     32 H          -0.4561   -3.3645   -2.8965 H       1  LIG1        0.0535
     33 H          -2.1717   -3.7558   -2.5626 H       1  LIG1        0.0535
     34 H          -1.1180   -3.1582   -1.2539 H       1  LIG1        0.0535
     35 H          -6.6303    0.9486    0.0589 H       1  LIG1        0.1529
     36 H          -7.7179   -3.6868    0.6675 H       1  LIG1        0.1529
@<TRIPOS>BOND
     1     1     2   ar
     2     1     5   ar
     3     2    12   ar
     4     3     4   ar
     5     3    11   ar
     6     4    13   ar
     7     5    14   ar
     8     6     9   ar
     9     6    13   ar
    10     7     9   ar
    11     7    15   ar
    12     8    10   ar
    13     8    16   ar
    14     9    11   ar
    15    10    12   ar
    16    10    14   ar
    17    11    19   ar
    18    12    20   ar
    19    13    22    1
    20    14    23    1
    21    15    17    1
    22    15    19   ar
    23    16    17    1
    24    16    20   ar
    25    17    21    2
    26    18    22    1
    27     1    24    1
    28     2    25    1
    29     3    26    1
    30     4    27    1
    31     5    28    1
    32     6    29    1
    33     7    30    1
    34     8    31    1
    35    18    32    1
    36    18    33    1
    37    18    34    1
    38    19    35    1
    39    20    36    1
