@<TRIPOS>MOLECULE
ChEBML1137482
 50 53 0 0 0
SMALL
USER_CHARGES

@<TRIPOS>ATOM
      1 C         -16.2996   -4.0137    1.1347 C.1     1  LIG1        0.0991
      2 C          -3.5727    1.2882   -3.1802 C.ar    1  LIG1       -0.0602
      3 C          -2.3162    0.8739   -3.5816 C.ar    1  LIG1       -0.0595
      4 C         -14.3955   -2.5747    1.6925 C.ar    1  LIG1       -0.0437
      5 C         -14.0038   -4.7260    0.6559 C.ar    1  LIG1       -0.0437
      6 C         -13.0391   -2.3416    1.7176 C.ar    1  LIG1       -0.0514
      7 C         -12.6482   -4.4880    0.6779 C.ar    1  LIG1       -0.0514
      8 C          -4.1986    0.6727   -2.1124 C.ar    1  LIG1       -0.0382
      9 C          -1.6793   -0.1580   -2.9172 C.ar    1  LIG1       -0.0299
     10 C         -10.0599   -1.8958    1.7478 C.ar    1  LIG1       -0.0059
     11 C         -14.8888   -3.7695    1.1610 C.ar    1  LIG1        0.0520
     12 C         -12.1571   -3.2974    1.2135 C.ar    1  LIG1        0.0019
     13 C          -3.5679   -0.3668   -1.4446 C.ar    1  LIG1        0.0594
     14 C          -2.2994   -0.7797   -1.8460 C.ar    1  LIG1        0.0957
     15 C         -10.6958   -3.0447    1.2412 C.ar    1  LIG1        0.0905
     16 C          -8.7089   -2.1136    1.5587 C.ar    1  LIG1        0.1123
     17 C          -7.6106   -1.2034    1.9218 C.2     1  LIG1        0.2614
     18 C          -4.5628    0.0613    0.5851 C.3     1  LIG1        0.0275
     19 C          -5.4513   -1.5639   -0.8858 C.3     1  LIG1        0.0275
     20 C          -5.2435   -0.5604    1.8087 C.3     1  LIG1        0.0303
     21 C          -6.1906   -2.2929    0.2408 C.3     1  LIG1        0.0303
     22 C          -0.4088   -1.9800   -1.8297 C.3     1  LIG1        0.0423
     23 N         -17.4188   -4.2072    1.1137 N.1     1  LIG1       -0.1924
     24 N          -9.7574   -3.8547    0.7965 N.ar    1  LIG1       -0.1834
     25 N          -8.5934   -3.3382    0.9625 N.ar    1  LIG1       -0.2326
     26 N          -4.2020   -0.9956   -0.3668 N.pl3   1  LIG1       -0.3255
     27 N          -6.3995   -1.3461    1.3479 N.am    1  LIG1       -0.2935
     28 O          -7.7959   -0.3226    2.7398 O.2     1  LIG1       -0.2701
     29 O          -1.6737   -1.7946   -1.1914 O.3     1  LIG1       -0.3473
     30 H          -4.0662    2.0948   -3.7019 H       1  LIG1        0.0623
     31 H          -1.8308    1.3580   -4.4162 H       1  LIG1        0.0623
     32 H         -15.0781   -1.8348    2.0836 H       1  LIG1        0.0637
     33 H         -14.3835   -5.6500    0.2452 H       1  LIG1        0.0637
     34 H         -12.6576   -1.4185    2.1282 H       1  LIG1        0.0630
     35 H         -11.9643   -5.2253    0.2842 H       1  LIG1        0.0630
     36 H          -5.1800    0.9984   -1.8007 H       1  LIG1        0.0643
     37 H          -0.6978   -0.4791   -3.2333 H       1  LIG1        0.0651
     38 H         -10.5283   -1.0291    2.1902 H       1  LIG1        0.0668
     39 H          -3.6626    0.5894    0.8996 H       1  LIG1        0.0485
     40 H          -5.2463    0.7628    0.1067 H       1  LIG1        0.0485
     41 H          -6.0806   -0.7632   -1.2743 H       1  LIG1        0.0485
     42 H          -5.2247   -2.2681   -1.6864 H       1  LIG1        0.0485
     43 H          -4.5407   -1.2116    2.3284 H       1  LIG1        0.0486
     44 H          -5.5804    0.2282    2.4816 H       1  LIG1        0.0486
     45 H          -5.5927   -3.1361    0.5867 H       1  LIG1        0.0486
     46 H          -7.1539   -2.6503   -0.1233 H       1  LIG1        0.0486
     47 H           0.1319   -2.7879   -1.3366 H       1  LIG1        0.0535
     48 H          -0.5646   -2.2340   -2.8782 H       1  LIG1        0.0535
     49 H           0.1713   -1.0597   -1.7610 H       1  LIG1        0.0535
     50 H          -7.7566   -3.7561    0.7056 H       1  LIG1        0.1757
@<TRIPOS>BOND
     1     1    11    1
     2     1    23    3
     3     2     3   ar
     4     2     8   ar
     5     3     9   ar
     6     4     6   ar
     7     4    11   ar
     8     5     7   ar
     9     5    11   ar
    10     6    12   ar
    11     7    12   ar
    12     8    13   ar
    13     9    14   ar
    14    10    15   ar
    15    10    16   ar
    16    12    15    1
    17    13    14   ar
    18    13    26    1
    19    14    29    1
    20    15    24   ar
    21    16    17    1
    22    16    25   ar
    23    17    27   am
    24    17    28    2
    25    18    20    1
    26    18    26    1
    27    19    21    1
    28    19    26    1
    29    20    27    1
    30    21    27    1
    31    22    29    1
    32    24    25   ar
    33     2    30    1
    34     3    31    1
    35     4    32    1
    36     5    33    1
    37     6    34    1
    38     7    35    1
    39     8    36    1
    40     9    37    1
    41    10    38    1
    42    18    39    1
    43    18    40    1
    44    19    41    1
    45    19    42    1
    46    20    43    1
    47    20    44    1
    48    21    45    1
    49    21    46    1
    50    22    47    1
    51    22    48    1
    52    22    49    1
    53    25    50    1
