@<TRIPOS>MOLECULE
ChEBML204356
 69 72 0 0 0
SMALL
USER_CHARGES

@<TRIPOS>ATOM
      1 C          -1.3097   -0.2487   -4.8459 C.ar    1  LIG1       -0.0418
      2 C         -10.2456   -5.3151    0.9147 C.ar    1  LIG1       -0.0383
      3 C          -1.0335    0.2881   -3.5934 C.ar    1  LIG1       -0.0360
      4 C         -11.5957   -5.6610    1.0215 C.ar    1  LIG1       -0.0377
      5 C         -12.1624   -3.4368    1.8148 C.ar    1  LIG1       -0.0304
      6 C         -10.0854   -1.8673    1.9786 C.ar    1  LIG1       -0.0261
      7 C          -2.6298   -0.5403   -5.1498 C.ar    1  LIG1        0.0292
      8 C         -10.8069   -3.0653    1.7154 C.ar    1  LIG1       -0.0003
      9 C          -9.8816   -4.0111    1.2686 C.ar    1  LIG1        0.0379
     10 C         -12.5410   -4.7379    1.4643 C.ar    1  LIG1        0.0437
     11 C          -2.0710    0.5136   -2.6956 C.ar    1  LIG1        0.0670
     12 C          -8.7608   -2.1046    1.6921 C.ar    1  LIG1        0.0947
     13 C          -3.3570    0.1882   -3.0958 C.ar    1  LIG1        0.1413
     14 C          -7.6517   -1.2025    1.7999 C.2     1  LIG1        0.2598
     15 C          -6.2806   -1.0190   -1.5138 C.3     1  LIG1       -0.0185
     16 C          -4.6299   -0.1179    0.1796 C.3     1  LIG1       -0.0185
     17 C          -6.8022   -1.9764   -0.4432 C.3     1  LIG1        0.0162
     18 C          -5.2082   -1.0846    1.2142 C.3     1  LIG1        0.0162
     19 C          -4.8237   -0.6115   -1.2602 C.3     1  LIG1        0.0271
     20 C          -0.4849    1.9793    0.3753 C.3     1  LIG1       -0.0497
     21 C          -5.7334    1.9602   -3.5291 C.3     1  LIG1       -0.0494
     22 C         -15.5628   -5.0978   -2.1603 C.3     1  LIG1       -0.0482
     23 C          -0.4713    1.3991   -0.9980 C.3     1  LIG1        0.0056
     24 C          -5.1203    1.6865   -2.1980 C.3     1  LIG1        0.0104
     25 C         -14.6945   -5.4789   -0.9823 C.3     1  LIG1        0.0310
     26 N          -3.6642   -0.3349   -4.3040 N.ar    1  LIG1       -0.2394
     27 N          -8.6478   -3.4003    1.2643 N.ar    1  LIG1       -0.3101
     28 N          -6.5997   -1.4114    0.8979 N.am    1  LIG1       -0.2966
     29 N          -1.7936    1.0570   -1.4273 N.pl3   1  LIG1       -0.3419
     30 N         -13.9135   -5.1223    1.5623 N.pl3   1  LIG1       -0.2630
     31 N          -4.4069    0.4112   -2.1984 N.pl3   1  LIG1       -0.3114
     32 O          -7.6548   -0.3085    2.6445 O.2     1  LIG1       -0.2702
     33 O         -16.3730   -4.7696    0.8741 O.2     1  LIG1       -0.4811
     34 O         -14.6650   -3.0923    0.0904 O.2     1  LIG1       -0.4811
     35 S         -15.0275   -4.4534    0.4325 S.O2    1  LIG1       -0.1930
     36 H          -0.5169   -0.4330   -5.5618 H       1  LIG1        0.0639
     37 H          -9.5104   -6.0344    0.5698 H       1  LIG1        0.0643
     38 H          -0.0067    0.5262   -3.3287 H       1  LIG1        0.0644
     39 H         -11.9011   -6.6698    0.7518 H       1  LIG1        0.0643
     40 H         -12.9019   -2.7191    2.1599 H       1  LIG1        0.0650
     41 H         -10.4960   -0.9334    2.3393 H       1  LIG1        0.0651
     42 H          -2.8987   -0.9607   -6.1133 H       1  LIG1        0.0840
     43 H          -6.3833   -1.4825   -2.5021 H       1  LIG1        0.0302
     44 H          -6.9032   -0.1151   -1.5132 H       1  LIG1        0.0302
     45 H          -5.1365    0.8503    0.2855 H       1  LIG1        0.0302
     46 H          -3.5671    0.0509    0.3900 H       1  LIG1        0.0302
     47 H          -7.8572   -2.1881   -0.6353 H       1  LIG1        0.0470
     48 H          -6.2743   -2.9361   -0.4776 H       1  LIG1        0.0470
     49 H          -4.6444   -2.0245    1.2276 H       1  LIG1        0.0470
     50 H          -5.1292   -0.6442    2.2131 H       1  LIG1        0.0470
     51 H          -4.1825   -1.4857   -1.4217 H       1  LIG1        0.0506
     52 H          -1.0895    2.8922    0.4078 H       1  LIG1        0.0246
     53 H          -0.8798    1.2587    1.0996 H       1  LIG1        0.0246
     54 H           0.5363    2.2395    0.6786 H       1  LIG1        0.0246
     55 H          -4.9666    2.0106   -4.3097 H       1  LIG1        0.0246
     56 H          -6.4631    1.1858   -3.7893 H       1  LIG1        0.0246
     57 H          -6.2561    2.9240   -3.5061 H       1  LIG1        0.0246
     58 H         -16.6210   -5.2184   -1.9105 H       1  LIG1        0.0246
     59 H         -15.3951   -4.0553   -2.4503 H       1  LIG1        0.0246
     60 H         -15.3416   -5.7246   -3.0302 H       1  LIG1        0.0246
     61 H           0.1342    0.4881   -1.0232 H       1  LIG1        0.0463
     62 H          -0.0619    2.1144   -1.7174 H       1  LIG1        0.0463
     63 H          -5.8915    1.6375   -1.4235 H       1  LIG1        0.0466
     64 H          -4.4036    2.4692   -1.9327 H       1  LIG1        0.0466
     65 H         -13.6343   -5.3614   -1.2232 H       1  LIG1        0.0476
     66 H         -14.8766   -6.5139   -0.6804 H       1  LIG1        0.0476
     67 H          -7.7851   -3.8472    0.9853 H       1  LIG1        0.1529
     68 H          -2.5730    1.2017   -0.8113 H       1  LIG1        0.1466
     69 H         -14.0589   -6.1240    1.7688 H       1  LIG1        0.1702
@<TRIPOS>BOND
     1     1     3   ar
     2     1     7   ar
     3     2     4   ar
     4     2     9   ar
     5     3    11   ar
     6     4    10   ar
     7     5     8   ar
     8     5    10   ar
     9     6     8   ar
    10     6    12   ar
    11     7    26   ar
    12     8     9   ar
    13     9    27   ar
    14    10    30    1
    15    11    13   ar
    16    11    29    1
    17    12    14    1
    18    12    27   ar
    19    13    26   ar
    20    13    31    1
    21    14    28   am
    22    14    32    2
    23    15    17    1
    24    15    19    1
    25    16    18    1
    26    16    19    1
    27    17    28    1
    28    18    28    1
    29    19    31    1
    30    20    23    1
    31    21    24    1
    32    22    25    1
    33    23    29    1
    34    24    31    1
    35    25    35    1
    36    30    35    1
    37    33    35    2
    38    34    35    2
    39     1    36    1
    40     2    37    1
    41     3    38    1
    42     4    39    1
    43     5    40    1
    44     6    41    1
    45     7    42    1
    46    15    43    1
    47    15    44    1
    48    16    45    1
    49    16    46    1
    50    17    47    1
    51    17    48    1
    52    18    49    1
    53    18    50    1
    54    19    51    1
    55    20    52    1
    56    20    53    1
    57    20    54    1
    58    21    55    1
    59    21    56    1
    60    21    57    1
    61    22    58    1
    62    22    59    1
    63    22    60    1
    64    23    61    1
    65    23    62    1
    66    24    63    1
    67    24    64    1
    68    25    65    1
    69    25    66    1
    70    27    67    1
    71    29    68    1
    72    30    69    1
