@<TRIPOS>MOLECULE
ChEBML1137467
 48 51 0 0 0
SMALL
USER_CHARGES

@<TRIPOS>ATOM
      1 C          -3.0351    1.3383   -3.5366 C.ar    1  LIG1       -0.0602
      2 C          -1.8738    0.5747   -3.6538 C.ar    1  LIG1       -0.0595
      3 C         -13.0220   -2.6854    1.2015 C.ar    1  LIG1       -0.0513
      4 C         -12.3670   -4.9789    1.5858 C.ar    1  LIG1       -0.0513
      5 C          -3.9674    1.0418   -2.5424 C.ar    1  LIG1       -0.0378
      6 C          -1.6449   -0.4857   -2.7769 C.ar    1  LIG1       -0.0299
      7 C         -14.3608   -3.0747    1.1597 C.ar    1  LIG1       -0.0428
      8 C         -13.7057   -5.3683    1.5440 C.ar    1  LIG1       -0.0428
      9 C         -10.1425   -1.9913    1.8850 C.ar    1  LIG1       -0.0059
     10 C         -12.0251   -3.6375    1.4145 C.ar    1  LIG1        0.0019
     11 C          -3.7385   -0.0185   -1.6654 C.ar    1  LIG1        0.0659
     12 C          -2.5772   -0.7822   -1.7826 C.ar    1  LIG1        0.0962
     13 C         -14.7026   -4.4162    1.3310 C.ar    1  LIG1        0.0406
     14 C         -10.6435   -3.2356    1.4580 C.ar    1  LIG1        0.0905
     15 C          -8.7812   -2.1009    1.7390 C.ar    1  LIG1        0.1124
     16 C          -4.3142   -0.2538    0.6805 C.2     1  LIG1        0.2363
     17 C          -7.7538   -1.1396    2.0195 C.2     1  LIG1        0.2618
     18 C          -5.2889   -0.8297    1.7056 C.3     1  LIG1        0.0920
     19 C          -6.0588   -0.6557   -1.0521 C.3     1  LIG1        0.0353
     20 C          -6.6377   -1.7158   -0.1403 C.3     1  LIG1        0.0313
     21 C          -1.1215   -2.5465   -1.1316 C.3     1  LIG1        0.0423
     22 N          -9.6790   -4.0741    1.0696 N.ar    1  LIG1       -0.1834
     23 N          -8.5582   -3.3553    1.2519 N.ar    1  LIG1       -0.2326
     24 N          -4.6852   -0.3046   -0.6717 N.am    1  LIG1       -0.2662
     25 N          -6.6023   -1.2259    1.2221 N.am    1  LIG1       -0.2859
     26 O          -3.2218    0.1738    1.0682 O.2     1  LIG1       -0.2752
     27 O          -7.9072   -0.3009    2.9056 O.2     1  LIG1       -0.2701
     28 O          -2.3343   -1.8227   -0.9362 O.3     1  LIG1       -0.3473
     29 CL        -16.3539   -4.8979    1.2783 Cl      1  LIG1       -0.0843
     30 H          -3.2128    2.1642   -4.2192 H       1  LIG1        0.0623
     31 H          -1.1475    0.8060   -4.4276 H       1  LIG1        0.0623
     32 H         -12.7728   -1.6353    1.0663 H       1  LIG1        0.0630
     33 H         -11.6012   -5.7330    1.7526 H       1  LIG1        0.0630
     34 H          -4.8687    1.6443   -2.4609 H       1  LIG1        0.0643
     35 H          -0.7379   -1.0763   -2.8738 H       1  LIG1        0.0651
     36 H         -15.1271   -2.3221    0.9929 H       1  LIG1        0.0638
     37 H         -13.9569   -6.4172    1.6777 H       1  LIG1        0.0638
     38 H         -10.6901   -1.1330    2.2487 H       1  LIG1        0.0668
     39 H          -4.8241   -1.7258    2.1331 H       1  LIG1        0.0570
     40 H          -5.3927   -0.0870    2.5029 H       1  LIG1        0.0570
     41 H          -6.0602   -1.0154   -2.0874 H       1  LIG1        0.0490
     42 H          -6.6541    0.2642   -1.0015 H       1  LIG1        0.0490
     43 H          -7.6597   -1.9592   -0.4473 H       1  LIG1        0.0486
     44 H          -6.0473   -2.6391   -0.1788 H       1  LIG1        0.0486
     45 H          -1.0512   -3.3478   -0.3920 H       1  LIG1        0.0535
     46 H          -0.2708   -1.8678   -1.0311 H       1  LIG1        0.0535
     47 H          -1.1234   -2.9790   -2.1350 H       1  LIG1        0.0535
     48 H          -7.6713   -3.7862    1.0222 H       1  LIG1        0.1757
@<TRIPOS>BOND
     1     1     2   ar
     2     1     5   ar
     3     2     6   ar
     4     3     7   ar
     5     3    10   ar
     6     4     8   ar
     7     4    10   ar
     8     5    11   ar
     9     6    12   ar
    10     7    13   ar
    11     8    13   ar
    12     9    14   ar
    13     9    15   ar
    14    10    14    1
    15    11    12   ar
    16    11    24    1
    17    12    28    1
    18    13    29    1
    19    14    22   ar
    20    15    17    1
    21    15    23   ar
    22    16    18    1
    23    16    24   am
    24    16    26    2
    25    17    25   am
    26    17    27    2
    27    18    25    1
    28    19    20    1
    29    19    24    1
    30    20    25    1
    31    21    28    1
    32    22    23   ar
    33     1    30    1
    34     2    31    1
    35     3    32    1
    36     4    33    1
    37     5    34    1
    38     6    35    1
    39     7    36    1
    40     8    37    1
    41     9    38    1
    42    18    39    1
    43    18    40    1
    44    19    41    1
    45    19    42    1
    46    20    43    1
    47    20    44    1
    48    21    45    1
    49    21    46    1
    50    21    47    1
    51    23    48    1
