@<TRIPOS>MOLECULE
ChEBML127945
 37 40 0 0 0
SMALL
USER_CHARGES

@<TRIPOS>ATOM
      1 C          -1.5346    0.1463   -2.7136 C.ar    1  LIG1       -0.0589
      2 C          -2.0587    1.4149   -2.9355 C.ar    1  LIG1       -0.0438
      3 C          -2.2998   -0.8108   -2.0565 C.ar    1  LIG1       -0.0400
      4 C         -11.9865   -3.5602    2.2200 C.ar    1  LIG1       -0.0340
      5 C          -9.8949   -0.9304    2.6885 C.ar    1  LIG1       -0.0336
      6 C          -7.7262   -0.2651    1.8253 C.ar    1  LIG1       -0.0200
      7 C          -3.3428    1.6742   -2.4842 C.ar    1  LIG1        0.0271
      8 C         -12.5258   -4.7547    1.7619 C.ar    1  LIG1        0.0275
      9 C         -10.7256   -5.2439    0.3688 C.ar    1  LIG1        0.0488
     10 C         -10.7308   -3.2053    1.7024 C.ar    1  LIG1        0.0081
     11 C          -9.8462   -2.0976    1.8976 C.ar    1  LIG1        0.0084
     12 C         -10.1261   -4.0614    0.7827 C.ar    1  LIG1        0.0570
     13 C          -8.7281   -2.3103    1.0902 C.ar    1  LIG1        0.0602
     14 C          -7.6542   -1.4143    1.0332 C.ar    1  LIG1        0.0562
     15 C          -8.8288   -0.0249    2.6417 C.ar    1  LIG1        0.0432
     16 C          -3.5730   -0.4517   -1.6444 C.ar    1  LIG1        0.0495
     17 C          -5.4032   -0.8403    0.0593 C.2     1  LIG1        0.2220
     18 C          -4.4301   -1.4632   -0.9293 C.3     1  LIG1        0.0672
     19 N         -11.9359   -5.5823    0.8700 N.ar    1  LIG1       -0.2627
     20 N          -4.1162    0.7703   -1.8420 N.ar    1  LIG1       -0.2607
     21 N          -8.9229   -3.5006    0.4296 N.ar    1  LIG1       -0.3111
     22 N          -6.5451   -1.6436    0.2196 N.am    1  LIG1       -0.2834
     23 O          -5.1764    0.2282    0.6178 O.2     1  LIG1       -0.2768
     24 CL         -8.8851    1.4022    3.6056 Cl      1  LIG1       -0.0842
     25 H          -0.5318   -0.0960   -3.0523 H       1  LIG1        0.0624
     26 H          -1.4803    2.1766   -3.4457 H       1  LIG1        0.0639
     27 H          -1.9026   -1.8041   -1.8772 H       1  LIG1        0.0642
     28 H         -12.5132   -2.9416    2.9378 H       1  LIG1        0.0646
     29 H         -10.7554   -0.7434    3.3255 H       1  LIG1        0.0645
     30 H          -6.9055    0.4501    1.7990 H       1  LIG1        0.0659
     31 H          -3.7974    2.6482   -2.6326 H       1  LIG1        0.0839
     32 H         -13.4940   -5.0901    2.1216 H       1  LIG1        0.0840
     33 H         -10.2769   -5.9229   -0.3441 H       1  LIG1        0.0860
     34 H          -5.0000   -2.0474   -1.6629 H       1  LIG1        0.0431
     35 H          -3.7886   -2.1741   -0.3929 H       1  LIG1        0.0431
     36 H          -8.2692   -3.9061   -0.2260 H       1  LIG1        0.1529
     37 H          -6.5654   -2.5093   -0.3325 H       1  LIG1        0.1557
@<TRIPOS>BOND
     1     1     2   ar
     2     1     3   ar
     3     2     7   ar
     4     3    16   ar
     5     4     8   ar
     6     4    10   ar
     7     5    11   ar
     8     5    15   ar
     9     6    14   ar
    10     6    15   ar
    11     7    20   ar
    12     8    19   ar
    13     9    12   ar
    14     9    19   ar
    15    10    11   ar
    16    10    12   ar
    17    11    13   ar
    18    12    21   ar
    19    13    14   ar
    20    13    21   ar
    21    14    22    1
    22    15    24    1
    23    16    18    1
    24    16    20   ar
    25    17    18    1
    26    17    22   am
    27    17    23    2
    28     1    25    1
    29     2    26    1
    30     3    27    1
    31     4    28    1
    32     5    29    1
    33     6    30    1
    34     7    31    1
    35     8    32    1
    36     9    33    1
    37    18    34    1
    38    18    35    1
    39    21    36    1
    40    22    37    1
