@<TRIPOS>MOLECULE
ChEBML949426
 43 45 0 0 0
SMALL
USER_CHARGES

@<TRIPOS>ATOM
      1 C          -2.1359    0.3806   -3.2012 C.ar    1  LIG1       -0.0365
      2 C         -10.3941   -5.0725    0.7019 C.ar    1  LIG1       -0.0382
      3 C         -10.8146   -2.8954    1.6614 C.ar    1  LIG1       -0.0382
      4 C         -11.7399   -5.4025    0.8609 C.ar    1  LIG1       -0.0299
      5 C         -12.1605   -3.2254    1.8203 C.ar    1  LIG1       -0.0299
      6 C          -2.9476   -0.6630   -2.6958 C.ar    1  LIG1       -0.0332
      7 C          -2.7106    1.5539   -2.7711 C.ar    1  LIG1        0.0455
      8 C          -9.9314   -3.8190    1.1022 C.ar    1  LIG1        0.0300
      9 C         -12.6232   -4.4791    1.4201 C.ar    1  LIG1        0.0751
     10 C          -3.9602   -0.0529   -1.9927 C.ar    1  LIG1        0.0626
     11 C          -6.8743   -1.8769    0.5988 C.2     1  LIG1        0.0744
     12 C          -6.2434   -0.5928    1.0278 C.2     1  LIG1        0.1679
     13 C          -6.3508   -2.6688   -0.5543 C.2     1  LIG1        0.1679
     14 C          -7.9439   -2.3303    1.2664 C.2     1  LIG1        0.0072
     15 C          -5.0566   -0.1030    0.2263 C.3     1  LIG1        0.0203
     16 C          -5.1597   -2.1040   -1.2978 C.3     1  LIG1        0.0203
     17 C          -5.1237   -0.5728   -1.2315 C.3     1  LIG1        0.0205
     18 C         -13.9614   -4.5991    3.9612 C.3     1  LIG1       -0.0410
     19 C         -14.6296   -4.1941    2.6645 C.3     1  LIG1        0.0505
     20 N          -8.5764   -3.4868    0.9422 N.pl3   1  LIG1       -0.3202
     21 O          -6.6305    0.0251    2.0182 O.2     1  LIG1       -0.2939
     22 O          -6.8265   -3.7591   -0.8662 O.2     1  LIG1       -0.2939
     23 O          -3.8230    1.2984   -2.0337 O.2     1  LIG1       -0.3221
     24 O         -13.9365   -4.8012    1.5751 O.3     1  LIG1       -0.3463
     25 H          -1.2440    0.2891   -3.8039 H       1  LIG1        0.0645
     26 H          -9.7145   -5.7998    0.2650 H       1  LIG1        0.0643
     27 H         -10.4647   -1.9158    1.9767 H       1  LIG1        0.0643
     28 H         -12.0945   -6.3807    0.5471 H       1  LIG1        0.0651
     29 H         -12.8438   -2.5019    2.2565 H       1  LIG1        0.0651
     30 H          -2.8091   -1.7264   -2.8295 H       1  LIG1        0.0648
     31 H          -2.4632    2.5976   -2.8980 H       1  LIG1        0.0901
     32 H          -8.3556   -1.7877    2.1051 H       1  LIG1        0.0798
     33 H          -5.0568    0.9938    0.2588 H       1  LIG1        0.0357
     34 H          -4.1428   -0.4544    0.7206 H       1  LIG1        0.0357
     35 H          -4.2508   -2.5466   -0.8723 H       1  LIG1        0.0357
     36 H          -5.2323   -2.4244   -2.3446 H       1  LIG1        0.0357
     37 H          -6.0374   -0.1747   -1.6925 H       1  LIG1        0.0382
     38 H         -13.9885   -5.6844    4.0917 H       1  LIG1        0.0254
     39 H         -12.9182   -4.2669    3.9779 H       1  LIG1        0.0254
     40 H         -14.4592   -4.1280    4.8153 H       1  LIG1        0.0254
     41 H         -14.5990   -3.1075    2.5401 H       1  LIG1        0.0569
     42 H         -15.6716   -4.5274    2.6490 H       1  LIG1        0.0569
     43 H          -7.9855   -4.1988    0.5305 H       1  LIG1        0.1522
@<TRIPOS>BOND
     1     1     6   ar
     2     1     7   ar
     3     2     4   ar
     4     2     8   ar
     5     3     5   ar
     6     3     8   ar
     7     4     9   ar
     8     5     9   ar
     9     6    10   ar
    10     7    23   ar
    11     8    20    1
    12     9    24    1
    13    10    17    1
    14    10    23   ar
    15    11    12    1
    16    11    13    1
    17    11    14    2
    18    12    15    1
    19    12    21    2
    20    13    16    1
    21    13    22    2
    22    14    20    1
    23    15    17    1
    24    16    17    1
    25    18    19    1
    26    19    24    1
    27     1    25    1
    28     2    26    1
    29     3    27    1
    30     4    28    1
    31     5    29    1
    32     6    30    1
    33     7    31    1
    34    14    32    1
    35    15    33    1
    36    15    34    1
    37    16    35    1
    38    16    36    1
    39    17    37    1
    40    18    38    1
    41    18    39    1
    42    18    40    1
    43    19    41    1
    44    19    42    1
    45    20    43    1
