@<TRIPOS>MOLECULE
ChEBML411656
 42 44 0 0 0
SMALL
USER_CHARGES

@<TRIPOS>ATOM
      1 C          -1.3412    1.1612   -2.3784 C.ar    1  LIG1       -0.0622
      2 C          -2.3894    1.9918   -1.9823 C.ar    1  LIG1       -0.0620
      3 C          -1.5532   -0.2102   -2.5197 C.ar    1  LIG1       -0.0620
      4 C         -10.6730   -2.0258    2.7164 C.ar    1  LIG1       -0.0533
      5 C          -3.6496    1.4510   -1.7274 C.ar    1  LIG1       -0.0588
      6 C          -2.8134   -0.7510   -2.2648 C.ar    1  LIG1       -0.0588
      7 C          -9.3513   -1.6119    2.5301 C.ar    1  LIG1       -0.0531
      8 C         -12.4834   -3.7446    2.0263 C.ar    1  LIG1       -0.0344
      9 C          -8.9960   -3.3900    0.9297 C.ar    1  LIG1       -0.0392
     10 C         -11.1822   -3.1393    2.0054 C.ar    1  LIG1       -0.0103
     11 C          -3.8617    0.0796   -1.8686 C.ar    1  LIG1       -0.0428
     12 C          -8.5235   -2.2883    1.6455 C.ar    1  LIG1       -0.0032
     13 C         -10.3288   -3.8046    1.1198 C.ar    1  LIG1        0.0202
     14 C         -12.5852   -4.8239    1.1811 C.ar    1  LIG1        0.0775
     15 C         -13.7116   -5.6655    0.9387 C.2     1  LIG1        0.2724
     16 C          -5.2178   -0.5033   -1.5942 C.3     1  LIG1        0.0116
     17 C          -7.1139   -1.8362    1.4555 C.3     1  LIG1       -0.0101
     18 C          -5.4219   -0.9345   -0.1454 C.3     1  LIG1       -0.0317
     19 N         -14.9908   -5.1100    1.0677 N.am    1  LIG1       -0.1935
     20 N          -6.8047   -1.4420    0.0538 N.4     1  LIG1        0.2421
     21 O         -13.5786   -6.8723    0.6057 O.2     1  LIG1       -0.2690
     22 O         -16.0928   -5.9398    0.8149 O.3     1  LIG1       -0.2964
     23 S         -11.1267   -5.1268    0.3526 S.2     1  LIG1       -0.0838
     24 H          -0.3603    1.5827   -2.5782 H       1  LIG1        0.0622
     25 H          -2.2248    3.0598   -1.8734 H       1  LIG1        0.0623
     26 H          -0.7376   -0.8570   -2.8292 H       1  LIG1        0.0623
     27 H         -11.3096   -1.4857    3.4129 H       1  LIG1        0.0629
     28 H          -4.4605    2.1057   -1.4190 H       1  LIG1        0.0625
     29 H          -2.9692   -1.8207   -2.3773 H       1  LIG1        0.0625
     30 H          -8.9811   -0.7545    3.0864 H       1  LIG1        0.0628
     31 H         -13.3038   -3.3934    2.6410 H       1  LIG1        0.0643
     32 H          -8.3468   -3.9193    0.2370 H       1  LIG1        0.0640
     33 H          -5.9778    0.2499   -1.8410 H       1  LIG1        0.0370
     34 H          -5.4120   -1.3497   -2.2657 H       1  LIG1        0.0370
     35 H          -6.8823   -0.9629    2.0800 H       1  LIG1        0.0868
     36 H          -6.3979   -2.6260    1.7193 H       1  LIG1        0.0868
     37 H          -5.3061   -0.0839    0.5328 H       1  LIG1        0.0817
     38 H          -4.7418   -1.7358    0.1589 H       1  LIG1        0.0817
     39 H         -15.1159   -4.1411    1.3347 H       1  LIG1        0.1839
     40 H          -6.9608   -2.2495   -0.5640 H       1  LIG1        0.1986
     41 H          -7.4756   -0.7231   -0.2483 H       1  LIG1        0.1986
     42 H         -15.6358   -6.7689    0.5934 H       1  LIG1        0.2427
@<TRIPOS>BOND
     1     1     2   ar
     2     1     3   ar
     3     2     5   ar
     4     3     6   ar
     5     4     7   ar
     6     4    10   ar
     7     5    11   ar
     8     6    11   ar
     9     7    12   ar
    10     8    10   ar
    11     8    14   ar
    12     9    12   ar
    13     9    13   ar
    14    10    13   ar
    15    11    16    1
    16    12    17    1
    17    13    23   ar
    18    14    15    1
    19    14    23   ar
    20    15    19   am
    21    15    21    2
    22    16    18    1
    23    17    20    1
    24    18    20    1
    25    19    22    1
    26     1    24    1
    27     2    25    1
    28     3    26    1
    29     4    27    1
    30     5    28    1
    31     6    29    1
    32     7    30    1
    33     8    31    1
    34     9    32    1
    35    16    33    1
    36    16    34    1
    37    17    35    1
    38    17    36    1
    39    18    37    1
    40    18    38    1
    41    19    39    1
    42    20    40    1
    43    20    41    1
    44    22    42    1
