@<TRIPOS>MOLECULE
ChEBML198584
 48 50 0 0 0
SMALL
USER_CHARGES

@<TRIPOS>ATOM
      1 C          -2.2359    0.9600   -3.4732 C.ar    1  LIG1       -0.0422
      2 C         -11.9786   -2.9641    0.9315 C.ar    1  LIG1       -0.0569
      3 C         -11.6332   -5.3519    0.8033 C.ar    1  LIG1       -0.0569
      4 C         -10.6125   -2.7777    1.1423 C.ar    1  LIG1       -0.0404
      5 C         -10.2670   -5.1655    1.0141 C.ar    1  LIG1       -0.0404
      6 C          -1.9716   -0.3831   -3.2296 C.ar    1  LIG1       -0.0384
      7 C          -3.3302    1.5304   -2.8429 C.ar    1  LIG1        0.0292
      8 C         -12.4890   -4.2511    0.7619 C.ar    1  LIG1       -0.0453
      9 C          -9.7567   -3.8784    1.1837 C.ar    1  LIG1        0.0340
     10 C          -2.7979   -1.1046   -2.3751 C.ar    1  LIG1        0.0809
     11 C          -3.8668   -0.4417   -1.7938 C.ar    1  LIG1        0.1388
     12 C          -7.8677   -2.4244    1.6394 C.2     1  LIG1        0.3050
     13 C          -4.8280   -0.6860    0.4395 C.3     1  LIG1        0.0289
     14 C          -5.7802   -1.9265   -1.5279 C.3     1  LIG1        0.0289
     15 C          -6.2950   -0.6738    0.8631 C.3     1  LIG1        0.0315
     16 C          -6.4705   -2.7724   -0.4569 C.3     1  LIG1        0.0315
     17 C         -14.6113   -5.2753    1.6565 C.3     1  LIG1       -0.0587
     18 C         -14.2528   -5.0897   -0.8319 C.3     1  LIG1       -0.0587
     19 C         -13.9497   -4.4503    0.5365 C.3     1  LIG1       -0.0219
     20 N          -4.1553    0.8618   -2.0065 N.ar    1  LIG1       -0.2398
     21 N          -4.6918   -1.1372   -0.9480 N.pl3   1  LIG1       -0.3115
     22 N          -6.9140   -1.9877    0.7006 N.am    1  LIG1       -0.2824
     23 N          -8.3857   -3.6917    1.3951 N.am    1  LIG1       -0.2691
     24 O          -8.2122   -1.7407    2.6088 O.2     1  LIG1       -0.2537
     25 CL         -2.4557   -2.7674   -2.0841 Cl      1  LIG1       -0.0805
     26 H          -1.6057    1.5421   -4.1360 H       1  LIG1        0.0639
     27 H         -12.6385   -2.1009    0.9030 H       1  LIG1        0.0626
     28 H         -12.0224   -6.3582    0.6729 H       1  LIG1        0.0626
     29 H         -10.2256   -1.7702    1.2728 H       1  LIG1        0.0642
     30 H          -9.6092   -6.0304    1.0456 H       1  LIG1        0.0642
     31 H          -1.1185   -0.8521   -3.7131 H       1  LIG1        0.0640
     32 H          -3.5797    2.5747   -3.0003 H       1  LIG1        0.0840
     33 H          -4.4104    0.3201    0.5695 H       1  LIG1        0.0485
     34 H          -4.2556   -1.3644    1.0837 H       1  LIG1        0.0485
     35 H          -5.3925   -2.5867   -2.3131 H       1  LIG1        0.0485
     36 H          -6.5106   -1.2512   -1.9919 H       1  LIG1        0.0485
     37 H          -6.3793   -0.3427    1.9035 H       1  LIG1        0.0486
     38 H          -6.8694    0.0292    0.2477 H       1  LIG1        0.0486
     39 H          -7.3302   -3.2838   -0.9022 H       1  LIG1        0.0486
     40 H          -5.7826   -3.5370   -0.0760 H       1  LIG1        0.0486
     41 H         -14.1655   -6.2726    1.7397 H       1  LIG1        0.0236
     42 H         -15.6844   -5.4051    1.4782 H       1  LIG1        0.0236
     43 H         -14.4903   -4.7740    2.6233 H       1  LIG1        0.0236
     44 H         -13.7722   -6.0714   -0.9100 H       1  LIG1        0.0236
     45 H         -13.8825   -4.4688   -1.6549 H       1  LIG1        0.0236
     46 H         -15.3287   -5.2316   -0.9811 H       1  LIG1        0.0236
     47 H         -14.4660   -3.4714    0.5350 H       1  LIG1        0.0346
     48 H          -7.8077   -4.5238    1.4164 H       1  LIG1        0.1573
@<TRIPOS>BOND
     1     1     6   ar
     2     1     7   ar
     3     2     4   ar
     4     2     8   ar
     5     3     5   ar
     6     3     8   ar
     7     4     9   ar
     8     5     9   ar
     9     6    10   ar
    10     7    20   ar
    11     8    19    1
    12     9    23    1
    13    10    11   ar
    14    10    25    1
    15    11    20   ar
    16    11    21    1
    17    12    22   am
    18    12    23   am
    19    12    24    2
    20    13    15    1
    21    13    21    1
    22    14    16    1
    23    14    21    1
    24    15    22    1
    25    16    22    1
    26    17    19    1
    27    18    19    1
    28     1    26    1
    29     2    27    1
    30     3    28    1
    31     4    29    1
    32     5    30    1
    33     6    31    1
    34     7    32    1
    35    13    33    1
    36    13    34    1
    37    14    35    1
    38    14    36    1
    39    15    37    1
    40    15    38    1
    41    16    39    1
    42    16    40    1
    43    17    41    1
    44    17    42    1
    45    17    43    1
    46    18    44    1
    47    18    45    1
    48    18    46    1
    49    19    47    1
    50    23    48    1
