@<TRIPOS>MOLECULE
ChEBML28462
 46 49 0 0 0
SMALL
USER_CHARGES

@<TRIPOS>ATOM
      1 C          -2.6032   -0.1817   -4.0020 C.ar    1  LIG1        0.0000
      2 C         -12.4312   -4.8434    0.8555 C.ar    1  LIG1        0.0000
      3 C          -1.5810   -0.3735   -3.0724 C.ar    1  LIG1        0.0000
      4 C          -3.7636    0.4984   -3.6322 C.ar    1  LIG1        0.0000
      5 C         -11.4403   -5.5808    0.2105 C.ar    1  LIG1        0.0000
      6 C         -12.1154   -3.6639    1.5398 C.ar    1  LIG1        0.0000
      7 C          -1.7193    0.1146   -1.7731 C.ar    1  LIG1        0.0000
      8 C          -3.9019    0.9864   -2.3328 C.ar    1  LIG1        0.0000
      9 C         -10.1059   -5.1651    0.2280 C.ar    1  LIG1        0.0000
     10 C         -10.1130   -2.1086    2.1524 C.ar    1  LIG1        0.0000
     11 C         -10.7768   -3.2251    1.5712 C.ar    1  LIG1        0.0000
     12 C          -2.8797    0.7946   -1.4033 C.ar    1  LIG1        0.0000
     13 C          -9.8049   -3.9842    0.9160 C.ar    1  LIG1        0.0000
     14 C          -8.7757   -2.2098    1.8448 C.ar    1  LIG1        0.0000
     15 C          -5.0226    0.2262    1.0428 C.2     1  LIG1        0.0000
     16 C          -7.6708   -1.2914    2.2222 C.2     1  LIG1        0.0000
     17 C          -3.8647   -2.7253    0.9835 C.2     1  LIG1        0.0000
     18 C          -2.8882   -0.5946    1.6743 C.3     1  LIG1        0.0000
     19 C          -5.2307   -0.8668    2.0739 C.3     1  LIG1        0.0000
     20 C          -3.9189   -1.6453    2.0570 C.3     1  LIG1        0.0000
     21 C          -3.0294    1.3200   -0.0048 C.3     1  LIG1        0.0000
     22 N          -8.5999   -3.3442    1.0986 N.ar    1  LIG1        0.0000
     23 N          -3.6430    0.3495    0.8755 N.am    1  LIG1        0.0000
     24 N          -6.3988   -1.6377    1.7719 N.am    1  LIG1        0.0000
     25 O          -4.1030   -2.3300   -0.1913 O.co2   1  LIG1       -0.5000
     26 O          -5.9063    0.8905    0.5224 O.2     1  LIG1        0.0000
     27 O          -7.9187   -0.3064    2.9127 O.2     1  LIG1        0.0000
     28 O          -3.5871   -3.8816    1.4091 O.co2   1  LIG1       -0.5000
     29 H          -2.4947   -0.5606   -5.0140 H       1  LIG1        0.0000
     30 H         -13.4621   -5.1865    0.8271 H       1  LIG1        0.0000
     31 H          -0.6769   -0.9020   -3.3604 H       1  LIG1        0.0000
     32 H          -4.5590    0.6489   -4.3559 H       1  LIG1        0.0000
     33 H         -11.7080   -6.4939   -0.3147 H       1  LIG1        0.0000
     34 H         -12.8979   -3.0984    2.0380 H       1  LIG1        0.0000
     35 H          -0.9178   -0.0397   -1.0554 H       1  LIG1        0.0000
     36 H          -4.8095    1.5150   -2.0537 H       1  LIG1        0.0000
     37 H          -9.3346   -5.7396   -0.2738 H       1  LIG1        0.0000
     38 H         -10.5693   -1.3178    2.7330 H       1  LIG1        0.0000
     39 H          -2.5091   -0.0630    2.5534 H       1  LIG1        0.0000
     40 H          -2.0490   -0.9882    1.0917 H       1  LIG1        0.0000
     41 H          -5.3837   -0.3858    3.0466 H       1  LIG1        0.0000
     42 H          -3.6957   -2.1189    3.0180 H       1  LIG1        0.0000
     43 H          -2.0528    1.5856    0.4144 H       1  LIG1        0.0000
     44 H          -3.6470    2.2242    0.0113 H       1  LIG1        0.0000
     45 H          -7.7146   -3.6685    0.7337 H       1  LIG1        0.0000
     46 H          -6.2723   -2.5091    1.2549 H       1  LIG1        0.0000
@<TRIPOS>BOND
     1     1     3   ar
     2     1     4   ar
     3     2     5   ar
     4     2     6   ar
     5     3     7   ar
     6     4     8   ar
     7     5     9   ar
     8     6    11   ar
     9     7    12   ar
    10     8    12   ar
    11     9    13   ar
    12    10    11   ar
    13    10    14   ar
    14    11    13   ar
    15    12    21    1
    16    13    22   ar
    17    14    16    1
    18    14    22   ar
    19    15    19    1
    20    15    23   am
    21    15    26    2
    22    16    24   am
    23    16    27    2
    24    17    20    1
    25    17    25   ar
    26    17    28   ar
    27    18    20    1
    28    18    23    1
    29    19    20    1
    30    19    24    1
    31    21    23    1
    32     1    29    1
    33     2    30    1
    34     3    31    1
    35     4    32    1
    36     5    33    1
    37     6    34    1
    38     7    35    1
    39     8    36    1
    40     9    37    1
    41    10    38    1
    42    18    39    1
    43    18    40    1
    44    19    41    1
    45    20    42    1
    46    21    43    1
    47    21    44    1
    48    22    45    1
    49    24    46    1
