@<TRIPOS>MOLECULE
ChEBML196627
 56 59 0 0 0
SMALL
USER_CHARGES

@<TRIPOS>ATOM
      1 C          -9.8893   -1.1790    1.7393 C.ar    1  LIG1       -0.0470
      2 C          -3.6809   -0.4853   -0.5401 C.ar    1  LIG1       -0.0559
      3 C          -5.7449   -0.1695   -1.7554 C.ar    1  LIG1       -0.0559
      4 C         -11.1430   -1.7785    1.5786 C.ar    1  LIG1       -0.0395
      5 C          -4.3712   -1.1823    0.4514 C.ar    1  LIG1       -0.0308
      6 C          -6.4354   -0.8666   -0.7640 C.ar    1  LIG1       -0.0308
      7 C          -8.8414   -3.3396    1.6574 C.ar    1  LIG1       -0.0437
      8 C          -8.7403   -1.9590    1.7859 C.ar    1  LIG1        0.0478
      9 C         -10.0950   -3.9433    1.4786 C.ar    1  LIG1       -0.0252
     10 C          -4.3676    0.0212   -1.6434 C.ar    1  LIG1       -0.0424
     11 C         -11.2811   -3.1745    1.4613 C.ar    1  LIG1        0.0360
     12 C          -5.7484   -1.3731    0.3394 C.ar    1  LIG1        0.0857
     13 C         -13.8125   -5.7920    0.6406 C.2     1  LIG1        0.0094
     14 C         -12.6372   -5.1395    0.8037 C.2     1  LIG1        0.0166
     15 C         -15.0524   -5.1259    1.1540 C.2     1  LIG1        0.1612
     16 C          -7.4396   -1.3329    1.9603 C.2     1  LIG1        0.2978
     17 C         -10.1931   -5.4377    1.3483 C.3     1  LIG1       -0.0207
     18 C         -11.3284   -5.7960    0.3946 C.3     1  LIG1       -0.0099
     19 C         -14.8820   -3.9258    2.0474 C.3     1  LIG1        0.0267
     20 C         -13.7453   -3.0374    1.5728 C.3     1  LIG1        0.0236
     21 C         -14.0201   -7.1254   -0.0182 C.3     1  LIG1       -0.0347
     22 C          -2.5293   -0.1250   -3.3596 C.3     1  LIG1       -0.0561
     23 C          -2.9251    2.0305   -2.1214 C.3     1  LIG1       -0.0561
     24 C          -4.5051    1.2875   -3.8914 C.3     1  LIG1       -0.0561
     25 C          -3.6296    0.7659   -2.7039 C.3     1  LIG1       -0.0132
     26 N         -12.5358   -3.8309    1.3192 N.pl3   1  LIG1       -0.3032
     27 O         -16.1675   -5.5907    0.9242 O.2     1  LIG1       -0.2943
     28 O          -7.2486   -0.2763    2.5791 O.2     1  LIG1       -0.2602
     29 O          -6.4398   -2.0726    1.3322 O.3     1  LIG1       -0.2743
     30 H          -9.8272   -0.0969    1.8261 H       1  LIG1        0.0632
     31 H          -2.6080   -0.3414   -0.4446 H       1  LIG1        0.0627
     32 H          -6.2883    0.2218   -2.6117 H       1  LIG1        0.0627
     33 H         -12.0033   -1.1161    1.5313 H       1  LIG1        0.0643
     34 H          -3.8304   -1.5748    1.3085 H       1  LIG1        0.0650
     35 H          -7.5079   -1.0121   -0.8571 H       1  LIG1        0.0650
     36 H          -7.9444   -3.9545    1.6902 H       1  LIG1        0.0635
     37 H          -9.2562   -5.8537    0.9590 H       1  LIG1        0.0320
     38 H         -10.3656   -5.8726    2.3405 H       1  LIG1        0.0320
     39 H         -11.4010   -6.8879    0.3768 H       1  LIG1        0.0333
     40 H         -11.0785   -5.4669   -0.6230 H       1  LIG1        0.0333
     41 H         -15.8147   -3.3514    2.0577 H       1  LIG1        0.0367
     42 H         -14.6950   -4.2911    3.0639 H       1  LIG1        0.0367
     43 H         -14.0317   -2.5149    0.6516 H       1  LIG1        0.0477
     44 H         -13.5919   -2.2891    2.3593 H       1  LIG1        0.0477
     45 H         -13.9360   -7.9131    0.7262 H       1  LIG1        0.0281
     46 H         -13.2672   -7.2689   -0.7895 H       1  LIG1        0.0281
     47 H         -15.0078   -7.1543   -0.4721 H       1  LIG1        0.0281
     48 H          -1.9710    0.3994   -4.1438 H       1  LIG1        0.0239
     49 H          -1.7971   -0.4676   -2.6202 H       1  LIG1        0.0239
     50 H          -2.9822   -1.0157   -3.8112 H       1  LIG1        0.0239
     51 H          -2.3817    2.5804   -2.8976 H       1  LIG1        0.0239
     52 H          -3.6296    2.7350   -1.6637 H       1  LIG1        0.0239
     53 H          -2.1980    1.7398   -1.3540 H       1  LIG1        0.0239
     54 H          -3.9180    1.8277   -4.6440 H       1  LIG1        0.0239
     55 H          -4.9998    0.4554   -4.4060 H       1  LIG1        0.0239
     56 H          -5.2791    1.9758   -3.5323 H       1  LIG1        0.0239
@<TRIPOS>BOND
     1     1     4   ar
     2     1     8   ar
     3     2     5   ar
     4     2    10   ar
     5     3     6   ar
     6     3    10   ar
     7     4    11   ar
     8     5    12   ar
     9     6    12   ar
    10     7     8   ar
    11     7     9   ar
    12     8    16    1
    13     9    11   ar
    14     9    17    1
    15    10    25    1
    16    11    26    1
    17    12    29    1
    18    13    14    2
    19    13    15    1
    20    13    21    1
    21    14    18    1
    22    14    26    1
    23    15    19    1
    24    15    27    2
    25    16    28    2
    26    16    29    1
    27    17    18    1
    28    19    20    1
    29    20    26    1
    30    22    25    1
    31    23    25    1
    32    24    25    1
    33     1    30    1
    34     2    31    1
    35     3    32    1
    36     4    33    1
    37     5    34    1
    38     6    35    1
    39     7    36    1
    40    17    37    1
    41    17    38    1
    42    18    39    1
    43    18    40    1
    44    19    41    1
    45    19    42    1
    46    20    43    1
    47    20    44    1
    48    21    45    1
    49    21    46    1
    50    21    47    1
    51    22    48    1
    52    22    49    1
    53    22    50    1
    54    23    51    1
    55    23    52    1
    56    23    53    1
    57    24    54    1
    58    24    55    1
    59    24    56    1
