@<TRIPOS>MOLECULE
ChEBML786595
 46 50 0 0 0
SMALL
USER_CHARGES

@<TRIPOS>ATOM
      1 C         -11.7016   -7.1422    0.1367 C.ar    1  LIG1       -0.0614
      2 C         -13.0541   -6.8478    0.1262 C.ar    1  LIG1       -0.0596
      3 C          -2.6551   -0.5847   -3.5999 C.ar    1  LIG1       -0.0573
      4 C          -2.4662    0.7911   -3.6008 C.ar    1  LIG1       -0.0437
      5 C         -10.7864   -6.1636    0.4758 C.ar    1  LIG1       -0.0512
      6 C         -13.5047   -5.5800    0.4375 C.ar    1  LIG1       -0.0311
      7 C          -3.2410   -1.1698   -2.4921 C.ar    1  LIG1       -0.0217
      8 C          -9.9775   -1.6878    2.1713 C.ar    1  LIG1       -0.0362
      9 C          -2.8654    1.5292   -2.5048 C.ar    1  LIG1        0.0290
     10 C         -11.2292   -4.8926    0.8030 C.ar    1  LIG1        0.0191
     11 C         -10.8796   -2.6572    1.8320 C.ar    1  LIG1       -0.0058
     12 C         -12.6065   -4.5763    0.7666 C.ar    1  LIG1        0.0838
     13 C         -10.3542   -3.8016    1.2067 C.ar    1  LIG1        0.0278
     14 C          -8.6297   -1.8773    1.8904 C.ar    1  LIG1        0.0754
     15 C          -3.6191   -0.3646   -1.4221 C.ar    1  LIG1        0.1199
     16 C          -7.5001   -0.9856    2.1602 C.2     1  LIG1        0.2524
     17 C         -12.3861   -2.6463    2.0516 C.3     1  LIG1        0.0796
     18 C          -4.4934    0.1548    0.6329 C.3     1  LIG1        0.0288
     19 C          -5.4973   -1.4890   -0.7397 C.3     1  LIG1        0.0288
     20 C          -5.1262   -0.4112    1.9081 C.3     1  LIG1        0.0303
     21 C          -6.1949   -2.1679    0.4491 C.3     1  LIG1        0.0303
     22 N          -3.4269    0.9446   -1.4633 N.ar    1  LIG1       -0.2414
     23 N          -4.2089   -0.9394   -0.3024 N.pl3   1  LIG1       -0.3127
     24 N          -6.3239   -1.1786    1.5310 N.am    1  LIG1       -0.2942
     25 O          -7.6218   -0.0730    2.9566 O.2     1  LIG1       -0.2710
     26 O         -13.0413   -3.3206    0.9909 O.3     1  LIG1       -0.3407
     27 S          -8.6289   -3.4865    1.1072 S.2     1  LIG1       -0.0834
     28 H         -11.3621   -8.1348   -0.1197 H       1  LIG1        0.0623
     29 H         -13.7657   -7.6193   -0.1283 H       1  LIG1        0.0623
     30 H          -2.3511   -1.1844   -4.4451 H       1  LIG1        0.0624
     31 H          -2.0112    1.2787   -4.4503 H       1  LIG1        0.0639
     32 H          -9.7303   -6.3891    0.4860 H       1  LIG1        0.0630
     33 H         -14.5638   -5.3691    0.4249 H       1  LIG1        0.0650
     34 H          -3.4025   -2.2371   -2.4578 H       1  LIG1        0.0659
     35 H         -10.3099   -0.7810    2.6547 H       1  LIG1        0.0641
     36 H          -2.7200    2.5993   -2.5012 H       1  LIG1        0.0840
     37 H         -12.6173   -3.1443    2.9932 H       1  LIG1        0.0624
     38 H         -12.7371   -1.6152    2.0956 H       1  LIG1        0.0624
     39 H          -5.1823    0.8600    0.1680 H       1  LIG1        0.0485
     40 H          -3.5649    0.6674    0.8849 H       1  LIG1        0.0485
     41 H          -6.1250   -0.6835   -1.1209 H       1  LIG1        0.0485
     42 H          -5.3301   -2.2226   -1.5283 H       1  LIG1        0.0485
     43 H          -5.4078    0.4060    2.5722 H       1  LIG1        0.0486
     44 H          -4.4146   -1.0654    2.4118 H       1  LIG1        0.0486
     45 H          -5.5996   -3.0135    0.7939 H       1  LIG1        0.0486
     46 H          -7.1838   -2.5132    0.1475 H       1  LIG1        0.0486
@<TRIPOS>BOND
     1     1     2   ar
     2     1     5   ar
     3     2     6   ar
     4     3     4   ar
     5     3     7   ar
     6     4     9   ar
     7     5    10   ar
     8     6    12   ar
     9     7    15   ar
    10     8    11   ar
    11     8    14   ar
    12     9    22   ar
    13    10    12   ar
    14    10    13    1
    15    11    13   ar
    16    11    17    1
    17    12    26    1
    18    13    27   ar
    19    14    16    1
    20    14    27   ar
    21    15    22   ar
    22    15    23    1
    23    16    24   am
    24    16    25    2
    25    17    26    1
    26    18    20    1
    27    18    23    1
    28    19    21    1
    29    19    23    1
    30    20    24    1
    31    21    24    1
    32     1    28    1
    33     2    29    1
    34     3    30    1
    35     4    31    1
    36     5    32    1
    37     6    33    1
    38     7    34    1
    39     8    35    1
    40     9    36    1
    41    17    37    1
    42    17    38    1
    43    18    39    1
    44    18    40    1
    45    19    41    1
    46    19    42    1
    47    20    43    1
    48    20    44    1
    49    21    45    1
    50    21    46    1
