@<TRIPOS>MOLECULE
ChEBML5306
 37 39 0 0 0
SMALL
USER_CHARGES

@<TRIPOS>ATOM
      1 C          -2.2923    0.7821   -3.9232 C.ar    1  LIG1       -0.0622
      2 C         -12.5023   -4.8968    1.1634 C.ar    1  LIG1       -0.0615
      3 C          -3.6551    0.7809   -3.6258 C.ar    1  LIG1       -0.0617
      4 C          -1.3715    0.3320   -2.9769 C.ar    1  LIG1       -0.0617
      5 C         -11.5752   -5.5955    0.3926 C.ar    1  LIG1       -0.0603
      6 C         -12.1349   -3.7294    1.8423 C.ar    1  LIG1       -0.0530
      7 C          -4.0971    0.3296   -2.3823 C.ar    1  LIG1       -0.0550
      8 C          -1.8136   -0.1192   -1.7333 C.ar    1  LIG1       -0.0550
      9 C         -10.2549   -5.1516    0.2755 C.ar    1  LIG1       -0.0402
     10 C         -10.1062   -2.1479    2.2757 C.ar    1  LIG1       -0.0262
     11 C         -10.8094   -3.2627    1.7392 C.ar    1  LIG1       -0.0022
     12 C          -3.1764   -0.1205   -1.4359 C.ar    1  LIG1       -0.0259
     13 C          -9.9018   -3.9831    0.9598 C.ar    1  LIG1        0.0378
     14 C          -8.8096   -2.2122    1.8204 C.ar    1  LIG1        0.0945
     15 C          -3.6298   -0.5840   -0.1587 C.2     1  LIG1       -0.0574
     16 C          -4.8260   -0.2804    0.3705 C.2     1  LIG1       -0.0668
     17 C          -7.7298   -1.3160    2.0896 C.2     1  LIG1        0.2574
     18 C          -5.2868   -0.7984    1.6958 C.3     1  LIG1        0.0299
     19 N          -8.6960   -3.3223    1.0273 N.ar    1  LIG1       -0.3101
     20 N          -6.4771   -1.5948    1.5019 N.am    1  LIG1       -0.3067
     21 O          -7.8753   -0.3194    2.8418 O.2     1  LIG1       -0.2704
     22 H          -1.9482    1.1324   -4.8919 H       1  LIG1        0.0622
     23 H         -13.5236   -5.2612    1.2385 H       1  LIG1        0.0623
     24 H          -4.3722    1.1302   -4.3629 H       1  LIG1        0.0623
     25 H          -0.3105    0.3319   -3.2087 H       1  LIG1        0.0623
     26 H         -11.8823   -6.4999   -0.1258 H       1  LIG1        0.0623
     27 H         -12.8680   -3.1941    2.4394 H       1  LIG1        0.0629
     28 H          -5.1626    0.3346   -2.1651 H       1  LIG1        0.0629
     29 H          -1.0836   -0.4670   -1.0063 H       1  LIG1        0.0629
     30 H          -9.5330   -5.6959   -0.3241 H       1  LIG1        0.0642
     31 H         -10.5102   -1.3828    2.9254 H       1  LIG1        0.0651
     32 H          -2.9714   -1.2485    0.3974 H       1  LIG1        0.0626
     33 H          -5.5363    0.3442   -0.1652 H       1  LIG1        0.0592
     34 H          -4.5203   -1.4381    2.1429 H       1  LIG1        0.0512
     35 H          -5.5310    0.0007    2.4021 H       1  LIG1        0.0512
     36 H          -7.8505   -3.6176    0.5584 H       1  LIG1        0.1529
     37 H          -6.3809   -2.4423    0.9520 H       1  LIG1        0.1500
@<TRIPOS>BOND
     1     1     3   ar
     2     1     4   ar
     3     2     5   ar
     4     2     6   ar
     5     3     7   ar
     6     4     8   ar
     7     5     9   ar
     8     6    11   ar
     9     7    12   ar
    10     8    12   ar
    11     9    13   ar
    12    10    11   ar
    13    10    14   ar
    14    11    13   ar
    15    12    15    1
    16    13    19   ar
    17    14    17    1
    18    14    19   ar
    19    15    16    2
    20    16    18    1
    21    17    20   am
    22    17    21    2
    23    18    20    1
    24     1    22    1
    25     2    23    1
    26     3    24    1
    27     4    25    1
    28     5    26    1
    29     6    27    1
    30     7    28    1
    31     8    29    1
    32     9    30    1
    33    10    31    1
    34    15    32    1
    35    16    33    1
    36    18    34    1
    37    18    35    1
    38    19    36    1
    39    20    37    1
