@<TRIPOS>MOLECULE
ChEBML753708
 43 45 0 0 0
SMALL
USER_CHARGES

@<TRIPOS>ATOM
      1 C          -1.9380   -0.6419   -2.9643 C.ar    1  LIG1       -0.0573
      2 C         -11.8602   -5.4509    1.5507 C.ar    1  LIG1       -0.0578
      3 C          -1.9597    0.7123   -3.2788 C.ar    1  LIG1       -0.0437
      4 C         -10.5346   -5.1327    1.2557 C.ar    1  LIG1       -0.0406
      5 C         -12.7457   -4.4496    1.9497 C.ar    1  LIG1       -0.0314
      6 C          -2.9306   -1.1770   -2.1507 C.ar    1  LIG1       -0.0217
      7 C         -10.9797   -2.8120    1.7588 C.ar    1  LIG1       -0.0101
      8 C          -2.9874    1.4825   -2.7588 C.ar    1  LIG1        0.0290
      9 C         -10.0943   -3.8133    1.3598 C.ar    1  LIG1        0.0342
     10 C         -12.3054   -3.1301    2.0538 C.ar    1  LIG1        0.0833
     11 C          -3.9145   -0.3222   -1.6809 C.ar    1  LIG1        0.1199
     12 C          -7.9191   -2.5223    1.5623 C.2     1  LIG1        0.1359
     13 C          -5.5396   -0.0623    0.1517 C.3     1  LIG1        0.0287
     14 C          -5.3047   -2.2535   -1.0472 C.3     1  LIG1        0.0287
     15 C          -6.0424   -0.9586    1.2840 C.3     1  LIG1        0.0290
     16 C          -6.7571   -2.4295   -0.6026 C.3     1  LIG1        0.0290
     17 C         -14.5424   -2.3245    2.1138 C.3     1  LIG1        0.3495
     18 N          -3.9689    0.9985   -1.9650 N.ar    1  LIG1       -0.2414
     19 N          -4.8811   -0.8613   -0.8840 N.pl3   1  LIG1       -0.3127
     20 N          -6.9455   -1.9936    0.7810 N.am    1  LIG1       -0.3099
     21 N          -8.7485   -3.4907    1.0600 N.am    1  LIG1       -0.2968
     22 O         -13.1692   -2.1529    2.4434 O.3     1  LIG1       -0.2852
     23 F         -15.1304   -2.9887    3.1422 F       1  LIG1       -0.1786
     24 F         -15.1395   -1.1092    2.0484 F       1  LIG1       -0.1786
     25 S          -8.0593   -2.0452    3.1646 S.2     1  LIG1       -0.0183
     26 H          -1.1483   -1.2790   -3.3515 H       1  LIG1        0.0624
     27 H         -12.2029   -6.4781    1.4687 H       1  LIG1        0.0624
     28 H          -1.1964    1.1514   -3.9110 H       1  LIG1        0.0639
     29 H          -9.8534   -5.9213    0.9463 H       1  LIG1        0.0642
     30 H         -13.7771   -4.7040    2.1773 H       1  LIG1        0.0650
     31 H          -2.9215   -2.2328   -1.9006 H       1  LIG1        0.0659
     32 H         -10.6411   -1.7815    1.8410 H       1  LIG1        0.0670
     33 H          -3.0499    2.5441   -2.9747 H       1  LIG1        0.0840
     34 H          -6.3740    0.4899   -0.2975 H       1  LIG1        0.0485
     35 H          -4.8401    0.6730    0.5678 H       1  LIG1        0.0485
     36 H          -4.6438   -2.9006   -0.4578 H       1  LIG1        0.0485
     37 H          -5.2181   -2.5585   -2.0970 H       1  LIG1        0.0485
     38 H          -5.2045   -1.4745    1.7686 H       1  LIG1        0.0485
     39 H          -6.5566   -0.3702    2.0517 H       1  LIG1        0.0485
     40 H          -7.4271   -1.8216   -1.2229 H       1  LIG1        0.0485
     41 H          -7.0737   -3.4734   -0.6997 H       1  LIG1        0.0485
     42 H         -14.7013   -2.8955    1.1927 H       1  LIG1        0.1390
     43 H          -8.3183   -4.0930    0.3610 H       1  LIG1        0.1546
@<TRIPOS>BOND
     1     1     3   ar
     2     1     6   ar
     3     2     4   ar
     4     2     5   ar
     5     3     8   ar
     6     4     9   ar
     7     5    10   ar
     8     6    11   ar
     9     7     9   ar
    10     7    10   ar
    11     8    18   ar
    12     9    21    1
    13    10    22    1
    14    11    18   ar
    15    11    19    1
    16    12    20    1
    17    12    21    1
    18    12    25    2
    19    13    15    1
    20    13    19    1
    21    14    16    1
    22    14    19    1
    23    15    20    1
    24    16    20    1
    25    17    22    1
    26    17    23    1
    27    17    24    1
    28     1    26    1
    29     2    27    1
    30     3    28    1
    31     4    29    1
    32     5    30    1
    33     6    31    1
    34     7    32    1
    35     8    33    1
    36    13    34    1
    37    13    35    1
    38    14    36    1
    39    14    37    1
    40    15    38    1
    41    15    39    1
    42    16    40    1
    43    16    41    1
    44    17    42    1
    45    21    43    1
