@<TRIPOS>MOLECULE
ChEBML220019
 32 34 0 0 0
SMALL
USER_CHARGES

@<TRIPOS>ATOM
      1 C          -2.4481    0.9515   -3.2207 C.ar    1  LIG1       -0.0550
      2 C         -10.5701   -2.9093    2.1592 C.ar    1  LIG1       -0.0552
      3 C          -9.7910   -1.8419    2.6002 C.ar    1  LIG1       -0.0302
      4 C          -3.6354    0.7609   -2.5227 C.ar    1  LIG1       -0.0116
      5 C          -1.4858   -0.0521   -3.2318 C.ar    1  LIG1       -0.0245
      6 C          -8.8683   -3.4903    0.5337 C.ar    1  LIG1       -0.0479
      7 C          -8.0806   -2.4221    0.9696 C.ar    1  LIG1        0.0068
      8 C         -10.1101   -3.7318    1.1285 C.ar    1  LIG1       -0.0324
      9 C          -8.5554   -1.6133    1.9979 C.ar    1  LIG1        0.0929
     10 C          -3.8107   -0.4418   -1.8572 C.ar    1  LIG1        0.1769
     11 C          -1.7572   -1.2183   -2.5343 C.ar    1  LIG1        0.1316
     12 C          -6.7819   -2.1271    0.3849 C.ar    1  LIG1       -0.0327
     13 C          -6.0644   -1.0937    0.8353 C.ar    1  LIG1        0.1208
     14 C          -6.5446   -0.2191    1.9259 C.ar    1  LIG1        0.3041
     15 C          -4.7644   -0.8813    0.1863 C.2     1  LIG1        0.3054
     16 C         -10.9472   -4.8751    0.6615 C.3     1  LIG1        0.0474
     17 N          -2.8989   -1.4398   -1.8450 N.ar    1  LIG1       -0.2119
     18 O          -5.8845    0.7281    2.3384 O.2     1  LIG1       -0.2599
     19 O          -3.7130   -0.9128    0.8111 O.2     1  LIG1       -0.2599
     20 O          -7.7908   -0.5260    2.4658 O.2     1  LIG1       -0.2735
     21 O          -4.9938   -0.6565   -1.1483 O.3     1  LIG1       -0.2547
     22 CL         -0.6279   -2.5092   -2.4921 Cl      1  LIG1       -0.0622
     23 CL        -12.3042   -4.2957   -0.3303 Cl      1  LIG1       -0.1215
     24 H          -2.2733    1.8805   -3.7555 H       1  LIG1        0.0625
     25 H         -11.5351   -3.0950    2.6229 H       1  LIG1        0.0627
     26 H         -10.1472   -1.2012    3.4009 H       1  LIG1        0.0651
     27 H          -4.3962    1.5339   -2.5053 H       1  LIG1        0.0668
     28 H          -0.5565    0.0873   -3.7736 H       1  LIG1        0.0655
     29 H          -8.5205   -4.1378   -0.2685 H       1  LIG1        0.0633
     30 H          -6.4310   -2.7712   -0.4156 H       1  LIG1        0.0641
     31 H         -11.3619   -5.4407    1.5061 H       1  LIG1        0.0485
     32 H         -10.3625   -5.5809    0.0570 H       1  LIG1        0.0485
@<TRIPOS>BOND
     1     1     4   ar
     2     1     5   ar
     3     2     3   ar
     4     2     8   ar
     5     3     9   ar
     6     4    10   ar
     7     5    11   ar
     8     6     7   ar
     9     6     8   ar
    10     7     9   ar
    11     7    12   ar
    12     8    16    1
    13     9    20   ar
    14    10    17   ar
    15    10    21    1
    16    11    17   ar
    17    11    22    1
    18    12    13   ar
    19    13    14   ar
    20    13    15    1
    21    14    18    2
    22    14    20   ar
    23    15    19    2
    24    15    21    1
    25    16    23    1
    26     1    24    1
    27     2    25    1
    28     3    26    1
    29     4    27    1
    30     5    28    1
    31     6    29    1
    32    12    30    1
    33    16    31    1
    34    16    32    1
